@<TRIPOS>MOLECULE
tmp/2xayB00.pdb
 157 148 0 0 0
SMALL
GASTEIGER

@<TRIPOS>ATOM
      1  N        -34.9500  101.6190  -22.6790 N.3   332  LYS332     -0.1245
      2  CA       -36.0420  102.4480  -23.2110 C.3   332  LYS332      0.1561
      3  C        -36.7380  103.3180  -22.1480 C.2   332  LYS332      0.2260
      4  O        -36.8930  104.5300  -22.3350 O.2   332  LYS332     -0.2867
      5  CB       -37.0570  101.5400  -23.9300 C.3   332  LYS332      0.0271
      6  CG       -37.6120  102.0660  -25.2530 C.3   332  LYS332      0.0035
      7  CD       -39.0210  102.6200  -25.1120 C.3   332  LYS332      0.0206
      8  CE       -39.6440  102.9680  -26.4760 C.3   332  LYS332      0.1093
      9  NZ       -40.0740  101.7620  -27.2660 N.3   332  LYS332     -0.1314
     10  N        -34.7830  106.4270  -20.8310 N.3   335  TYR335     -0.1227
     11  CA       -34.7660  107.4670  -21.8490 C.3   335  TYR335      0.1736
     12  C        -36.1070  108.1850  -21.9380 C.2   335  TYR335      0.2596
     13  O        -36.1540  109.4140  -22.0180 O.2   335  TYR335     -0.2718
     14  CB       -34.4140  106.8780  -23.2130 C.3   335  TYR335      0.0548
     15  CG       -32.9620  106.4940  -23.3880 C.ar  335  TYR335     -0.0200
     16  CD1      -31.9580  107.4610  -23.3930 C.ar  335  TYR335     -0.0009
     17  CD2      -32.5950  105.1620  -23.5880 C.ar  335  TYR335     -0.0009
     18  CE1      -30.6300  107.1040  -23.5720 C.ar  335  TYR335      0.0417
     19  CE2      -31.2750  104.8040  -23.7680 C.ar  335  TYR335      0.0417
     20  CZ       -30.3060  105.7750  -23.7580 C.ar  335  TYR335      0.1957
     21  OH       -29.0050  105.4180  -23.9390 O.3   335  TYR335     -0.2866
     22  N        -37.1870  107.4050  -21.9290 N.am  336  THR336     -0.1953
     23  CA       -38.5500  107.9380  -21.9530 C.3   336  THR336      0.1897
     24  C        -38.7470  108.9310  -20.8060 C.2   336  THR336      0.2313
     25  O        -39.2530  110.0460  -21.0080 O.2   336  THR336     -0.2863
     26  CB       -39.5800  106.8040  -21.8370 C.3   336  THR336      0.1794
     27  OG1      -39.3810  105.8760  -22.9090 O.3   336  THR336     -0.2208
     28  CG2      -41.0080  107.3500  -21.8830 C.3   336  THR336      0.0378
     29  N        -36.5290  110.6320  -19.4290 N.3   338  LEU338     -0.1231
     30  CA       -35.7610  111.8230  -19.8190 C.3   338  LEU338      0.1693
     31  C        -36.5810  112.7450  -20.7210 C.2   338  LEU338      0.2592
     32  O        -36.7300  113.9350  -20.4230 O.2   338  LEU338     -0.2718
     33  CB       -34.4440  111.4250  -20.5050 C.3   338  LEU338      0.0284
     34  CG       -33.6660  112.4910  -21.2910 C.3   338  LEU338      0.0019
     35  CD1      -33.0360  113.5410  -20.3640 C.3   338  LEU338      0.0001
     36  CD2      -32.6100  111.8560  -22.2020 C.3   338  LEU338      0.0001
     37  N        -37.1140  112.1820  -21.8070 N.am  339  LEU339     -0.1966
     38  CA       -37.9270  112.9230  -22.7790 C.3   339  LEU339      0.1728
     39  C        -39.1630  113.5310  -22.1320 C.2   339  LEU339      0.2616
     40  O        -39.4000  114.7450  -22.2450 O.2   339  LEU339     -0.2715
     41  CB       -38.3560  112.0250  -23.9430 C.3   339  LEU339      0.0311
     42  CG       -37.3050  111.1690  -24.6550 C.3   339  LEU339      0.0022
     43  CD1      -37.9250  110.4800  -25.8680 C.3   339  LEU339      0.0001
     44  CD2      -36.0680  111.9800  -25.0560 C.3   339  LEU339      0.0001
     45  N        -39.9330  112.6840  -21.4440 N.am  340  LYS340     -0.1963
     46  CA       -41.1430  113.1120  -20.7510 C.3   340  LYS340      0.1728
     47  C        -40.8510  114.0730  -19.5960 C.2   340  LYS340      0.2616
     48  O        -41.7810  114.5560  -18.9500 O.2   340  LYS340     -0.2715
     49  CB       -41.9360  111.9070  -20.2480 C.3   340  LYS340      0.0311
     50  CG       -42.7990  111.2130  -21.2980 C.3   340  LYS340      0.0038
     51  CD       -43.9410  110.4480  -20.6030 C.3   340  LYS340      0.0206
     52  CE       -44.8010  109.6470  -21.5770 C.3   340  LYS340      0.1093
     53  NZ       -44.2550  108.2800  -21.8340 N.3   340  LYS340     -0.1314
     54  N        -39.5680  114.3420  -19.3430 N.am  341  GLY341     -0.1955
     55  CA       -39.1330  115.2820  -18.2930 C.3   341  GLY341      0.1869
     56  C        -39.5600  114.8870  -16.8880 C.2   341  GLY341      0.2309
     57  O        -39.8710  115.7420  -16.0560 O.2   341  GLY341     -0.2863
     58  N        -33.5010  114.5400  -15.9930 N.3   387  VAL387     -0.1245
     59  CA       -32.5830  115.4380  -16.6980 C.3   387  VAL387      0.1561
     60  C        -31.2880  115.6400  -15.9390 C.2   387  VAL387      0.2260
     61  O        -30.2290  115.7780  -16.5480 O.2   387  VAL387     -0.2867
     62  CB       -33.2070  116.8100  -17.0360 C.3   387  VAL387      0.0252
     63  CG1      -34.1710  116.6630  -18.1860 C.3   387  VAL387      0.0019
     64  CG2      -33.8910  117.4240  -15.8170 C.3   387  VAL387      0.0019
     65  N        -27.6900  114.4260  -17.2620 N.3   391  SER391     -0.1217
     66  CA       -26.7710  115.5660  -17.2840 C.3   391  SER391      0.1889
     67  C        -25.4720  115.2520  -16.5580 C.2   391  SER391      0.2288
     68  O        -24.3830  115.5890  -17.0440 O.2   391  SER391     -0.2866
     69  CB       -27.4150  116.8070  -16.6530 C.3   391  SER391      0.2089
     70  OG       -28.2760  117.4680  -17.5670 O.3   391  SER391     -0.2183
     71  N        -33.1180   96.9620  -35.2660 N.3   575  LYS575     -0.1245
     72  CA       -33.9290   98.1580  -34.9950 C.3   575  LYS575      0.1561
     73  C        -34.6220   98.6570  -36.2820 C.2   575  LYS575      0.2260
     74  O        -33.9690   98.8770  -37.3040 O.2   575  LYS575     -0.2867
     75  CB       -33.0500   99.2430  -34.3640 C.3   575  LYS575      0.0271
     76  CG       -33.7750  100.4780  -33.8460 C.3   575  LYS575      0.0035
     77  CD       -34.3550  100.2660  -32.4600 C.3   575  LYS575      0.0206
     78  CE       -34.7900  101.5740  -31.8430 C.3   575  LYS575      0.1093
     79  NZ       -35.5990  102.4120  -32.7500 N.3   575  LYS575     -0.1314
     80  N        -36.0160  101.3740  -37.3480 N.3   577  ASP577     -0.1239
     81  CA       -35.7080  102.6980  -37.8690 C.3   577  ASP577      0.1674
     82  C        -34.5680  102.7210  -38.8970 C.2   577  ASP577      0.2266
     83  O        -34.3930  103.7170  -39.5910 O.2   577  ASP577     -0.2867
     84  CB       -35.4370  103.6620  -36.7180 C.3   577  ASP577      0.1410
     85  CG       -36.6240  103.7820  -35.7610 C.2   577  ASP577      0.3668
     86  OD1      -37.0080  102.7640  -35.1250 O.co2 577  ASP577     -0.2456
     87  OD2      -37.1680  104.9010  -35.6400 O.co2 577  ASP577     -0.2456
     88  N        -25.0030  120.7080  -23.7060 N.3   702  MET702     -0.1230
     89  CA       -25.5640  119.4700  -23.1980 C.3   702  MET702      0.1702
     90  C        -26.6880  119.0080  -24.1110 C.2   702  MET702      0.2592
     91  O        -26.9060  117.8030  -24.2800 O.2   702  MET702     -0.2718
     92  CB       -26.0800  119.6870  -21.7720 C.3   702  MET702      0.0401
     93  CG       -26.7310  118.4770  -21.1090 C.3   702  MET702      0.0596
     94  SD       -25.6290  117.0640  -20.9210 S.3   702  MET702     -0.1393
     95  CE       -24.2570  117.7910  -20.0090 C.3   702  MET702      0.0692
     96  N        -27.3910  119.9690  -24.7070 N.am  703  GLN703     -0.1979
     97  CA       -28.4780  119.6550  -25.6280 C.3   703  GLN703      0.1601
     98  C        -27.9710  118.7250  -26.7200 C.2   703  GLN703      0.2287
     99  O        -28.6150  117.7170  -27.0120 O.2   703  GLN703     -0.2864
    100  CB       -29.0770  120.9230  -26.2460 C.3   703  GLN703      0.0394
    101  CG       -30.4500  120.7060  -26.8980 C.3   703  GLN703      0.0908
    102  CD       -31.5890  120.6030  -25.8760 C.2   703  GLN703      0.2608
    103  OE1      -31.4740  121.0930  -24.7450 O.2   703  GLN703     -0.2717
    104  NE2      -32.6960  119.9660  -26.2750 N.am  703  GLN703     -0.0878
    105  N        -26.9960  115.1350  -25.2920 N.3   706  LEU706     -0.1231
    106  CA       -28.1970  114.3210  -25.0810 C.3   706  LEU706      0.1693
    107  C        -28.8510  113.8740  -26.3860 C.2   706  LEU706      0.2591
    108  O        -29.2920  112.7320  -26.5030 O.2   706  LEU706     -0.2718
    109  CB       -29.2010  115.0600  -24.1980 C.3   706  LEU706      0.0284
    110  CG       -28.7170  115.3450  -22.7690 C.3   706  LEU706      0.0019
    111  CD1      -29.6270  116.3560  -22.0540 C.3   706  LEU706      0.0001
    112  CD2      -28.5670  114.0530  -21.9490 C.3   706  LEU706      0.0001
    113  N        -28.8840  114.7710  -27.3660 N.am  707  LYS707     -0.1980
    114  CA       -29.4650  114.4840  -28.6780 C.3   707  LYS707      0.1596
    115  C        -28.7460  113.3380  -29.4130 C.2   707  LYS707      0.2287
    116  O        -29.3960  112.4270  -29.9360 O.2   707  LYS707     -0.2864
    117  CB       -29.4940  115.7570  -29.5330 C.3   707  LYS707      0.0298
    118  CG       -30.0780  115.5610  -30.9110 C.3   707  LYS707      0.0038
    119  CD       -30.6480  116.8580  -31.4860 C.3   707  LYS707      0.0206
    120  CE       -31.4610  116.5670  -32.7640 C.3   707  LYS707      0.1093
    121  NZ       -30.6490  115.9260  -33.8650 N.3   707  LYS707     -0.1314
    122  N        -29.4360  109.9830  -27.7680 N.3   710  LEU710     -0.1231
    123  CA       -30.7300  109.4970  -28.2600 C.3   710  LEU710      0.1693
    124  C        -30.6900  109.0580  -29.7230 C.2   710  LEU710      0.2592
    125  O        -31.4120  108.1460  -30.1020 O.2   710  LEU710     -0.2718
    126  CB       -31.8320  110.5410  -28.0660 C.3   710  LEU710      0.0284
    127  CG       -32.0150  111.1290  -26.6640 C.3   710  LEU710      0.0019
    128  CD1      -32.7200  112.4720  -26.7560 C.3   710  LEU710      0.0001
    129  CD2      -32.7530  110.1940  -25.7150 C.3   710  LEU710      0.0001
    130  N        -29.8510  109.6960  -30.5380 N.am  711  THR711     -0.1953
    131  CA       -29.7160  109.3020  -31.9430 C.3   711  THR711      0.1897
    132  C        -29.1470  107.8990  -32.0550 C.2   711  THR711      0.2313
    133  O        -29.6670  107.0720  -32.8010 O.2   711  THR711     -0.2863
    134  CB       -28.8280  110.2710  -32.7430 C.3   711  THR711      0.1794
    135  OG1      -29.2860  111.6120  -32.5330 O.3   711  THR711     -0.2208
    136  CG2      -28.8570  109.9380  -34.2420 C.3   711  THR711      0.0378
    137  N        -29.3020  105.6740  -29.7850 N.3   713  TYR713     -0.1227
    138  CA       -30.3670  104.8040  -29.3320 C.3   713  TYR713      0.1736
    139  C        -31.3450  104.5260  -30.4640 C.2   713  TYR713      0.2595
    140  O        -31.7280  103.3780  -30.7050 O.2   713  TYR713     -0.2718
    141  CB       -31.1220  105.3600  -28.1230 C.3   713  TYR713      0.0548
    142  CG       -32.0950  104.3270  -27.6250 C.ar  713  TYR713     -0.0200
    143  CD1      -31.6650  103.2930  -26.7930 C.ar  713  TYR713     -0.0009
    144  CD2      -33.4310  104.3320  -28.0450 C.ar  713  TYR713     -0.0009
    145  CE1      -32.5400  102.3160  -26.3570 C.ar  713  TYR713      0.0417
    146  CE2      -34.3230  103.3520  -27.6220 C.ar  713  TYR713      0.0417
    147  CZ       -33.8690  102.3470  -26.7770 C.ar  713  TYR713      0.1957
    148  OH       -34.7290  101.3660  -26.3490 O.3   713  TYR713     -0.2866
    149  N        -31.7330  105.5840  -31.1630 N.am  714  LYS714     -0.1980
    150  CA       -32.7240  105.4770  -32.2130 C.3   714  LYS714      0.1596
    151  C        -32.3320  104.4840  -33.3080 C.2   714  LYS714      0.2287
    152  O        -33.1920  103.7900  -33.8470 O.2   714  LYS714     -0.2864
    153  CB       -33.0030  106.8470  -32.8200 C.3   714  LYS714      0.0298
    154  CG       -34.4170  106.9840  -33.3150 C.3   714  LYS714      0.0038
    155  CD       -34.4900  107.8500  -34.5450 C.3   714  LYS714      0.0206
    156  CE       -35.7950  107.6020  -35.2830 C.3   714  LYS714      0.1093
    157  NZ       -37.0210  107.7380  -34.4050 N.3   714  LYS714     -0.1314
@<TRIPOS>BOND
     1    83    82    2
     2    82    81    1
     3    81    80    1
     4    81    84    1
     5    74    73    2
     6    84    85    1
     7    73    72    1
     8    85    87   ar
     9    85    86   ar
    10   156   155    1
    11   156   157    1
    12    71    72    1
    13    72    75    1
    14   155   154    1
    15    75    76    1
    16   136   134    1
    17   121   120    1
    18   152   151    2
    19    76    77    1
    20   154   153    1
    21   151   150    1
    22   153   150    1
    23   133   132    2
    24   120   119    1
    25    79    78    1
    26   134   135    1
    27   134   131    1
    28    77    78    1
    29   150   149    1
    30   132   131    1
    31   131   130    1
    32   119   118    1
    33   149   139   am
    34   118   117    1
    35   140   139    2
    36   130   124   am
    37   139   138    1
    38   125   124    2
    39   116   115    2
    40   137   138    1
    41   124   123    1
    42   117   114    1
    43   115   114    1
    44   138   141    1
    45   114   113    1
    46   123   126    1
    47   123   122    1
    48   141   142    1
    49   126   127    1
    50   144   142   ar
    51   144   146   ar
    52   142   143   ar
    53   146   147   ar
    54   113   107   am
    55     9     8    1
    56    99    98    2
    57   101   100    1
    58   101   102    1
    59   143   145   ar
    60   147   145   ar
    61   147   148    1
    62   128   127    1
    63    98    97    1
    64   127   129    1
    65   108   107    2
    66     8     7    1
    67   107   106    1
    68   104   102   am
    69   100    97    1
    70   102   103    2
    71    43    42    1
    72    97    96    1
    73   105   106    1
    74     6     7    1
    75     6     5    1
    76   106   109    1
    77    44    42    1
    78    96    90   am
    79    42    41    1
    80    91    90    2
    81   109   110    1
    82    90    89    1
    83    41    38    1
    84    21    20    1
    85     5     2    1
    86    19    20   ar
    87    19    17   ar
    88    20    18   ar
    89    88    89    1
    90    17    15   ar
    91    18    16   ar
    92    16    15   ar
    93    15    14    1
    94    14    11    1
    95     2     1    1
    96     2     3    1
    97    89    92    1
    98    27    26    1
    99    38    39    1
   100    38    37    1
   101   110   111    1
   102   110   112    1
   103     4     3    2
   104    40    39    2
   105    36    34    1
   106    39    45   am
   107    13    12    2
   108    23    22    1
   109    23    26    1
   110    23    24    1
   111    12    22   am
   112    12    11    1
   113    28    26    1
   114    11    10    1
   115    53    52    1
   116    37    31   am
   117    92    93    1
   118    52    51    1
   119    45    46    1
   120    50    51    1
   121    50    49    1
   122    34    33    1
   123    34    35    1
   124    93    94    1
   125    25    24    2
   126    94    95    1
   127    46    49    1
   128    46    47    1
   129    31    32    2
   130    31    30    1
   131    33    30    1
   132    30    29    1
   133    47    54   am
   134    47    48    2
   135    54    55    1
   136    55    56    1
   137    63    62    1
   138    70    69    1
   139    66    65    1
   140    66    69    1
   141    66    67    1
   142    68    67    2
   143    62    59    1
   144    62    64    1
   145    56    57    2
   146    59    58    1
   147    59    60    1
   148    61    60    2
