@<TRIPOS>MOLECULE
tmp/2xb4A00.pdb
 72 70 0 0 0
SMALL
GASTEIGER

@<TRIPOS>ATOM
      1  N         13.3550   17.8410   19.4990 N.3     7  GLY7       -0.1210
      2  CA        12.3220   17.6110   18.4710 C.3     7  GLY7        0.1940
      3  C         12.3350   16.1210   18.0770 C.2     7  GLY7        0.2454
      4  O         13.3760   15.4450   18.2770 O.2     7  GLY7       -0.2732
      5  N         11.2210   15.6160   17.5350 N.am    8  PRO8       -0.2717
      6  CA        11.0940   14.1900   17.2090 C.3     8  PRO8        0.1535
      7  C         11.8080   13.9380   15.8810 C.2     8  PRO8        0.2599
      8  O         12.0570   14.9080   15.1240 O.2     8  PRO8       -0.2715
      9  CB         9.6000   14.0160   16.9210 C.3     8  PRO8        0.0310
     10  CG         9.1020   15.3820   16.4940 C.3     8  PRO8        0.0237
     11  CD         9.9610   16.3770   17.3310 C.3     8  PRO8        0.0939
     12  N         12.0730   12.6760   15.5810 N.am    9  ASN9       -0.1959
     13  CA        12.4370   12.3410   14.2040 C.3     9  ASN9        0.1819
     14  C         11.3530   12.7980   13.2300 C.2     9  ASN9        0.2622
     15  O         10.1630   12.6600   13.5480 O.2     9  ASN9       -0.2715
     16  CB        12.6480   10.8170   14.0860 C.3     9  ASN9        0.1195
     17  CG        14.0040   10.3520   14.7660 C.2     9  ASN9        0.2630
     18  OD1       14.9240   11.1530   15.0950 O.2     9  ASN9       -0.2716
     19  ND2       14.1250    9.1010   14.9250 N.am    9  ASN9       -0.0877
     20  N         11.7060   13.3790   12.0800 N.am   10  GLY10      -0.1940
     21  CA        10.6810   13.8650   11.1350 C.3    10  GLY10       0.2014
     22  C         10.4580   15.3900   11.2490 C.2    10  GLY10       0.2640
     23  O          9.6920   15.9840   10.4600 O.2    10  GLY10      -0.2714
     24  N         11.1160   16.0550   12.1850 N.am   11  SER11      -0.1935
     25  CA        10.8810   17.5210   12.4410 C.3    11  SER11       0.2055
     26  C         11.9600   18.4460   11.8390 C.2    11  SER11       0.2644
     27  O         11.8910   19.6680   12.0310 O.2    11  SER11      -0.2714
     28  CB        10.7940   17.8560   13.9540 C.3    11  SER11       0.2130
     29  OG        12.0280   17.6300   14.6320 O.3    11  SER11      -0.2179
     30  N         12.9850   17.9040   11.1640 N.am   12  GLY12      -0.1939
     31  CA        14.0300   18.7940   10.5510 C.3    12  GLY12       0.2014
     32  C         14.9760   19.3950   11.6000 C.2    12  GLY12       0.2639
     33  O         15.6270   20.4050   11.3540 O.2    12  GLY12      -0.2714
     34  N         15.0520   18.7380   12.7640 N.am   13  LYS13      -0.1963
     35  CA        15.7640   19.2420   13.9410 C.3    13  LYS13       0.1728
     36  C         17.3090   19.4990   13.6580 C.2    13  LYS13       0.2617
     37  O         17.8780   20.4750   14.1730 O.2    13  LYS13      -0.2715
     38  CB        15.6240   18.2150   15.0920 C.3    13  LYS13       0.0311
     39  CG        16.2790   18.7200   16.3230 C.3    13  LYS13       0.0038
     40  CD        16.0080   17.9240   17.5370 C.3    13  LYS13       0.0206
     41  CE        16.2100   16.4390   17.2770 C.3    13  LYS13       0.1093
     42  NZ        17.5600   16.0000   17.5960 N.3    13  LYS13      -0.1314
     43  N         17.9710   18.5830   12.9230 N.am   14  GLY14      -0.1940
     44  CA        19.4290   18.7180   12.6290 C.3    14  GLY14       0.2014
     45  C         19.6870   19.9320   11.7500 C.2    14  GLY14       0.2639
     46  O         20.6230   20.7330   11.9730 O.2    14  GLY14      -0.2714
     47  N         18.8560   20.0870   10.7430 N.am   15  THR15      -0.1950
     48  CA        18.9370   21.2240    9.8590 C.3    15  THR15       0.1897
     49  C         18.8460   22.5430   10.5900 C.2    15  THR15       0.2313
     50  O         19.6480   23.4500   10.3460 O.2    15  THR15      -0.2863
     51  CB        17.8630   21.1540    8.7800 C.3    15  THR15       0.1794
     52  OG1       18.0110   19.9170    8.0910 O.3    15  THR15      -0.2208
     53  CG2       18.0560   22.2950    7.7590 C.3    15  THR15       0.0378
     54  N          8.6380   11.2050    7.6250 N.3   123  ILE123     -0.1245
     55  CA         9.7440   10.2860    7.4640 C.3   123  ILE123      0.1561
     56  C          9.3990    9.3100    6.3020 C.2   123  ILE123      0.2260
     57  O         10.2380    9.0460    5.4300 O.2   123  ILE123     -0.2867
     58  CB         9.9690    9.4920    8.7480 C.3   123  ILE123      0.0252
     59  CG1       10.3950   10.4370    9.8980 C.3   123  ILE123      0.0019
     60  CG2       10.9690    8.3120    8.5540 C.3   123  ILE123      0.0019
     61  CD1       10.0970    9.8440   11.3400 C.3   123  ILE123      0.0001
     62  N          9.5860   10.3980    2.4070 N.3   126  ARG126     -0.1245
     63  CA        10.8320   10.7710    1.7020 C.3   126  ARG126      0.1563
     64  C         11.0940    9.8660    0.4890 C.2   126  ARG126      0.2260
     65  O         10.9620    8.6230    0.6010 O.2   126  ARG126     -0.2867
     66  CB        12.0210   10.5930    2.6450 C.3   126  ARG126      0.0307
     67  CG        12.0400   11.5250    3.9620 C.3   126  ARG126      0.0489
     68  CD        13.0500   10.9890    4.9980 C.3   126  ARG126      0.2205
     69  NE        13.1440   11.9440    6.1070 N.pl3 126  ARG126     -0.0865
     70  CZ        13.6390   11.6570    7.3160 C.cat 126  ARG126      0.5346
     71  NH1       14.1210   10.4330    7.5470 N.pl3 126  ARG126      0.1354
     72  NH2       13.6670   12.6040    8.2870 N.pl3 126  ARG126      0.1354
@<TRIPOS>BOND
     1    64    65    2
     2    64    63    1
     3    63    62    1
     4    63    66    1
     5    66    67    1
     6    67    68    1
     7    68    69    1
     8    57    56    2
     9    69    70    2
    10    56    55    1
    11    70    71    1
    12    70    72    1
    13    55    54    1
    14    55    58    1
    15    53    51    1
    16    52    51    1
    17    60    58    1
    18    58    59    1
    19    51    48    1
    20    48    49    1
    21    48    47    1
    22    59    61    1
    23    50    49    2
    24    23    22    2
    25    31    30    1
    26    31    32    1
    27    47    45   am
    28    21    22    1
    29    21    20    1
    30    30    26   am
    31    22    24   am
    32    33    32    2
    33    32    34   am
    34    45    46    2
    35    45    44    1
    36    26    27    2
    37    26    25    1
    38    20    14   am
    39    24    25    1
    40    25    28    1
    41    44    43    1
    42    34    35    1
    43    43    36   am
    44    14    15    2
    45    14    13    1
    46    36    35    1
    47    36    37    2
    48    35    38    1
    49    28    29    1
    50    16    13    1
    51    16    17    1
    52    13    12    1
    53    17    19   am
    54    17    18    2
    55    38    39    1
    56     8     7    2
    57    12     7   am
    58     7     6    1
    59    39    40    1
    60    10     9    1
    61    10    11    1
    62     9     6    1
    63     6     5    1
    64    41    40    1
    65    41    42    1
    66    11     5    1
    67     5     3   am
    68     3     4    2
    69     3     2    1
    70     2     1    1
