@<TRIPOS>MOLECULE
tmp/2xb7A00.pdb
 172 160 0 0 0
SMALL
GASTEIGER

@<TRIPOS>ATOM
      1  N          2.7120   18.0380    1.2760 N.3    28  LEU28      -0.1231
      2  CA         2.9730   19.0190    2.3270 C.3    28  LEU28       0.1693
      3  C          4.4060   19.5610    2.2870 C.2    28  LEU28       0.2593
      4  O          4.7440   20.4820    3.0140 O.2    28  LEU28      -0.2718
      5  CB         2.7430   18.3840    3.6980 C.3    28  LEU28       0.0284
      6  CG         1.3700   17.7950    3.9870 C.3    28  LEU28       0.0019
      7  CD1        1.3350   17.2310    5.3930 C.3    28  LEU28       0.0001
      8  CD2        0.3160   18.8720    3.8110 C.3    28  LEU28       0.0001
      9  N          5.2530   18.9740    1.4520 N.am   29  GLY29      -0.1942
     10  CA         6.6740   19.2310    1.5710 C.3    29  GLY29       0.2014
     11  C          7.4480   17.9250    1.5900 C.2    29  GLY29       0.2639
     12  O          6.8580   16.8510    1.5340 O.2    29  GLY29      -0.2714
     13  N          8.7700   18.0010    1.6650 N.am   30  HIS30      -0.1959
     14  CA         9.5770   16.8000    1.5610 C.3    30  HIS30       0.1787
     15  C         10.3890   16.5970    2.8200 C.2    30  HIS30       0.2621
     16  O         10.9320   17.5440    3.3840 O.2    30  HIS30      -0.2715
     17  CB        10.4990   16.8790    0.3370 C.3    30  HIS30       0.0785
     18  CG         9.7790   17.2250   -0.9330 C.ar   30  HIS30       0.0821
     19  ND1        8.8830   16.3680   -1.5390 N.ar   30  HIS30      -0.2267
     20  CD2        9.7770   18.3580   -1.6790 C.ar   30  HIS30       0.1154
     21  CE1        8.3570   16.9590   -2.5990 C.ar   30  HIS30       0.1986
     22  NE2        8.8820   18.1680   -2.7060 N.ar   30  HIS30      -0.2212
     23  N         10.4410   15.3470    3.2630 N.am   31  GLY31      -0.1940
     24  CA        11.2550   14.9900    4.4030 C.3    31  GLY31       0.2014
     25  C         12.5320   14.3270    3.9380 C.2    31  GLY31       0.2638
     26  O         13.0080   14.5910    2.8340 O.2    31  GLY31      -0.2714
     27  N         13.0800   13.4570    4.7810 N.am   32  ALA32      -0.1977
     28  CA        14.3810   12.8580    4.5230 C.3    32  ALA32       0.1597
     29  C         14.3460   12.0670    3.2230 C.2    32  ALA32       0.2287
     30  O         15.1730   12.2680    2.3390 O.2    32  ALA32      -0.2864
     31  CB        14.7770   11.9460    5.6830 C.3    32  ALA32       0.0319
     32  N          6.1140   14.2820    1.7680 N.3    36  VAL36      -0.1245
     33  CA         5.1510   13.8750    2.7820 C.3    36  VAL36       0.1561
     34  C          3.8070   14.3870    2.2870 C.2    36  VAL36       0.2260
     35  O          3.7470   15.4660    1.7170 O.2    36  VAL36      -0.2867
     36  CB         5.4690   14.5260    4.1520 C.3    36  VAL36       0.0252
     37  CG1        4.5210   14.0090    5.2000 C.3    36  VAL36       0.0019
     38  CG2        6.9070   14.2380    4.5550 C.3    36  VAL36       0.0019
     39  N         -0.6120   14.9840    2.9640 N.3    38  GLU38      -0.1245
     40  CA        -1.7380   14.9410    3.8700 C.3    38  GLU38       0.1567
     41  C         -2.6310   13.8330    3.3490 C.2    38  GLU38       0.2260
     42  O         -2.7450   13.6580    2.1450 O.2    38  GLU38      -0.2867
     43  CB        -2.4990   16.2620    3.8580 C.3    38  GLU38       0.0388
     44  CG        -3.6180   16.2980    4.8820 C.3    38  GLU38       0.1160
     45  CD        -4.5630   17.4520    4.6810 C.2    38  GLU38       0.3649
     46  OE1       -5.7600   17.2780    4.9720 O.co2  38  GLU38      -0.2457
     47  OE2       -4.1170   18.5340    4.2390 O.co2  38  GLU38      -0.2457
     48  N         -0.5560   12.4840    8.4500 N.3    47  ALA47      -0.1245
     49  CA         0.5270   12.7610    7.5050 C.3    47  ALA47       0.1562
     50  C          1.1450   11.4430    7.0550 C.2    47  ALA47       0.2260
     51  O          1.1540   10.4500    7.7910 O.2    47  ALA47      -0.2867
     52  CB         1.5990   13.6490    8.1440 C.3    47  ALA47       0.0290
     53  N          4.4920    9.8720    5.5310 N.3    49  LYS49      -0.1245
     54  CA         5.8390    9.8690    4.9910 C.3    49  LYS49       0.1561
     55  C          5.8750    8.7300    3.9850 C.2    49  LYS49       0.2260
     56  O          5.2680    7.6910    4.2030 O.2    49  LYS49      -0.2867
     57  CB         6.8800    9.6680    6.1030 C.3    49  LYS49       0.0271
     58  CG         6.9150   10.8010    7.1090 C.3    49  LYS49       0.0035
     59  CD         8.1500   10.7090    7.9760 C.3    49  LYS49       0.0206
     60  CE         8.8880   12.0450    8.0420 C.3    49  LYS49       0.1093
     61  NZ         9.9230   12.1270    9.1340 N.3    49  LYS49      -0.1314
     62  N          4.8920   13.4770   18.4080 N.3    79  VAL79      -0.1245
     63  CA         3.9170   13.1200   17.3970 C.3    79  VAL79       0.1561
     64  C          3.5680   11.6350   17.4640 C.2    79  VAL79       0.2260
     65  O          4.4390   10.7930   17.7300 O.2    79  VAL79      -0.2867
     66  CB         4.4500   13.4710   15.9970 C.3    79  VAL79       0.0252
     67  CG1        3.4800   13.0160   14.9350 C.3    79  VAL79       0.0019
     68  CG2        4.6310   14.9520   15.8920 C.3    79  VAL79       0.0019
     69  N          1.4440    9.2740   10.3200 N.3    95  LEU95      -0.1231
     70  CA         1.6720   10.0140   11.5580 C.3    95  LEU95       0.1693
     71  C          0.5590   10.9970   11.8680 C.2    95  LEU95       0.2592
     72  O         -0.2170   11.3860   10.9840 O.2    95  LEU95      -0.2718
     73  CB         3.0050   10.7710   11.4890 C.3    95  LEU95       0.0284
     74  CG         4.2230    9.8820   11.2460 C.3    95  LEU95       0.0019
     75  CD1        5.4780   10.7220   11.1490 C.3    95  LEU95       0.0001
     76  CD2        4.3180    8.8760   12.3740 C.3    95  LEU95       0.0001
     77  N          0.4840   11.3880   13.1320 N.am   96  GLU96      -0.1966
     78  CA        -0.4540   12.4090   13.5680 C.3    96  GLU96       0.1733
     79  C         -0.2820   13.6160   12.6540 C.2    96  GLU96       0.2616
     80  O          0.8390   14.0230   12.3700 O.2    96  GLU96      -0.2715
     81  CB        -0.1320   12.7990   15.0140 C.3    96  GLU96       0.0429
     82  CG        -0.9920   13.9150   15.6140 C.3    96  GLU96       0.1163
     83  CD        -0.5950   14.2250   17.0400 C.2    96  GLU96       0.3649
     84  OE1        0.3070   13.5390   17.5660 O.co2  96  GLU96      -0.2457
     85  OE2       -1.1720   15.1500   17.6480 O.co2  96  GLU96      -0.2457
     86  N         -1.3800   14.1930   12.1890 N.am   97  LEU97      -0.1963
     87  CA        -1.2940   15.3580   11.3110 C.3    97  LEU97       0.1728
     88  C         -1.2460   16.6300   12.1320 C.2    97  LEU97       0.2616
     89  O         -2.0620   16.8430   13.0370 O.2    97  LEU97      -0.2715
     90  CB        -2.4870   15.4210   10.3630 C.3    97  LEU97       0.0311
     91  CG        -2.4820   16.6480    9.4600 C.3    97  LEU97       0.0022
     92  CD1       -1.4100   16.4640    8.3850 C.3    97  LEU97       0.0001
     93  CD2       -3.8490   16.8330    8.8190 C.3    97  LEU97       0.0001
     94  N         -0.2850   17.4840   11.8140 N.am   98  MET98      -0.1963
     95  CA        -0.0660   18.6550   12.6250 C.3    98  MET98       0.1736
     96  C         -0.4330   19.8920   11.8190 C.2    98  MET98       0.2616
     97  O          0.4030   20.4780   11.1310 O.2    98  MET98      -0.2715
     98  CB         1.3930   18.6790   13.0790 C.3    98  MET98       0.0427
     99  CG         1.7940   17.4310   13.8710 C.3    98  MET98       0.0599
    100  SD         0.9900   17.3410   15.4880 S.3    98  MET98      -0.1393
    101  CE         1.8560   18.6160   16.3510 C.3    98  MET98       0.0692
    102  N         -1.7010   20.2800   11.9240 N.am   99  ALA99      -0.1977
    103  CA        -2.2890   21.3130   11.0770 C.3    99  ALA99       0.1597
    104  C         -1.5200   22.6380   11.0870 C.2    99  ALA99       0.2287
    105  O         -1.5160   23.3750   10.0950 O.2    99  ALA99      -0.2864
    106  CB        -3.7320   21.5490   11.5020 C.3    99  ALA99       0.0319
    107  N          1.5500   23.0190   10.9310 N.3   101  GLY101     -0.1210
    108  CA         2.7990   22.9540   10.1960 C.3   101  GLY101      0.1956
    109  C          4.0030   22.8780   11.1190 C.2   101  GLY101      0.2611
    110  O          3.8520   22.7260   12.3350 O.2   101  GLY101     -0.2717
    111  N          5.2060   22.9830   10.5570 N.am  102  ASP102     -0.1973
    112  CA         6.4130   22.9410   11.3790 C.3   102  ASP102      0.1709
    113  C          6.6490   24.2780   12.0660 C.2   102  ASP102      0.2293
    114  O          6.0850   25.3010   11.6740 O.2   102  ASP102     -0.2864
    115  CB         7.6430   22.5590   10.5430 C.3   102  ASP102      0.1436
    116  CG         8.0630   23.6500    9.5810 C.2   102  ASP102      0.3671
    117  OD1        7.4930   23.7100    8.4690 O.co2 102  ASP102     -0.2456
    118  OD2        8.9630   24.4400    9.9400 O.co2 102  ASP102     -0.2456
    119  N          8.4780   27.4610   10.0250 N.3   105  SER105     -0.1217
    120  CA         7.5070   28.1550    9.1780 C.3   105  SER105      0.1889
    121  C          6.5570   28.9830   10.0300 C.2   105  SER105      0.2288
    122  O          6.4690   30.2110    9.8790 O.2   105  SER105     -0.2866
    123  CB         6.6980   27.1500    8.3810 C.3   105  SER105      0.2089
    124  OG         7.5780   26.2990    7.6780 O.3   105  SER105     -0.2183
    125  N          5.8370   32.8740    9.4440 N.3   109  GLU109     -0.1245
    126  CA         4.5780   33.3390    8.8580 C.3   109  GLU109      0.1567
    127  C          3.6840   34.0100    9.8830 C.2   109  GLU109      0.2260
    128  O          2.5960   34.4830    9.5520 O.2   109  GLU109     -0.2867
    129  CB         3.7960   32.1780    8.2370 C.3   109  GLU109      0.0388
    130  CG         4.4270   31.5700    6.9980 C.3   109  GLU109      0.1160
    131  CD         3.7430   30.2740    6.5800 C.2   109  GLU109      0.3649
    132  OE1        2.4850   30.2210    6.6110 O.co2 109  GLU109     -0.2457
    133  OE2        4.4660   29.3120    6.2240 O.co2 109  GLU109     -0.2457
    134  N         13.0200   23.2410   12.8470 N.3   152  ARG152     -0.1231
    135  CA        12.5250   22.5430   11.6620 C.3   152  ARG152      0.1694
    136  C         12.0040   21.1370   11.9820 C.2   152  ARG152      0.2592
    137  O         11.3070   20.5230   11.1550 O.2   152  ARG152     -0.2718
    138  CB        13.6290   22.4230   10.6140 C.3   152  ARG152      0.0321
    139  CG        14.6240   21.3180   10.9220 C.3   152  ARG152      0.0489
    140  CD        15.8840   21.4430   10.0800 C.3   152  ARG152      0.2205
    141  NE        17.0160   21.7670   10.9310 N.pl3 152  ARG152     -0.0865
    142  CZ        17.8350   20.8590   11.4550 C.cat 152  ARG152      0.5346
    143  NH1       17.6370   19.5700   11.1960 N.pl3 152  ARG152      0.1354
    144  NH2       18.8390   21.2370   12.2510 N.pl3 152  ARG152      0.1354
    145  N         12.3460   20.6180   13.1620 N.am  153  ASN153     -0.1974
    146  CA        11.9160   19.2650   13.5480 C.3   153  ASN153      0.1688
    147  C         10.7370   19.2580   14.5180 C.2   153  ASN153      0.2292
    148  O         10.3400   18.2030   14.9880 O.2   153  ASN153     -0.2864
    149  CB        13.0920   18.4730   14.1490 C.3   153  ASN153      0.1181
    150  CG        14.1240   18.1110   13.1090 C.2   153  ASN153      0.2629
    151  OD1       13.7760   17.8200   11.9680 O.2   153  ASN153     -0.2716
    152  ND2       15.4000   18.1470   13.4850 N.am  153  ASN153     -0.0877
    153  N          6.6170   20.6580   15.3940 N.3   155  LEU155     -0.1245
    154  CA         5.3600   20.8500   14.6650 C.3   155  LEU155      0.1561
    155  C          4.2730   21.3570   15.6080 C.2   155  LEU155      0.2260
    156  O          4.3560   21.1690   16.8270 O.2   155  LEU155     -0.2867
    157  CB         4.8940   19.5310   14.0390 C.3   155  LEU155      0.0270
    158  CG         5.8330   18.8960   13.0300 C.3   155  LEU155      0.0019
    159  CD1        5.8260   17.4100   13.2340 C.3   155  LEU155      0.0001
    160  CD2        5.4070   19.2430   11.6220 C.3   155  LEU155      0.0001
    161  N          8.8090   16.0540   16.0460 N.3   168  GLY168     -0.1210
    162  CA         8.0740   15.4670   14.9390 C.3   168  GLY168      0.1956
    163  C          8.9390   14.7720   13.9150 C.2   168  GLY168      0.2611
    164  O          8.4310   14.2410   12.9310 O.2   168  GLY168     -0.2717
    165  N         10.2470   14.7810   14.1390 N.am  169  ASP169     -0.1973
    166  CA        11.1710   13.9930   13.3420 C.3   169  ASP169      0.1709
    167  C         12.2940   13.3940   14.2120 C.2   169  ASP169      0.2293
    168  O         12.7850   14.0200   15.1510 O.2   169  ASP169     -0.2864
    169  CB        11.7510   14.8660   12.2390 C.3   169  ASP169      0.1436
    170  CG        12.8030   14.1550   11.4270 C.2   169  ASP169      0.3671
    171  OD1       12.4390   13.4260   10.4760 O.co2 169  ASP169     -0.2456
    172  OD2       13.9980   14.3240   11.7370 O.co2 169  ASP169     -0.2456
@<TRIPOS>BOND
     1    22    21   ar
     2    22    20   ar
     3    21    19   ar
     4    20    18   ar
     5    19    18   ar
     6    18    17    1
     7    17    14    1
     8     1     2    1
     9     9    10    1
    10     9     3   am
    11    12    11    2
    12    14    13    1
    13    14    15    1
    14    10    11    1
    15    11    13   am
    16    35    34    2
    17    32    33    1
    18    42    41    2
    19     3     2    1
    20     3     4    2
    21    34    33    1
    22     2     5    1
    23    30    29    2
    24    33    36    1
    25    15    23   am
    26    15    16    2
    27    26    25    2
    28    39    40    1
    29    29    28    1
    30    23    24    1
    31    41    40    1
    32     5     6    1
    33     8     6    1
    34    43    40    1
    35    43    44    1
    36    25    24    1
    37    25    27   am
    38    55    56    2
    39    55    54    1
    40     6     7    1
    41    36    38    1
    42    36    37    1
    43    47    45   ar
    44    28    27    1
    45    28    31    1
    46    45    44    1
    47    45    46   ar
    48    54    53    1
    49    54    57    1
    50    57    58    1
    51   133   131   ar
    52   131   132   ar
    53   131   130    1
    54   130   129    1
    55    50    49    1
    56    50    51    2
    57    58    59    1
    58    49    52    1
    59    49    48    1
    60   124   123    1
    61    59    60    1
    62    60    61    1
    63   129   126    1
    64   123   120    1
    65    92    91    1
    66   117   116   ar
    67    93    91    1
    68   126   125    1
    69   126   127    1
    70   120   119    1
    71   120   121    1
    72    91    90    1
    73   128   127    2
    74   116   118   ar
    75   116   115    1
    76   122   121    2
    77   140   139    1
    78   140   141    1
    79   105   104    2
    80   108   107    1
    81   108   109    1
    82    69    70    1
    83    90    87    1
    84   171   170   ar
    85   115   112    1
    86   111   109   am
    87   111   112    1
    88   138   139    1
    89   138   135    1
    90   141   142    2
    91    72    71    2
    92   103   104    1
    93   103   106    1
    94   103   102    1
    95   109   110    2
    96    97    96    2
    97    75    74    1
    98   137   136    2
    99   143   142    1
   100    74    73    1
   101    74    76    1
   102    87    88    1
   103    87    86    1
   104   112   113    1
   105   170   172   ar
   106   170   169    1
   107   142   144    1
   108    73    70    1
   109    70    71    1
   110   160   158    1
   111   135   136    1
   112   135   134    1
   113   114   113    2
   114    94    88   am
   115    94    95    1
   116    96   102   am
   117    96    95    1
   118    71    77   am
   119   151   150    2
   120   136   145   am
   121    88    89    2
   122    86    79   am
   123   169   166    1
   124    80    79    2
   125    95    98    1
   126    79    78    1
   127   164   163    2
   128   158   159    1
   129   158   157    1
   130    98    99    1
   131   150   152   am
   132   150   149    1
   133    77    78    1
   134   145   146    1
   135   166   165    1
   136   166   167    1
   137   146   149    1
   138   146   147    1
   139    78    81    1
   140    99   100    1
   141   163   165   am
   142   163   162    1
   143   157   154    1
   144   167   168    2
   145   147   148    2
   146   154   153    1
   147   154   155    1
   148    67    66    1
   149   162   161    1
   150    81    82    1
   151   100   101    1
   152   155   156    2
   153    82    83    1
   154    68    66    1
   155    66    63    1
   156    83    84   ar
   157    83    85   ar
   158    63    64    1
   159    63    62    1
   160    64    65    2
