@<TRIPOS>MOLECULE
tmp/2xb9C00.pdb
 128 122 0 0 0
SMALL
GASTEIGER

@<TRIPOS>ATOM
      1  N         -9.1700   34.2420   24.3530 N.3     9  PRO9       -0.2102
      2  CA        -8.8370   32.8870   23.9330 C.3     9  PRO9        0.1504
      3  C         -7.4000   32.5280   24.2040 C.2     9  PRO9        0.2576
      4  O         -6.5590   33.3900   24.2130 O.2     9  PRO9       -0.2718
      5  CB        -9.1100   32.8970   22.4110 C.3     9  PRO9        0.0282
      6  CG        -9.0800   34.2980   22.0200 C.3     9  PRO9        0.0208
      7  CD        -9.4810   35.1110   23.2040 C.3     9  PRO9        0.0893
      8  N         -7.1550   31.2430   24.4250 N.am   10  ASN10      -0.1961
      9  CA        -5.8340   30.6740   24.7260 C.3    10  ASN10       0.1819
     10  C         -5.1500   31.0780   26.0400 C.2    10  ASN10       0.2621
     11  O         -4.1450   30.4710   26.4270 O.2    10  ASN10      -0.2715
     12  CB        -4.9360   30.8840   23.5430 C.3    10  ASN10       0.1195
     13  CG        -5.3610   30.0580   22.3870 C.2    10  ASN10       0.2630
     14  OD1       -5.7170   28.9090   22.5700 O.2    10  ASN10      -0.2716
     15  ND2       -5.3250   30.6170   21.1860 N.am   10  ASN10      -0.0877
     16  N         -5.7220   32.0460   26.7530 N.am   11  LEU11      -0.1977
     17  CA        -5.1590   32.4450   28.0160 C.3    11  LEU11       0.1596
     18  C         -5.2530   31.3240   29.0550 C.2    11  LEU11       0.2287
     19  O         -4.4840   31.2810   30.0120 O.2    11  LEU11      -0.2864
     20  CB        -5.8040   33.7270   28.5210 C.3    11  LEU11       0.0297
     21  CG        -5.2860   35.0040   27.8450 C.3    11  LEU11       0.0022
     22  CD1       -5.9330   36.1780   28.5230 C.3    11  LEU11       0.0001
     23  CD2       -3.7700   35.1910   27.9160 C.3    11  LEU11       0.0001
     24  N          2.5260   27.6250   27.4110 N.3    17  ARG17      -0.1245
     25  CA         2.8310   28.2480   26.1150 C.3    17  ARG17       0.1563
     26  C          4.3360   28.4260   25.9120 C.2    17  ARG17       0.2260
     27  O          5.1350   27.8490   26.6580 O.2    17  ARG17      -0.2867
     28  CB         2.0840   29.5890   25.9830 C.3    17  ARG17       0.0307
     29  CG         0.5570   29.4300   26.0450 C.3    17  ARG17       0.0489
     30  CD        -0.1810   30.7540   26.1930 C.3    17  ARG17       0.2205
     31  NE        -0.6230   31.3010   24.9150 N.pl3  17  ARG17      -0.0865
     32  CZ        -1.1890   32.4920   24.7660 C.cat  17  ARG17       0.5346
     33  NH1       -1.3780   33.2690   25.8290 N.pl3  17  ARG17       0.1354
     34  NH2       -1.5550   32.9120   23.5560 N.pl3  17  ARG17       0.1354
     35  N          5.8810   34.2040   27.8150 N.3    22  TYR22      -0.1241
     36  CA         4.8430   34.0490   28.8570 C.3    22  TYR22       0.1605
     37  C          5.3490   33.5280   30.2140 C.2    22  TYR22       0.2264
     38  O          4.6980   33.7160   31.2450 O.2    22  TYR22      -0.2867
     39  CB         3.7320   33.1210   28.3310 C.3    22  TYR22       0.0534
     40  CG         3.0690   33.6040   27.0400 C.ar   22  TYR22      -0.0201
     41  CD1        2.0010   34.5170   27.0670 C.ar   22  TYR22      -0.0009
     42  CD2        3.5000   33.1440   25.7930 C.ar   22  TYR22      -0.0009
     43  CE1        1.3780   34.9570   25.8800 C.ar   22  TYR22       0.0417
     44  CE2        2.8890   33.5860   24.5980 C.ar   22  TYR22       0.0417
     45  CZ         1.8300   34.4910   24.6520 C.ar   22  TYR22       0.1957
     46  OH         1.2390   34.9220   23.4810 O.3    22  TYR22      -0.2866
     47  N         -8.4610   41.2990   28.6960 N.3    76  ASN76      -0.1240
     48  CA        -7.3700   40.9520   27.8120 C.3    76  ASN76       0.1653
     49  C         -7.9940   40.1460   26.6880 C.2    76  ASN76       0.2266
     50  O         -8.1680   38.9430   26.8290 O.2    76  ASN76      -0.2867
     51  CB        -6.3420   40.1130   28.5590 C.3    76  ASN76       0.1155
     52  CG        -5.2000   39.6410   27.6740 C.2    76  ASN76       0.2627
     53  OD1       -5.3020   39.6340   26.4460 O.2    76  ASN76      -0.2716
     54  ND2       -4.1040   39.2360   28.3000 N.am   76  ASN76      -0.0877
     55  N         -7.0330   39.1000   24.0210 N.3    78  GLY78      -0.1210
     56  CA        -6.1700   38.1550   23.3230 C.3    78  GLY78       0.1956
     57  C         -6.0210   38.4990   21.8630 C.2    78  GLY78       0.2611
     58  O         -5.9940   39.6800   21.4930 O.2    78  GLY78      -0.2717
     59  N         -5.9600   37.4510   21.0440 N.am   79  ALA79      -0.1979
     60  CA        -5.8740   37.5970   19.6000 C.3    79  ALA79       0.1597
     61  C         -7.0640   38.3900   19.0070 C.2    79  ALA79       0.2287
     62  O         -6.9460   39.0310   17.9490 O.2    79  ALA79      -0.2864
     63  CB        -5.7340   36.2280   18.9350 C.3    79  ALA79       0.0319
     64  N         -7.0180   42.2970   17.7450 N.3    82  HIS82      -0.1241
     65  CA        -6.5470   42.6980   16.4560 C.3    82  HIS82       0.1621
     66  C         -7.5630   42.4630   15.3700 C.2    82  HIS82       0.2264
     67  O         -7.4010   42.9740   14.2580 O.2    82  HIS82      -0.2867
     68  CB        -5.2980   41.9200   16.1250 C.3    82  HIS82       0.0745
     69  CG        -4.4000   41.7540   17.2970 C.ar   82  HIS82       0.0817
     70  ND1       -3.9080   42.8330   18.0070 N.ar   82  HIS82      -0.2268
     71  CD2       -3.9560   40.6380   17.9270 C.ar   82  HIS82       0.1154
     72  CE1       -3.1950   42.3800   19.0240 C.ar   82  HIS82       0.1986
     73  NE2       -3.2150   41.0530   19.0000 N.ar   82  HIS82      -0.2212
     74  N         -2.4240   43.4780   28.2270 N.3   102  HIS102     -0.1226
     75  CA        -1.6880   42.4580   27.5420 C.3   102  HIS102      0.1752
     76  C         -0.4620   42.0920   28.3520 C.2   102  HIS102      0.2596
     77  O          0.1740   42.9530   28.9650 O.2   102  HIS102     -0.2718
     78  CB        -1.2580   42.9530   26.1580 C.3   102  HIS102      0.0759
     79  CG        -2.4020   43.2930   25.2750 C.ar  102  HIS102      0.0818
     80  ND1       -3.1450   42.3350   24.6180 N.ar  102  HIS102     -0.2268
     81  CD2       -2.9690   44.4840   24.9860 C.ar  102  HIS102      0.1154
     82  CE1       -4.1010   42.9340   23.9310 C.ar  102  HIS102      0.1986
     83  NE2       -4.0200   44.2350   24.1450 N.ar  102  HIS102     -0.2212
     84  N         -0.1470   40.8000   28.3290 N.am  103  LEU103     -0.1966
     85  CA         1.0170   40.2530   28.9900 C.3   103  LEU103      0.1728
     86  C          2.2700   40.7030   28.2400 C.2   103  LEU103      0.2616
     87  O          3.1690   41.3440   28.8060 O.2   103  LEU103     -0.2715
     88  CB         0.9280   38.7240   29.0190 C.3   103  LEU103      0.0311
     89  CG        -0.2060   38.1590   29.8770 C.3   103  LEU103      0.0022
     90  CD1       -0.2140   36.6700   29.8200 C.3   103  LEU103      0.0001
     91  CD2       -0.0530   38.5700   31.3000 C.3   103  LEU103      0.0001
     92  N          2.3010   40.3860   26.9580 N.am  104  THR104     -0.1951
     93  CA         3.4100   40.7300   26.1040 C.3   104  THR104      0.1897
     94  C          3.3140   42.1330   25.5090 C.2   104  THR104      0.2313
     95  O          2.2370   42.7140   25.4330 O.2   104  THR104     -0.2863
     96  CB         3.4960   39.7420   24.9490 C.3   104  THR104      0.1794
     97  OG1        2.4080   39.9580   24.0270 O.3   104  THR104     -0.2208
     98  CG2        3.4770   38.3180   25.4900 C.3   104  THR104      0.0378
     99  N          2.8360   44.1320   22.6760 N.3   106  ILE106     -0.1245
    100  CA         2.3340   43.8780   21.3250 C.3   106  ILE106      0.1561
    101  C          2.8830   44.8120   20.2510 C.2   106  ILE106      0.2260
    102  O          2.8530   44.4530   19.0610 O.2   106  ILE106     -0.2867
    103  CB         0.8070   43.7940   21.2360 C.3   106  ILE106      0.0252
    104  CG1        0.1310   45.0930   21.7210 C.3   106  ILE106      0.0019
    105  CG2        0.3490   42.5640   21.9820 C.3   106  ILE106      0.0019
    106  CD1       -1.2800   45.3140   21.1540 C.3   106  ILE106      0.0001
    107  N          5.8590   42.6080   18.5980 N.3   109  ARG109     -0.1245
    108  CA         5.6710   41.2930   17.9680 C.3   109  ARG109      0.1563
    109  C          5.3890   41.4430   16.4790 C.2   109  ARG109      0.2260
    110  O          5.7560   42.4390   15.8710 O.2   109  ARG109     -0.2867
    111  CB         4.5870   40.4950   18.7090 C.3   109  ARG109      0.0307
    112  CG         5.0030   40.1650   20.0970 C.3   109  ARG109      0.0489
    113  CD         3.9160   39.4560   20.8600 C.3   109  ARG109      0.2205
    114  NE         3.6970   38.0720   20.4410 N.pl3 109  ARG109     -0.0865
    115  CZ         2.8090   37.2710   21.0160 C.cat 109  ARG109      0.5346
    116  NH1        2.0790   37.7270   22.0330 N.pl3 109  ARG109      0.1354
    117  NH2        2.6580   36.0160   20.5910 N.pl3 109  ARG109      0.1354
    118  N         -0.2420   42.0710   15.0450 N.3   113  ARG113     -0.1245
    119  CA        -0.5690   42.1450   16.4820 C.3   113  ARG113      0.1563
    120  C         -0.4840   43.5510   17.0200 C.2   113  ARG113      0.2260
    121  O         -0.6980   43.7500   18.2070 O.2   113  ARG113     -0.2867
    122  CB         0.3670   41.2670   17.3270 C.3   113  ARG113      0.0307
    123  CG        -0.0860   39.8320   17.4600 C.3   113  ARG113      0.0489
    124  CD         0.7770   39.0140   18.4290 C.3   113  ARG113      0.2205
    125  NE         0.8100   37.5860   18.0580 N.pl3 113  ARG113     -0.0865
    126  CZ        -0.1140   36.6870   18.3980 C.cat 113  ARG113      0.5346
    127  NH1       -1.1650   37.0080   19.1480 N.pl3 113  ARG113      0.1354
    128  NH2        0.0290   35.4430   18.0050 N.pl3 113  ARG113      0.1354
@<TRIPOS>BOND
     1    67    66    2
     2   118   119    1
     3    66    65    1
     4   110   109    2
     5    68    65    1
     6    68    69    1
     7    65    64    1
     8   109   108    1
     9   119   120    1
    10   119   122    1
    11   120   121    2
    12    69    71   ar
    13    69    70   ar
    14   122   123    1
    15   123   124    1
    16    71    73   ar
    17    62    61    2
    18   108   107    1
    19   108   111    1
    20   128   126    1
    21    70    72   ar
    22   125   126    2
    23   125   124    1
    24   126   127    1
    25   111   112    1
    26    63    60    1
    27    73    72   ar
    28    61    60    1
    29   102   101    2
    30    60    59    1
    31   112   113    1
    32   101   100    1
    33   114   113    1
    34   114   115    2
    35   117   115    1
    36   115   116    1
    37    59    57   am
    38   106   104    1
    39    15    13   am
    40   103   100    1
    41   103   104    1
    42   103   105    1
    43   100    99    1
    44    58    57    2
    45    57    56    1
    46     6     5    1
    47     6     7    1
    48    13    14    2
    49    13    12    1
    50     5     2    1
    51     7     1    1
    52    56    55    1
    53    46    45    1
    54    12     9    1
    55    34    32    1
    56    82    83   ar
    57    82    80   ar
    58     2     3    1
    59     2     1    1
    60    97    96    1
    61    83    81   ar
    62     3     4    2
    63     3     8   am
    64     8     9    1
    65    44    45   ar
    66    44    42   ar
    67    80    79   ar
    68    45    43   ar
    69     9    10    1
    70    32    31    2
    71    32    33    1
    72    31    30    1
    73    96    98    1
    74    96    93    1
    75    81    79   ar
    76    79    78    1
    77    95    94    2
    78    94    93    1
    79    42    40   ar
    80    43    41   ar
    81    26    25    1
    82    26    27    2
    83    28    29    1
    84    28    25    1
    85    10    11    2
    86    10    16   am
    87    29    30    1
    88    93    92    1
    89    25    24    1
    90    78    75    1
    91    53    52    2
    92    49    50    2
    93    49    48    1
    94    16    17    1
    95    92    86   am
    96    40    41   ar
    97    40    39    1
    98    75    74    1
    99    75    76    1
   100    52    54   am
   101    52    51    1
   102    48    51    1
   103    48    47    1
   104    35    36    1
   105    21    23    1
   106    21    20    1
   107    21    22    1
   108    17    20    1
   109    17    18    1
   110    86    87    2
   111    86    85    1
   112    84    76   am
   113    84    85    1
   114    39    36    1
   115    76    77    2
   116    36    37    1
   117    85    88    1
   118    88    89    1
   119    18    19    2
   120    90    89    1
   121    89    91    1
   122    37    38    2
