@<TRIPOS>MOLECULE
tmp/2xb9A00.pdb
 152 145 0 0 0
SMALL
GASTEIGER

@<TRIPOS>ATOM
      1  N        -24.3180   41.0610   15.9860 N.3     9  PRO9       -0.2102
      2  CA       -23.8340   41.4590   17.2860 C.3     9  PRO9        0.1504
      3  C        -24.1960   42.8630   17.6890 C.2     9  PRO9        0.2576
      4  O        -24.2900   43.7200   16.8410 O.2     9  PRO9       -0.2718
      5  CB       -22.3160   41.3040   17.1550 C.3     9  PRO9        0.0282
      6  CG       -22.0340   41.2490   15.7650 C.3     9  PRO9        0.0208
      7  CD       -23.2060   40.5940   15.1480 C.3     9  PRO9        0.0893
      8  N        -24.4090   43.0640   18.9860 N.am   10  ASN10      -0.1961
      9  CA       -24.7050   44.3750   19.5930 C.3    10  ASN10       0.1819
     10  C        -26.0230   45.0410   19.1970 C.2    10  ASN10       0.2621
     11  O        -26.3560   46.1140   19.7170 O.2    10  ASN10      -0.2715
     12  CB       -23.5770   45.3520   19.3390 C.3    10  ASN10       0.1195
     13  CG       -22.2540   44.8510   19.8630 C.2    10  ASN10       0.2630
     14  OD1      -22.1320   44.4970   21.0460 O.2    10  ASN10      -0.2716
     15  ND2      -21.2450   44.8190   18.9860 N.am   10  ASN10      -0.0877
     16  N        -26.7780   44.4190   18.2890 N.am   11  LEU11      -0.1977
     17  CA       -28.0060   45.0270   17.8190 C.3    11  LEU11       0.1596
     18  C        -29.1210   44.8980   18.8680 C.2    11  LEU11       0.2287
     19  O        -30.0820   45.6270   18.8030 O.2    11  LEU11      -0.2864
     20  CB       -28.3970   44.4720   16.4360 C.3    11  LEU11       0.0297
     21  CG       -27.6280   45.1470   15.2760 C.3    11  LEU11       0.0022
     22  CD1      -27.2600   44.2440   14.1170 C.3    11  LEU11       0.0001
     23  CD2      -28.4240   46.3160   14.7570 C.3    11  LEU11       0.0001
     24  N        -28.5560   45.8140   21.9210 N.3    13  MET13      -0.1230
     25  CA       -28.3190   46.9580   22.7940 C.3    13  MET13       0.1702
     26  C        -28.7640   48.2240   22.1080 C.2    13  MET13       0.2592
     27  O        -28.5970   49.3240   22.6200 O.2    13  MET13      -0.2718
     28  CB       -26.8380   47.0520   23.1330 C.3    13  MET13       0.0401
     29  CG       -26.2770   45.7850   23.7580 C.3    13  MET13       0.0596
     30  SD       -26.9930   45.4020   25.3750 S.3    13  MET13      -0.1393
     31  CE       -26.4570   46.8540   26.3120 C.3    13  MET13       0.0692
     32  N        -29.3320   48.0560   20.9290 N.am   14  LEU14      -0.1980
     33  CA       -29.8130   49.1700   20.1580 C.3    14  LEU14       0.1596
     34  C        -30.9090   49.8410   20.9390 C.2    14  LEU14       0.2287
     35  O        -31.5290   49.2300   21.8280 O.2    14  LEU14      -0.2864
     36  CB       -30.3490   48.6650   18.8320 C.3    14  LEU14       0.0297
     37  CG       -30.8770   49.6630   17.8320 C.3    14  LEU14       0.0022
     38  CD1      -29.8090   50.6680   17.4670 C.3    14  LEU14       0.0001
     39  CD2      -31.3610   48.8950   16.6280 C.3    14  LEU14       0.0001
     40  N        -28.5560   52.7020   23.7570 N.3    17  ARG17      -0.1231
     41  CA       -27.2320   53.3960   23.8640 C.3    17  ARG17       0.1694
     42  C        -26.6380   54.0610   22.5860 C.2    17  ARG17       0.2592
     43  O        -26.5020   53.4190   21.5530 O.2    17  ARG17      -0.2718
     44  CB       -26.2150   52.4180   24.4410 C.3    17  ARG17       0.0321
     45  CG       -26.8440   51.4250   25.4220 C.3    17  ARG17       0.0489
     46  CD       -25.8440   50.7860   26.3370 C.3    17  ARG17       0.2205
     47  NE       -25.9230   51.2910   27.7130 N.pl3  17  ARG17      -0.0865
     48  CZ       -25.1860   52.2790   28.2240 C.cat  17  ARG17       0.5346
     49  NH1      -24.2840   52.9290   27.4880 N.pl3  17  ARG17       0.1354
     50  NH2      -25.3610   52.6230   29.4960 N.pl3  17  ARG17       0.1354
     51  N        -26.2200   55.3260   22.7290 N.am   18  ASP18      -0.1974
     52  CA       -25.7740   56.2530   21.6420 C.3    18  ASP18       0.1709
     53  C        -26.8600   56.7220   20.6420 C.2    18  ASP18       0.2293
     54  O        -26.8670   56.3020   19.4650 O.2    18  ASP18      -0.2864
     55  CB       -24.5210   55.7760   20.8750 C.3    18  ASP18       0.1436
     56  CG       -23.9600   56.8740   19.8870 C.2    18  ASP18       0.3671
     57  OD1      -23.9580   58.0970   20.1980 O.co2  18  ASP18      -0.2456
     58  OD2      -23.5150   56.5140   18.7780 O.co2  18  ASP18      -0.2456
     59  N        -27.9120   56.1700   16.1830 N.3    22  TYR22      -0.1241
     60  CA       -28.9380   55.1480   16.2280 C.3    22  TYR22       0.1605
     61  C        -30.3150   55.6080   16.7010 C.2    22  TYR22       0.2264
     62  O        -31.2960   54.9470   16.3920 O.2    22  TYR22      -0.2867
     63  CB       -28.4490   54.0080   17.1200 C.3    22  TYR22       0.0534
     64  CG       -27.0850   53.4410   16.7430 C.ar   22  TYR22      -0.0201
     65  CD1      -26.9190   52.6970   15.5680 C.ar   22  TYR22      -0.0009
     66  CD2      -25.9670   53.6240   17.5670 C.ar   22  TYR22      -0.0009
     67  CE1      -25.6760   52.1560   15.2090 C.ar   22  TYR22       0.0417
     68  CE2      -24.7080   53.0820   17.2180 C.ar   22  TYR22       0.0417
     69  CZ       -24.5730   52.3450   16.0310 C.ar   22  TYR22       0.1957
     70  OH       -23.3560   51.7870   15.6520 O.3    22  TYR22      -0.2866
     71  N        -28.7830   41.8410    8.9540 N.3    76  ASN76      -0.1240
     72  CA       -27.8590   42.9010    9.3420 C.3    76  ASN76       0.1653
     73  C        -26.7430   42.2470   10.1710 C.2    76  ASN76       0.2266
     74  O        -26.9120   42.0310   11.3640 O.2    76  ASN76      -0.2867
     75  CB       -28.5860   43.9680   10.1450 C.3    76  ASN76       0.1155
     76  CG       -27.6640   45.0560   10.6550 C.2    76  ASN76       0.2627
     77  OD1      -26.4340   44.9310   10.6060 O.2    76  ASN76      -0.2716
     78  ND2      -28.2520   46.1260   11.1640 N.am   76  ASN76      -0.0877
     79  N        -24.0220   43.2510   11.1940 N.3    78  GLY78      -0.1210
     80  CA       -23.3950   44.0950   12.1940 C.3    78  GLY78       0.1956
     81  C        -21.9210   44.2050   11.8940 C.2    78  GLY78       0.2611
     82  O        -21.5380   44.2130   10.7300 O.2    78  GLY78      -0.2717
     83  N        -21.0870   44.2330   12.9320 N.am   79  ALA79      -0.1979
     84  CA       -19.6380   44.3540   12.7060 C.3    79  ALA79       0.1597
     85  C        -19.0620   43.1590   11.9660 C.2    79  ALA79       0.2287
     86  O        -17.9710   43.2810   11.4250 O.2    79  ALA79      -0.2864
     87  CB       -18.8900   44.5730   14.0040 C.3    79  ALA79       0.0319
     88  N        -17.7700   43.2800    8.0510 N.3    82  HIS82      -0.1241
     89  CA       -16.4770   43.7520    7.6260 C.3    82  HIS82       0.1621
     90  C        -15.3930   42.7130    7.8100 C.2    82  HIS82       0.2264
     91  O        -14.3180   42.8500    7.1980 O.2    82  HIS82      -0.2867
     92  CB       -16.1170   44.9820    8.4320 C.3    82  HIS82       0.0745
     93  CG       -17.2530   45.9280    8.5700 C.ar   82  HIS82       0.0817
     94  ND1      -17.9390   46.4100    7.4790 N.ar   82  HIS82      -0.2268
     95  CD2      -17.8630   46.4380    9.6650 C.ar   82  HIS82       0.1154
     96  CE1      -18.9210   47.1860    7.8960 C.ar   82  HIS82       0.1986
     97  NE2      -18.8930   47.2250    9.2190 N.ar   82  HIS82      -0.2212
     98  N        -28.2370   47.8610    6.8720 N.3   102  HIS102     -0.1226
     99  CA       -27.5490   48.5490    7.9370 C.3   102  HIS102      0.1752
    100  C        -28.3360   49.7990    8.3270 C.2   102  HIS102      0.2596
    101  O        -28.8120   50.5450    7.4710 O.2   102  HIS102     -0.2718
    102  CB       -26.1570   48.9600    7.4880 C.3   102  HIS102      0.0759
    103  CG       -25.2750   47.8130    7.1260 C.ar  102  HIS102      0.0818
    104  ND1      -24.4970   47.1460    8.0490 N.ar  102  HIS102     -0.2268
    105  CD2      -25.0570   47.2030    5.9400 C.ar  102  HIS102      0.1154
    106  CE1      -23.8370   46.1750    7.4430 C.ar  102  HIS102      0.1986
    107  NE2      -24.1680   46.1810    6.1650 N.ar  102  HIS102     -0.2212
    108  N        -28.4670   50.0250    9.6250 N.am  103  LEU103     -0.1966
    109  CA       -29.0930   51.2460   10.1570 C.3   103  LEU103      0.1728
    110  C        -28.3250   52.4900    9.7230 C.2   103  LEU103      0.2616
    111  O        -28.8980   53.5270    9.3910 O.2   103  LEU103     -0.2715
    112  CB       -29.1280   51.1840   11.6860 C.3   103  LEU103      0.0311
    113  CG       -29.9820   50.0430   12.2540 C.3   103  LEU103      0.0022
    114  CD1      -29.6350   49.8000   13.6940 C.3   103  LEU103      0.0001
    115  CD2      -31.4630   50.3800   12.1140 C.3   103  LEU103      0.0001
    116  N        -27.0110   52.3690    9.7280 N.am  104  THR104     -0.1951
    117  CA       -26.1360   53.4940    9.4410 C.3   104  THR104      0.1897
    118  C        -25.5100   53.4120    8.0370 C.2   104  THR104      0.2313
    119  O        -25.4160   52.3310    7.4530 O.2   104  THR104     -0.2863
    120  CB       -25.0270   53.6260   10.5220 C.3   104  THR104      0.1794
    121  OG1      -24.0210   52.6170   10.3380 O.3   104  THR104     -0.2208
    122  CG2      -25.6280   53.5340   11.8960 C.3   104  THR104      0.0378
    123  N        -22.6370   53.0430    6.1690 N.3   106  ILE106     -0.1245
    124  CA       -21.2620   52.5960    6.4320 C.3   106  ILE106      0.1561
    125  C        -20.2210   53.1920    5.4770 C.2   106  ILE106      0.2260
    126  O        -19.0040   53.1080    5.7580 O.2   106  ILE106     -0.2867
    127  CB       -21.1170   51.0470    6.4600 C.3   106  ILE106      0.0252
    128  CG1      -21.5710   50.4130    5.1450 C.3   106  ILE106      0.0019
    129  CG2      -21.9160   50.5020    7.5860 C.3   106  ILE106      0.0019
    130  CD1      -21.2280   48.9510    5.0140 C.3   106  ILE106      0.0001
    131  N        -18.5260   56.2280    7.7280 N.3   109  ARG109     -0.1245
    132  CA       -17.9840   56.0380    9.0730 C.3   109  ARG109      0.1563
    133  C        -16.5070   55.6960    8.9540 C.2   109  ARG109      0.2260
    134  O        -15.8770   56.0010    7.9530 O.2   109  ARG109     -0.2867
    135  CB       -18.7900   54.9720    9.8320 C.3   109  ARG109      0.0307
    136  CG       -20.2810   55.2500    9.8900 C.3   109  ARG109      0.0489
    137  CD       -21.0260   54.1540   10.6600 C.3   109  ARG109      0.2205
    138  NE       -20.5690   54.0270   12.0460 N.pl3 109  ARG109     -0.0865
    139  CZ       -21.0890   53.2040   12.9560 C.cat 109  ARG109      0.5346
    140  NH1      -22.1060   52.4010   12.6670 N.pl3 109  ARG109      0.1354
    141  NH2      -20.5820   53.1860   14.1790 N.pl3 109  ARG109      0.1354
    142  N        -14.9480   50.1000    8.2470 N.3   113  ARG113     -0.1245
    143  CA       -16.3600   49.7270    8.1210 C.3   113  ARG113      0.1563
    144  C        -16.8720   49.8300    6.7040 C.2   113  ARG113      0.2260
    145  O        -18.0410   49.6210    6.4760 O.2   113  ARG113     -0.2867
    146  CB       -17.2320   50.6150    8.9970 C.3   113  ARG113      0.0307
    147  CG       -17.2090   50.2680   10.4610 C.3   113  ARG113      0.0489
    148  CD       -18.3330   50.9910   11.2220 C.3   113  ARG113      0.2205
    149  NE       -17.9790   51.1340   12.6370 N.pl3 113  ARG113     -0.0865
    150  CZ       -18.2130   50.2250   13.5860 C.cat 113  ARG113      0.5346
    151  NH1      -18.8460   49.0970   13.3320 N.pl3 113  ARG113      0.1354
    152  NH2      -17.8230   50.4640   14.8160 N.pl3 113  ARG113      0.1354
@<TRIPOS>BOND
     1   130   128    1
     2   128   127    1
     3   125   126    2
     4   125   124    1
     5   105   107   ar
     6   105   103   ar
     7   107   106   ar
     8   123   124    1
     9   124   127    1
    10   127   129    1
    11   145   144    2
    12   144   143    1
    13    98    99    1
    14   103   102    1
    15   103   104   ar
    16    91    90    2
    17   106   104   ar
    18   119   118    2
    19   101   100    2
    20    94    96   ar
    21    94    93   ar
    22   102    99    1
    23    89    90    1
    24    89    88    1
    25    89    92    1
    26   131   132    1
    27    96    97   ar
    28    99   100    1
    29   134   133    2
    30   118   117    1
    31   143   142    1
    32   143   146    1
    33   100   108   am
    34    92    93    1
    35    93    95   ar
    36    71    72    1
    37   133   132    1
    38   146   147    1
    39   132   135    1
    40    97    95   ar
    41    72    75    1
    42    72    73    1
    43   111   110    2
    44   117   116    1
    45   117   120    1
    46   108   109    1
    47   110   116   am
    48   110   109    1
    49   135   136    1
    50   136   137    1
    51    75    76    1
    52   109   112    1
    53    73    74    2
    54   121   120    1
    55   147   148    1
    56   120   122    1
    57    77    76    2
    58    76    78   am
    59   137   138    1
    60    82    81    2
    61    79    80    1
    62   148   149    1
    63    86    85    2
    64   112   113    1
    65    81    80    1
    66    81    83   am
    67    85    84    1
    68   138   139    2
    69   115   113    1
    70   113   114    1
    71   149   150    2
    72   140   139    1
    73    84    83    1
    74    84    87    1
    75   139   141    1
    76   151   150    1
    77   150   152    1
    78    22    21    1
    79    23    21    1
    80     7     6    1
    81     7     1    1
    82    67    65   ar
    83    67    69   ar
    84    21    20    1
    85    65    64   ar
    86    70    69    1
    87     6     5    1
    88     1     2    1
    89    69    68   ar
    90    59    60    1
    91    60    61    1
    92    60    63    1
    93    62    61    2
    94    20    17    1
    95    39    37    1
    96    64    63    1
    97    64    66   ar
    98     4     3    2
    99     5     2    1
   100    68    66   ar
   101     2     3    1
   102    38    37    1
   103     3     8   am
   104    17    16    1
   105    17    18    1
   106    37    36    1
   107    16    10   am
   108    58    56   ar
   109    19    18    2
   110    36    33    1
   111    15    13   am
   112     8     9    1
   113    10     9    1
   114    10    11    2
   115    12     9    1
   116    12    13    1
   117    54    53    2
   118    13    14    2
   119    56    57   ar
   120    56    55    1
   121    33    32    1
   122    33    34    1
   123    53    52    1
   124    55    52    1
   125    32    26   am
   126    34    35    2
   127    43    42    2
   128    52    51    1
   129    24    25    1
   130    26    27    2
   131    26    25    1
   132    42    51   am
   133    42    41    1
   134    25    28    1
   135    28    29    1
   136    40    41    1
   137    29    30    1
   138    41    44    1
   139    44    45    1
   140    30    31    1
   141    45    46    1
   142    46    47    1
   143    49    48    1
   144    47    48    2
   145    48    50    1
