@<TRIPOS>MOLECULE
tmp/2xbaA00.pdb
 157 147 0 0 0
SMALL
GASTEIGER

@<TRIPOS>ATOM
      1  N          1.5410   17.6450    1.3670 N.3    28  LEU28      -0.1245
      2  CA         1.7240   18.6140    2.4460 C.3    28  LEU28       0.1561
      3  C          3.0690   19.3330    2.3430 C.2    28  LEU28       0.2260
      4  O          4.1050   18.7020    2.0940 O.2    28  LEU28      -0.2867
      5  CB         1.6170   17.9160    3.8030 C.3    28  LEU28       0.0270
      6  CG         0.2550   17.2800    4.0950 C.3    28  LEU28       0.0019
      7  CD1        0.3110   16.5440    5.4050 C.3    28  LEU28       0.0001
      8  CD2       -0.8160   18.3600    4.1310 C.3    28  LEU28       0.0001
      9  N          5.5200   13.8440    1.7150 N.3    29  VAL29      -0.1245
     10  CA         4.4870   13.5700    2.7290 C.3    29  VAL29       0.1561
     11  C          3.1020   14.0200    2.2580 C.2    29  VAL29       0.2260
     12  O          2.9650   15.0990    1.6650 O.2    29  VAL29      -0.2867
     13  CB         4.7950   14.2890    4.0680 C.3    29  VAL29       0.0252
     14  CG1        3.6110   14.1220    5.0370 C.3    29  VAL29       0.0019
     15  CG2        6.0790   13.7110    4.6980 C.3    29  VAL29       0.0019
     16  N         -1.0840   11.7980    8.2740 N.3    40  ALA40      -0.1245
     17  CA        -0.0790   12.1640    7.2880 C.3    40  ALA40       0.1562
     18  C          0.5410   10.8570    6.8400 C.2    40  ALA40       0.2260
     19  O          0.6850    9.9380    7.6450 O.2    40  ALA40      -0.2867
     20  CB         0.9830   13.0810    7.8930 C.3    40  ALA40       0.0290
     21  N          3.8410    9.2440    5.0320 N.3    42  LYS42      -0.1245
     22  CA         5.1960    9.3980    4.5600 C.3    42  LYS42       0.1561
     23  C          5.5000    8.2470    3.6190 C.2    42  LYS42       0.2260
     24  O          5.1840    7.0840    3.9210 O.2    42  LYS42      -0.2867
     25  CB         6.1370    9.3680    5.7600 C.3    42  LYS42       0.0271
     26  CG         7.5450    9.7000    5.4410 C.3    42  LYS42       0.0035
     27  CD         8.2450   10.0910    6.7460 C.3    42  LYS42       0.0206
     28  CE         9.3770   11.0730    6.4830 C.3    42  LYS42       0.1093
     29  NZ        10.2040   11.2230    7.7160 N.3    42  LYS42      -0.1314
     30  N          5.1570   12.8770   17.9520 N.3    72  VAL72      -0.1245
     31  CA         4.1480   12.5660   16.9270 C.3    72  VAL72       0.1561
     32  C          3.8210   11.0570   16.9750 C.2    72  VAL72       0.2260
     33  O          4.7270   10.2390   17.0030 O.2    72  VAL72      -0.2867
     34  CB         4.6740   12.9780   15.5030 C.3    72  VAL72       0.0252
     35  CG1        3.7680   12.4570   14.4240 C.3    72  VAL72       0.0019
     36  CG2        4.7110   14.5030   15.3910 C.3    72  VAL72       0.0019
     37  N          1.3960    8.5900   10.0410 N.3    88  LEU88      -0.1231
     38  CA         1.6820    9.4270   11.2000 C.3    88  LEU88       0.1693
     39  C          0.5560   10.3890   11.5560 C.2    88  LEU88       0.2592
     40  O         -0.2400   10.8040   10.7090 O.2    88  LEU88      -0.2718
     41  CB         2.9520   10.2300   10.9400 C.3    88  LEU88       0.0284
     42  CG         4.1430    9.3040   10.6950 C.3    88  LEU88       0.0019
     43  CD1        5.3430   10.0680   10.1940 C.3    88  LEU88       0.0001
     44  CD2        4.4590    8.6050   11.9880 C.3    88  LEU88       0.0001
     45  N          0.5200   10.7640   12.8220 N.am   89  GLU89      -0.1966
     46  CA        -0.3830   11.7850   13.3010 C.3    89  GLU89       0.1733
     47  C         -0.3020   13.0090   12.3730 C.2    89  GLU89       0.2616
     48  O          0.7940   13.4750   12.0210 O.2    89  GLU89      -0.2715
     49  CB         0.0150   12.1390   14.7420 C.3    89  GLU89       0.0429
     50  CG        -0.7420   13.3170   15.3690 C.3    89  GLU89       0.1163
     51  CD        -0.3300   13.5810   16.8270 C.2    89  GLU89       0.3649
     52  OE1        0.6510   12.9810   17.3210 O.co2  89  GLU89      -0.2457
     53  OE2       -0.9990   14.3960   17.4870 O.co2  89  GLU89      -0.2457
     54  N         -1.4660   13.5160   11.9550 N.am   90  LEU90      -0.1963
     55  CA        -1.5070   14.6670   11.0540 C.3    90  LEU90       0.1728
     56  C         -1.3120   15.9260   11.8800 C.2    90  LEU90       0.2616
     57  O         -2.0500   16.1780   12.8380 O.2    90  LEU90      -0.2715
     58  CB        -2.8560   14.7310   10.3140 C.3    90  LEU90       0.0311
     59  CG        -3.0060   15.9030    9.3350 C.3    90  LEU90       0.0022
     60  CD1       -2.0010   15.7210    8.2120 C.3    90  LEU90       0.0001
     61  CD2       -4.4530   15.9720    8.7810 C.3    90  LEU90       0.0001
     62  N         -0.2840   16.6930   11.5450 N.am   91  MET91      -0.1963
     63  CA         0.0370   17.8810   12.3250 C.3    91  MET91       0.1736
     64  C         -0.2210   19.0830   11.4220 C.2    91  MET91       0.2616
     65  O          0.6240   19.4430   10.6010 O.2    91  MET91      -0.2715
     66  CB         1.5110   17.8260   12.7720 C.3    91  MET91       0.0427
     67  CG         1.8290   16.5970   13.6450 C.3    91  MET91       0.0599
     68  SD         1.0340   16.6930   15.2850 S.3    91  MET91      -0.1393
     69  CE         2.0180   18.0580   16.0610 C.3    91  MET91       0.0692
     70  N         -1.3980   19.6850   11.5750 N.am   92  ALA92      -0.1963
     71  CA        -1.9160   20.5920   10.5540 C.3    92  ALA92       0.1728
     72  C         -1.2220   21.9390   10.5920 C.2    92  ALA92       0.2617
     73  O         -1.3460   22.7190    9.6630 O.2    92  ALA92      -0.2715
     74  CB        -3.4420   20.7760   10.7210 C.3    92  ALA92       0.0334
     75  N         -0.4930   22.2130   11.6690 N.am   93  GLY93      -0.1940
     76  CA         0.2290   23.4710   11.7620 C.3    93  GLY93       0.2014
     77  C          1.5430   23.4390   11.0000 C.2    93  GLY93       0.2639
     78  O          2.1740   24.4720   10.8090 O.2    93  GLY93      -0.2714
     79  N          1.9670   22.2580   10.5740 N.am   94  GLY94      -0.1939
     80  CA         3.2660   22.1330    9.9260 C.3    94  GLY94       0.2014
     81  C          4.4910   22.3000   10.8420 C.2    94  GLY94       0.2638
     82  O          4.3750   22.2920   12.0630 O.2    94  GLY94      -0.2714
     83  N          5.6700   22.4580   10.2520 N.am   95  ASP95      -0.1971
     84  CA         6.8880   22.4770   11.0580 C.3    95  ASP95       0.1709
     85  C          7.0630   23.7910   11.8200 C.2    95  ASP95       0.2293
     86  O          6.5410   24.8390   11.4260 O.2    95  ASP95      -0.2864
     87  CB         8.1230   22.1830   10.1910 C.3    95  ASP95       0.1436
     88  CG         8.6240   23.4070    9.4420 C.2    95  ASP95       0.3671
     89  OD1        8.2210   23.6110    8.2740 O.co2  95  ASP95      -0.2456
     90  OD2        9.4320   24.1670   10.0220 O.co2  95  ASP95      -0.2456
     91  N          8.9920   26.9580   10.1080 N.3    98  SER98      -0.1217
     92  CA         8.1270   27.6090    9.1260 C.3    98  SER98       0.1889
     93  C          7.0080   28.3640    9.7860 C.2    98  SER98       0.2288
     94  O          6.7030   29.4860    9.4010 O.2    98  SER98      -0.2866
     95  CB         7.5410   26.5790    8.1480 C.3    98  SER98       0.2089
     96  OG         8.5740   26.0800    7.3040 O.3    98  SER98      -0.2183
     97  N          6.1830   32.2780    9.4810 N.3   102  GLU102     -0.1245
     98  CA         4.9310   32.7070    8.8600 C.3   102  GLU102      0.1567
     99  C          4.0250   33.4600    9.8210 C.2   102  GLU102      0.2260
    100  O          3.1730   34.2240    9.3910 O.2   102  GLU102     -0.2867
    101  CB         4.1550   31.5030    8.3160 C.3   102  GLU102      0.0388
    102  CG         4.8480   30.7810    7.1710 C.3   102  GLU102      0.1160
    103  CD         4.1100   29.5110    6.7360 C.2   102  GLU102      0.3649
    104  OE1        3.0470   29.1730    7.3230 O.co2 102  GLU102     -0.2457
    105  OE2        4.6080   28.8440    5.8070 O.co2 102  GLU102     -0.2457
    106  N         13.1740   22.8880   12.9330 N.3   145  ARG145     -0.1231
    107  CA        12.7800   22.2760   11.6640 C.3   145  ARG145      0.1694
    108  C         12.2720   20.8460   11.8920 C.2   145  ARG145      0.2592
    109  O         11.5590   20.2960   11.0540 O.2   145  ARG145     -0.2718
    110  CB        13.9660   22.2400   10.6670 C.3   145  ARG145      0.0321
    111  CG        15.1440   21.4060   11.1710 C.3   145  ARG145      0.0489
    112  CD        16.3000   21.1980   10.1650 C.3   145  ARG145      0.2205
    113  NE        17.4080   20.5740   10.8800 N.pl3 145  ARG145     -0.0865
    114  CZ        18.1830   21.2490   11.7320 C.cat 145  ARG145      0.5346
    115  NH1       17.9490   22.5430   11.9230 N.pl3 145  ARG145      0.1354
    116  NH2       19.1520   20.6500   12.4260 N.pl3 145  ARG145      0.1354
    117  N         12.6420   20.2510   13.0190 N.am  146  ASN146     -0.1960
    118  CA        12.2420   18.8880   13.3300 C.3   146  ASN146      0.1819
    119  C         11.0070   18.7490   14.2180 C.2   146  ASN146      0.2621
    120  O         10.6380   17.6300   14.5710 O.2   146  ASN146     -0.2715
    121  CB        13.4120   18.1250   13.9570 C.3   146  ASN146      0.1195
    122  CG        14.5270   17.8720   12.9530 C.2   146  ASN146      0.2630
    123  OD1       14.2760   17.8290   11.7560 O.2   146  ASN146     -0.2716
    124  ND2       15.7530   17.7040   13.4360 N.am  146  ASN146     -0.0877
    125  N         10.3930   19.8710   14.5870 N.am  147  CYS147     -0.1954
    126  CA         9.1760   19.8700   15.4180 C.3   147  CYS147      0.1843
    127  C          7.9540   20.2540   14.5900 C.2   147  CYS147      0.2625
    128  O          8.0780   20.9840   13.6010 O.2   147  CYS147     -0.2714
    129  CB         9.3020   20.8670   16.5740 C.3   147  CYS147      0.0997
    130  SG        10.6960   20.5080   17.6670 S.3   147  CYS147     -0.0797
    131  N          6.7890   19.7430   14.9970 N.am  148  LEU148     -0.1977
    132  CA         5.5360   19.9700   14.2810 C.3   148  LEU148      0.1596
    133  C          4.4790   20.5050   15.2400 C.2   148  LEU148      0.2287
    134  O          4.5200   20.2180   16.4420 O.2   148  LEU148     -0.2864
    135  CB         5.0430   18.6630   13.6330 C.3   148  LEU148      0.0297
    136  CG         5.9420   18.1070   12.5160 C.3   148  LEU148      0.0022
    137  CD1        5.6500   16.6140   12.2980 C.3   148  LEU148      0.0001
    138  CD2        5.7260   18.9120   11.2220 C.3   148  LEU148      0.0001
    139  N         -2.5410   25.6060   13.4740 N.3   152  PRO152     -0.2116
    140  CA        -1.9160   26.9310   13.4710 C.3   152  PRO152      0.1372
    141  C         -2.3820   27.8080   14.6310 C.2   152  PRO152      0.2244
    142  O         -1.6300   28.6490   15.1370 O.2   152  PRO152     -0.2868
    143  CB        -2.3100   27.5070   12.1160 C.3   152  PRO152      0.0268
    144  CG        -3.5960   26.7920   11.7870 C.3   152  PRO152      0.0207
    145  CD        -3.4720   25.4230   12.3470 C.3   152  PRO152      0.0892
    146  N          8.9550   15.5780   15.7910 N.3   161  GLY161     -0.1210
    147  CA         8.3800   14.8120   14.6900 C.3   161  GLY161      0.1956
    148  C          9.3720   14.0820   13.7990 C.2   161  GLY161      0.2611
    149  O          8.9840   13.2160   13.0280 O.2   161  GLY161     -0.2717
    150  N         10.6460   14.4450   13.8670 N.am  162  ASP162     -0.1973
    151  CA        11.6400   13.7920   13.0340 C.3   162  ASP162      0.1709
    152  C         12.7560   13.1860   13.8970 C.2   162  ASP162      0.2293
    153  O         13.2160   13.8120   14.8580 O.2   162  ASP162     -0.2864
    154  CB        12.2680   14.7790   12.0580 C.3   162  ASP162      0.1436
    155  CG        13.2930   14.1070   11.1590 C.2   162  ASP162      0.3671
    156  OD1       12.8980   13.5630   10.1110 O.co2 162  ASP162     -0.2456
    157  OD2       14.4830   14.0970   11.5080 O.co2 162  ASP162     -0.2456
@<TRIPOS>BOND
     1     1     2    1
     2    12    11    2
     3     9    10    1
     4     4     3    2
     5    11    10    1
     6     3     2    1
     7     2     5    1
     8    10    13    1
     9    23    24    2
    10    23    22    1
    11     5     6    1
    12    13    15    1
    13    13    14    1
    14     6     8    1
    15     6     7    1
    16    22    21    1
    17    22    25    1
    18    26    25    1
    19    26    27    1
    20   105   103   ar
    21    28    27    1
    22    28    29    1
    23   103   102    1
    24   103   104   ar
    25    18    17    1
    26    18    19    2
    27   102   101    1
    28    17    20    1
    29    17    16    1
    30    96    95    1
    31    95    92    1
    32    60    59    1
    33    89    88   ar
    34   101    98    1
    35    61    59    1
    36    98    97    1
    37    98    99    1
    38    92    93    1
    39    92    91    1
    40    59    58    1
    41   100    99    2
    42    94    93    2
    43    88    90   ar
    44    88    87    1
    45    73    72    2
    46    80    79    1
    47    80    81    1
    48    37    38    1
    49   156   155   ar
    50   112   113    1
    51   112   111    1
    52    87    84    1
    53    43    42    1
    54    83    81   am
    55    83    84    1
    56    58    55    1
    57    71    72    1
    58    71    74    1
    59    71    70    1
    60    79    77   am
    61    72    75   am
    62    65    64    2
    63   110   111    1
    64   110   107    1
    65    42    41    1
    66    42    44    1
    67    40    39    2
    68    78    77    2
    69    81    82    2
    70   113   114    2
    71    41    38    1
    72    77    76    1
    73    55    56    1
    74    55    54    1
    75   109   108    2
    76    84    85    1
    77   155   157   ar
    78   155   154    1
    79    38    39    1
    80   138   136    1
    81    64    70   am
    82    64    63    1
    83    86    85    2
    84    62    56   am
    85    62    63    1
    86    39    45   am
    87   107   108    1
    88   107   106    1
    89    75    76    1
    90   114   115    1
    91   114   116    1
    92   123   122    2
    93   144   143    1
    94   144   145    1
    95    56    57    2
    96   108   117   am
    97    54    47   am
    98    48    47    2
    99   154   151    1
   100   143   140    1
   101   137   136    1
   102    63    66    1
   103   145   139    1
   104    47    46    1
   105   136   135    1
   106    66    67    1
   107    45    46    1
   108   122   124   am
   109   122   121    1
   110   117   118    1
   111   149   148    2
   112   151   150    1
   113   151   152    1
   114    46    49    1
   115   118   121    1
   116   118   119    1
   117   140   139    1
   118   140   141    1
   119   128   127    2
   120   135   132    1
   121    67    68    1
   122   148   150   am
   123   148   147    1
   124   152   153    2
   125   119   120    2
   126   119   125   am
   127   132   131    1
   128   132   133    1
   129    35    34    1
   130   125   126    1
   131   127   131   am
   132   127   126    1
   133   141   142    2
   134   147   146    1
   135    49    50    1
   136   133   134    2
   137    68    69    1
   138    50    51    1
   139    36    34    1
   140   126   129    1
   141    34    31    1
   142   129   130    1
   143    51    52   ar
   144    51    53   ar
   145    31    32    1
   146    31    30    1
   147    32    33    2
