@<TRIPOS>MOLECULE
tmp/2xbjA00.pdb
 185 172 0 0 0
SMALL
GASTEIGER

@<TRIPOS>ATOM
      1  N         -5.7210   55.3850    7.4410 N.3    16  LEU16      -0.1231
      2  CA        -5.4870   54.2020    8.2570 C.3    16  LEU16       0.1696
      3  C         -4.6500   53.2010    7.4640 C.2    16  LEU16       0.2632
      4  O         -3.7970   52.5070    8.0160 O.2    16  LEU16      -0.2714
      5  CB        -6.8160   53.5850    8.7020 C.3    16  LEU16       0.0284
      6  CG        -7.7100   54.4710    9.5770 C.3    16  LEU16       0.0019
      7  CD1       -9.0470   53.8170    9.8440 C.3    16  LEU16       0.0001
      8  CD2       -7.0230   54.7870   10.8900 C.3    16  LEU16       0.0001
      9  N         -4.8880   53.1540    6.1570 N.am   17  GLY17      -0.1718
     10  CA        -4.1400   52.2760    5.2770 C.2    17  GLY17       0.1480
     11  C         -4.3110   52.5400    3.7880 C.2    17  GLY17       0.2821
     12  O         -5.3380   53.0510    3.3320 O.2    17  GLY17      -0.2669
     13  N         -3.2760   52.1840    3.0320 N.am   18  SER18      -0.1901
     14  CA        -3.2880   52.2250    1.5700 C.3    18  SER18       0.2058
     15  C         -2.1870   51.2930    1.0880 C.2    18  SER18       0.2644
     16  O         -1.1710   51.1370    1.7670 O.2    18  SER18      -0.2714
     17  CB        -3.0440   53.6470    1.0520 C.3    18  SER18       0.2130
     18  OG        -1.8910   54.2320    1.6430 O.3    18  SER18      -0.2179
     19  N         -2.3780   50.6740   -0.0730 N.am   19  GLY19      -0.1939
     20  CA        -3.5570   50.8990   -0.8800 C.3    19  GLY19       0.2014
     21  C         -3.3530   50.4790   -2.3230 C.2    19  GLY19       0.2638
     22  O         -2.5020   51.0230   -3.0330 O.2    19  GLY19      -0.2714
     23  N         -4.1380   49.4980   -2.7520 N.am   20  ALA20      -0.1977
     24  CA        -4.0980   49.0340   -4.1280 C.3    20  ALA20       0.1597
     25  C         -5.4510   49.3140   -4.7680 C.2    20  ALA20       0.2287
     26  O         -6.3610   48.4810   -4.7160 O.2    20  ALA20      -0.2864
     27  CB        -3.7630   47.5490   -4.1800 C.3    20  ALA20       0.0319
     28  N         -7.3900   51.0080   -3.5060 N.3    21  GLY21      -0.1225
     29  CA        -8.1730   51.3200   -2.3250 C.3    21  GLY21       0.1811
     30  C         -7.3800   51.9880   -1.2110 C.2    21  GLY21       0.2280
     31  O         -6.2520   51.6000   -0.9230 O.2    21  GLY21      -0.2866
     32  N         -8.0220   53.6200    2.9760 N.3    23  VAL23      -0.1245
     33  CA        -8.9670   53.7220    4.0870 C.3    23  VAL23       0.1561
     34  C         -8.6090   54.8660    5.0290 C.2    23  VAL23       0.2260
     35  O         -7.4830   54.9660    5.5220 O.2    23  VAL23      -0.2867
     36  CB        -9.0940   52.3980    4.8840 C.3    23  VAL23       0.0252
     37  CG1      -10.0670   52.5680    6.0680 C.3    23  VAL23       0.0019
     38  CG2       -9.5580   51.2670    3.9750 C.3    23  VAL23       0.0019
     39  N        -15.1110   54.4720    9.3250 N.3    36  ALA36      -0.1245
     40  CA       -14.0420   54.3070    8.3650 C.3    36  ALA36       0.1562
     41  C        -14.6010   54.6610    6.9960 C.2    36  ALA36       0.2260
     42  O        -15.7660   54.3930    6.7050 O.2    36  ALA36      -0.2867
     43  CB       -13.5000   52.8780    8.3850 C.3    36  ALA36       0.0290
     44  N        -13.6800   54.0730    3.0010 N.3    38  LYS38      -0.1245
     45  CA       -12.8460   53.4790    1.9750 C.3    38  LYS38       0.1561
     46  C        -12.9500   54.2490    0.6610 C.2    38  LYS38       0.2260
     47  O        -14.0400   54.4440    0.1180 O.2    38  LYS38      -0.2867
     48  CB       -13.2020   52.0100    1.7590 C.3    38  LYS38       0.0271
     49  CG       -12.1580   51.3040    0.9300 C.3    38  LYS38       0.0035
     50  CD       -12.4830   49.8570    0.7300 C.3    38  LYS38       0.0206
     51  CE       -11.4650   49.2230   -0.1900 C.3    38  LYS38       0.1093
     52  NZ       -11.8530   47.8180   -0.5000 N.3    38  LYS38      -0.1314
     53  N        -18.4190   42.9170    7.7450 N.3    62  ILE62      -0.1245
     54  CA       -18.3970   44.3810    7.7740 C.3    62  ILE62       0.1561
     55  C        -19.7090   45.0090    7.2530 C.2    62  ILE62       0.2260
     56  O        -20.2890   44.5470    6.2560 O.2    62  ILE62      -0.2867
     57  CB       -17.1690   44.9210    6.9860 C.3    62  ILE62       0.0252
     58  CG1      -16.8130   46.3470    7.4210 C.3    62  ILE62       0.0019
     59  CG2      -17.3660   44.7800    5.4710 C.3    62  ILE62       0.0019
     60  CD1      -16.2770   46.4290    8.8400 C.3    62  ILE62       0.0001
     61  N        -18.0850   52.9400    6.3180 N.3    77  LEU77      -0.1231
     62  CA       -18.3420   51.7270    7.0790 C.3    77  LEU77       0.1693
     63  C        -18.0260   51.8980    8.5630 C.2    77  LEU77       0.2592
     64  O        -17.3090   52.8220    8.9610 O.2    77  LEU77      -0.2718
     65  CB       -17.4960   50.5780    6.5170 C.3    77  LEU77       0.0284
     66  CG       -17.4780   50.3810    4.9980 C.3    77  LEU77       0.0019
     67  CD1      -16.0780   50.6310    4.4810 C.3    77  LEU77       0.0001
     68  CD2      -17.9990   48.9840    4.6210 C.3    77  LEU77       0.0001
     69  N        -18.5550   50.9850    9.3690 N.am   78  GLU78      -0.1966
     70  CA       -18.1960   50.9030   10.7790 C.3    78  GLU78       0.1733
     71  C        -16.6810   50.7310   10.9360 C.2    78  GLU78       0.2616
     72  O        -16.0480   49.9450   10.2330 O.2    78  GLU78      -0.2715
     73  CB       -18.9400   49.7480   11.4530 C.3    78  GLU78       0.0429
     74  CG       -18.5680   48.3630   10.8770 C.3    78  GLU78       0.1163
     75  CD       -19.4140   47.2280   11.4510 C.2    78  GLU78       0.3649
     76  OE1      -19.7640   47.2920   12.6590 O.co2  78  GLU78      -0.2457
     77  OE2      -19.7220   46.2750   10.6900 O.co2  78  GLU78      -0.2457
     78  N        -16.1030   51.4920   11.8570 N.am   79  LEU79      -0.1963
     79  CA       -14.6650   51.4940   12.0560 C.3    79  LEU79       0.1728
     80  C        -14.2060   50.2520   12.8110 C.2    79  LEU79       0.2616
     81  O        -14.8080   49.8550   13.8180 O.2    79  LEU79      -0.2715
     82  CB       -14.2370   52.7610   12.8050 C.3    79  LEU79       0.0311
     83  CG       -12.7560   52.8520   13.1960 C.3    79  LEU79       0.0022
     84  CD1      -11.8560   53.0340   11.9730 C.3    79  LEU79       0.0001
     85  CD2      -12.5350   53.9750   14.1900 C.3    79  LEU79       0.0001
     86  N        -13.1380   49.6420   12.3180 N.am   80  MET80      -0.1963
     87  CA       -12.5160   48.5080   13.0000 C.3    80  MET80       0.1736
     88  C        -11.2110   48.9880   13.6210 C.2    80  MET80       0.2616
     89  O        -10.1880   49.0410   12.9520 O.2    80  MET80      -0.2715
     90  CB       -12.2380   47.3570   12.0230 C.3    80  MET80       0.0427
     91  CG       -13.4810   46.7170   11.4250 C.3    80  MET80       0.0599
     92  SD       -14.6620   46.1580   12.6610 S.3    80  MET80      -0.1393
     93  CE       -13.8810   44.6420   13.1840 C.3    80  MET80       0.0692
     94  N        -11.2520   49.3340   14.9020 N.am   81  GLU81      -0.1963
     95  CA       -10.1190   49.9940   15.5430 C.3    81  GLU81       0.1733
     96  C         -8.9210   49.0640   15.7290 C.2    81  GLU81       0.2617
     97  O         -7.7920   49.5260   15.8930 O.2    81  GLU81      -0.2715
     98  CB       -10.5470   50.6430   16.8670 C.3    81  GLU81       0.0429
     99  CG       -11.5540   51.7890   16.6810 C.3    81  GLU81       0.1163
    100  CD       -12.0890   52.3660   17.9960 C.2    81  GLU81       0.3649
    101  OE1      -13.3280   52.3900   18.1740 O.co2  81  GLU81      -0.2457
    102  OE2      -11.2760   52.8070   18.8420 O.co2  81  GLU81      -0.2457
    103  N         -9.1660   47.7560   15.6610 N.am   82  GLY82      -0.1940
    104  CA        -8.1140   46.7710   15.8380 C.3    82  GLY82       0.2014
    105  C         -7.2130   46.5330   14.6370 C.2    82  GLY82       0.2639
    106  O         -6.1530   45.9140   14.7610 O.2    82  GLY82      -0.2714
    107  N         -7.6200   47.0060   13.4650 N.am   83  GLY83      -0.1939
    108  CA        -6.7990   46.8290   12.2810 C.3    83  GLY83       0.2014
    109  C         -6.8420   45.4300   11.6840 C.2    83  GLY83       0.2638
    110  O         -7.7260   44.6250   12.0140 O.2    83  GLY83      -0.2714
    111  N         -5.8810   45.1460   10.8000 N.am   84  GLU84      -0.1977
    112  CA        -5.8310   43.8890   10.0500 C.3    84  GLU84       0.1602
    113  C         -5.2900   42.7100   10.8580 C.2    84  GLU84       0.2287
    114  O         -4.4310   42.8770   11.7100 O.2    84  GLU84      -0.2864
    115  CB        -5.0030   44.0610    8.7770 C.3    84  GLU84       0.0415
    116  CG        -5.4230   45.2460    7.9390 C.3    84  GLU84       0.1163
    117  CD        -4.5660   45.4480    6.7070 C.2    84  GLU84       0.3649
    118  OE1       -3.6170   44.6740    6.4650 O.co2  84  GLU84      -0.2457
    119  OE2       -4.8440   46.4020    5.9630 O.co2  84  GLU84      -0.2457
    120  N         -1.3930   42.1770   10.5770 N.3    87  ASP87      -0.1239
    121  CA        -0.4190   42.7020   11.5360 C.3    87  ASP87       0.1674
    122  C         -0.1370   41.7750   12.7150 C.2    87  ASP87       0.2266
    123  O          0.9440   41.8260   13.2970 O.2    87  ASP87      -0.2867
    124  CB        -0.8410   44.0770   12.0440 C.3    87  ASP87       0.1410
    125  CG        -0.5960   45.1740   11.0230 C.2    87  ASP87       0.3668
    126  OD1       -1.0340   46.3210   11.2680 O.co2  87  ASP87      -0.2456
    127  OD2        0.0380   44.8950    9.9760 O.co2  87  ASP87      -0.2456
    128  N         -8.1020   36.4870    3.0880 N.3   125  LYS125     -0.1245
    129  CA        -6.7000   36.5430    3.4910 C.3   125  LYS125      0.1561
    130  C         -6.5910   37.4560    4.7160 C.2   125  LYS125      0.2260
    131  O         -7.4910   38.2450    4.9930 O.2   125  LYS125     -0.2867
    132  CB        -5.8100   37.0370    2.3450 C.3   125  LYS125      0.0271
    133  CG        -6.1580   38.4230    1.8480 C.3   125  LYS125      0.0035
    134  CD        -5.4000   38.7870    0.5740 C.3   125  LYS125      0.0206
    135  CE        -5.7750   40.2080    0.1300 C.3   125  LYS125      0.1093
    136  NZ        -5.3690   40.5690   -1.2700 N.3   125  LYS125     -0.1314
    137  N         -5.3520   40.1840    5.3790 N.3   127  GLU127     -0.1231
    138  CA        -5.5220   41.6310    5.2470 C.3   127  GLU127      0.1699
    139  C         -6.9970   42.0090    5.1150 C.2   127  GLU127      0.2592
    140  O         -7.3600   43.1720    5.2680 O.2   127  GLU127     -0.2718
    141  CB        -4.6570   42.2600    4.1350 C.3   127  GLU127      0.0402
    142  CG        -4.3060   41.3690    2.9640 C.3   127  GLU127      0.1161
    143  CD        -3.1390   40.3980    3.2530 C.2   127  GLU127      0.3649
    144  OE1       -1.9960   40.7150    2.8660 O.co2 127  GLU127     -0.2457
    145  OE2       -3.3660   39.3160    3.8430 O.co2 127  GLU127     -0.2457
    146  N         -7.8410   41.0090    4.8740 N.am  128  ASN128     -0.1974
    147  CA        -9.2660   41.2330    4.7180 C.3   128  ASN128      0.1688
    148  C        -10.0400   40.7260    5.9130 C.2   128  ASN128      0.2292
    149  O        -11.2510   40.5310    5.8440 O.2   128  ASN128     -0.2864
    150  CB        -9.7610   40.5640    3.4450 C.3   128  ASN128      0.1181
    151  CG        -9.2250   41.2310    2.2260 C.2   128  ASN128      0.2629
    152  OD1       -8.7050   42.3470    2.3080 O.2   128  ASN128     -0.2716
    153  ND2       -9.3370   40.5710    1.0830 N.am  128  ASN128     -0.0877
    154  N        -10.6120   41.9590    9.7110 N.3   130  LEU130     -0.1245
    155  CA       -10.3660   43.0790   10.6040 C.3   130  LEU130      0.1561
    156  C        -10.7670   42.7430   12.0380 C.2   130  LEU130      0.2260
    157  O        -11.7390   42.0150   12.2780 O.2   130  LEU130     -0.2867
    158  CB       -11.0760   44.3440   10.1100 C.3   130  LEU130      0.0270
    159  CG       -10.9100   44.6490    8.6180 C.3   130  LEU130      0.0019
    160  CD1      -11.4940   45.9940    8.2840 C.3   130  LEU130      0.0001
    161  CD2       -9.4750   44.5690    8.1440 C.3   130  LEU130      0.0001
    162  N         -8.4020   46.6490   20.0260 N.3   134  GLN134     -0.1245
    163  CA        -6.9860   46.3650   20.2080 C.3   134  GLN134      0.1566
    164  C         -6.7760   45.2140   21.1920 C.2   134  GLN134      0.2260
    165  O         -5.6440   44.7760   21.4180 O.2   134  GLN134     -0.2867
    166  CB        -6.2350   47.6250   20.6560 C.3   134  GLN134      0.0367
    167  CG        -6.0460   48.6520   19.5330 C.3   134  GLN134      0.0905
    168  CD        -4.9190   48.2960   18.6100 C.2   134  GLN134      0.2608
    169  OE1       -3.8500   47.8470   19.0570 O.2   134  GLN134     -0.2717
    170  NE2       -5.1610   48.5160   17.3120 N.am  134  GLN134     -0.0878
    171  N        -13.9260   41.6170    5.3850 N.3   143  THR143     -0.1203
    172  CA       -14.1550   42.7490    4.4940 C.3   143  THR143      0.1994
    173  C        -13.6960   42.4580    3.0720 C.2   143  THR143      0.2617
    174  O        -13.1990   41.3650    2.7530 O.2   143  THR143     -0.2717
    175  CB       -13.3790   44.0160    4.9470 C.3   143  THR143      0.1784
    176  OG1      -11.9690   43.7610    4.8620 O.3   143  THR143     -0.2211
    177  CG2      -13.7280   44.3880    6.3700 C.3   143  THR143      0.0376
    178  N        -13.8560   43.4820    2.2380 N.am  144  ASP144     -0.1973
    179  CA       -13.3610   43.5080    0.8630 C.3   144  ASP144      0.1709
    180  C        -14.0540   42.5150   -0.0730 C.2   144  ASP144      0.2293
    181  O        -13.5010   41.4660   -0.4130 O.2   144  ASP144     -0.2864
    182  CB       -11.8470   43.3260    0.8190 C.3   144  ASP144      0.1436
    183  CG       -11.2970   43.5400   -0.5680 C.2   144  ASP144      0.3671
    184  OD1      -10.0650   43.3880   -0.7660 O.co2 144  ASP144     -0.2456
    185  OD2      -12.1170   43.8780   -1.4650 O.co2 144  ASP144     -0.2456
@<TRIPOS>BOND
     1    25    26    2
     2    25    24    1
     3    27    24    1
     4    24    23    1
     5    28    29    1
     6    22    21    2
     7    23    21   am
     8    29    30    1
     9    21    20    1
    10   185   183   ar
    11   136   135    1
    12    30    31    2
    13    20    19    1
    14   184   183   ar
    15   183   182    1
    16    52    51    1
    17   181   180    2
    18    51    50    1
    19    19    15   am
    20   180   179    1
    21    47    46    2
    22   135   134    1
    23   134   133    1
    24    46    45    1
    25    50    49    1
    26   182   179    1
    27   179   178    1
    28    49    48    1
    29    17    14    1
    30    17    18    1
    31   153   151   am
    32    15    14    1
    33    15    16    2
    34    14    13    1
    35    48    45    1
    36   133   132    1
    37    45    44    1
    38   151   152    2
    39   151   150    1
    40   178   173   am
    41   132   129    1
    42   174   173    2
    43   144   143   ar
    44   142   143    1
    45   142   141    1
    46    32    33    1
    47    13    11   am
    48   173   172    1
    49   128   129    1
    50   143   145   ar
    51    12    11    2
    52   150   147    1
    53   129   130    1
    54    11    10    1
    55    38    36    1
    56    33    36    1
    57    33    34    1
    58   141   138    1
    59    67    66    1
    60   172   175    1
    61   172   171    1
    62    68    66    1
    63   130   131    2
    64   147   146    1
    65   147   148    1
    66   176   175    1
    67   146   139   am
    68    36    37    1
    69   175   177    1
    70    66    65    1
    71    34    35    2
    72   139   138    1
    73   139   140    2
    74   138   137    1
    75    10     9    2
    76    59    57    1
    77   149   148    2
    78   119   117   ar
    79     9     3    1
    80    56    55    2
    81    61    62    1
    82   118   117   ar
    83    65    62    1
    84    42    41    2
    85   117   116    1
    86    57    58    1
    87    57    54    1
    88    41    40    1
    89    62    63    1
    90    55    54    1
    91    58    60    1
    92     1     2    1
    93     3     4    2
    94     3     2    1
    95    53    54    1
    96   116   115    1
    97   161   159    1
    98     2     5    1
    99   160   159    1
   100    40    43    1
   101    40    39    1
   102    63    64    2
   103    63    69   am
   104   159   158    1
   105     5     6    1
   106   115   112    1
   107    69    70    1
   108     6     7    1
   109     6     8    1
   110   154   155    1
   111   127   125   ar
   112   112   111    1
   113   112   113    1
   114   158   155    1
   115    72    71    2
   116   120   121    1
   117   155   156    1
   118    77    75   ar
   119    70    71    1
   120    70    73    1
   121   111   109   am
   122   113   114    2
   123    74    75    1
   124    74    73    1
   125    71    78   am
   126   125   126   ar
   127   125   124    1
   128    91    90    1
   129    91    92    1
   130    75    76   ar
   131   121   124    1
   132   121   122    1
   133   109   110    2
   134   109   108    1
   135    78    79    1
   136    84    83    1
   137    90    87    1
   138   156   157    2
   139    79    82    1
   140    79    80    1
   141   108   107    1
   142    86    80   am
   143    86    87    1
   144    92    93    1
   145   122   123    2
   146    82    83    1
   147    80    81    2
   148    89    88    2
   149    87    88    1
   150    83    85    1
   151   107   105   am
   152    88    94   am
   153   105   106    2
   154   105   104    1
   155    94    95    1
   156    95    96    1
   157    95    98    1
   158   103    96   am
   159   103   104    1
   160    96    97    2
   161    99    98    1
   162    99   100    1
   163   170   168   am
   164   100   101   ar
   165   100   102   ar
   166   168   169    2
   167   168   167    1
   168   167   166    1
   169   162   163    1
   170   163   166    1
   171   163   164    1
   172   164   165    2
