@<TRIPOS>MOLECULE
tmp/2xbvA00.pdb
 194 192 0 0 0
SMALL
GASTEIGER

@<TRIPOS>ATOM
      1  N         14.5050   57.9120   -4.6620 N.3    42  HIS42      -0.1241
      2  CA        13.4440   58.9300   -4.8510 C.3    42  HIS42       0.1621
      3  C         13.9500   60.1830   -5.5890 C.2    42  HIS42       0.2264
      4  O         13.1560   60.9110   -6.1990 O.2    42  HIS42      -0.2867
      5  CB        12.7230   59.2950   -3.5540 C.3    42  HIS42       0.0745
      6  CG        13.4320   60.3110   -2.7010 C.ar   42  HIS42       0.0817
      7  ND1       14.1880   59.9260   -1.6090 N.ar   42  HIS42      -0.2268
      8  CD2       13.4380   61.6680   -2.7820 C.ar   42  HIS42       0.1154
      9  CE1       14.6010   61.0490   -1.0440 C.ar   42  HIS42       0.1986
     10  NE2       14.1770   62.1280   -1.7220 N.ar   42  HIS42      -0.2212
     11  N          7.2410   54.8570   -4.1260 N.3    82  LYS82      -0.1231
     12  CA         6.8250   56.0170   -3.3670 C.3    82  LYS82       0.1693
     13  C          5.6980   55.6910   -2.3900 C.2    82  LYS82       0.2592
     14  O          5.4890   56.4420   -1.4510 O.2    82  LYS82      -0.2718
     15  CB         6.4270   57.1880   -4.2800 C.3    82  LYS82       0.0285
     16  CG         7.6190   57.9660   -4.7900 C.3    82  LYS82       0.0035
     17  CD         7.1450   59.2960   -5.3400 C.3    82  LYS82       0.0206
     18  CE         8.3240   60.1300   -5.7920 C.3    82  LYS82       0.1093
     19  NZ         7.9090   61.1390   -6.8030 N.3    82  LYS82      -0.1314
     20  N          5.0060   54.5360   -2.5590 N.am   83  GLU83      -0.1966
     21  CA         3.9650   54.1550   -1.5940 C.3    83  GLU83       0.1733
     22  C          4.5290   54.0010   -0.1690 C.2    83  GLU83       0.2617
     23  O          3.9160   54.4680    0.7880 O.2    83  GLU83      -0.2715
     24  CB         3.3420   52.8260   -2.0410 C.3    83  GLU83       0.0429
     25  CG         2.0840   52.4110   -1.2950 C.3    83  GLU83       0.1163
     26  CD         1.6490   50.9780   -1.5510 C.2    83  GLU83       0.3649
     27  OE1        1.5570   50.5770   -2.7340 O.co2  83  GLU83      -0.2457
     28  OE2        1.3850   50.2580   -0.5620 O.co2  83  GLU83      -0.2457
     29  N          5.7250   53.3800   -0.0340 N.am   84  THR84      -0.1937
     30  CA         6.3070   53.0830    1.2840 C.3    84  THR84       0.2028
     31  C          7.6210   53.8370    1.5120 C.2    84  THR84       0.2642
     32  O          8.0910   53.9040    2.6480 O.2    84  THR84      -0.2714
     33  CB         6.6480   51.5700    1.3430 C.3    84  THR84       0.1808
     34  OG1        7.5520   51.2570    0.2960 O.3    84  THR84      -0.2208
     35  CG2        5.3870   50.6740    1.2200 C.3    84  THR84       0.0379
     36  N          8.2500   54.3150    0.4270 N.am   85  TYR85      -0.1973
     37  CA         9.5990   54.8980    0.4580 C.3    85  TYR85       0.1639
     38  C         10.6480   53.8320    0.9000 C.2    85  TYR85       0.2290
     39  O         11.8090   54.1640    1.2100 O.2    85  TYR85      -0.2864
     40  CB         9.6740   56.1850    1.2780 C.3    85  TYR85       0.0560
     41  CG         9.6000   57.4130    0.3990 C.ar   85  TYR85      -0.0198
     42  CD1        8.4540   57.6910   -0.3590 C.ar   85  TYR85      -0.0009
     43  CD2       10.7010   58.2500    0.2550 C.ar   85  TYR85      -0.0009
     44  CE1        8.4090   58.7920   -1.2250 C.ar   85  TYR85       0.0417
     45  CE2       10.6530   59.3680   -0.5770 C.ar   85  TYR85       0.0417
     46  CZ         9.5040   59.6480   -1.2890 C.ar   85  TYR85       0.1957
     47  OH         9.5200   60.7510   -2.1040 O.3    85  TYR85      -0.2866
     48  N         17.5290   72.5500    2.5140 N.3   132  ARG132     -0.1245
     49  CA        16.8500   73.6320    3.2480 C.3   132  ARG132      0.1563
     50  C         17.4310   73.8410    4.6320 C.2   132  ARG132      0.2260
     51  O         17.8260   72.8690    5.2990 O.2   132  ARG132     -0.2867
     52  CB        15.3400   73.3840    3.3160 C.3   132  ARG132      0.0307
     53  CG        14.6420   73.5440    1.9740 C.3   132  ARG132      0.0489
     54  CD        13.1520   73.3820    2.0950 C.3   132  ARG132      0.2205
     55  NE        12.5680   73.2190    0.7750 N.pl3 132  ARG132     -0.0865
     56  CZ        11.4170   73.7570    0.3950 C.cat 132  ARG132      0.5346
     57  NH1       10.7040   74.4860    1.2450 N.pl3 132  ARG132      0.1354
     58  NH2       10.9570   73.5530   -0.8300 N.pl3 132  ARG132      0.1354
     59  N         12.4080   74.0310    7.4260 N.3   135  GLU135     -0.1245
     60  CA        11.3530   73.3870    6.6610 C.3   135  GLU135      0.1567
     61  C         10.6800   74.2960    5.6070 C.2   135  GLU135      0.2260
     62  O         10.3910   73.8490    4.5040 O.2   135  GLU135     -0.2867
     63  CB        10.2880   72.8130    7.6160 C.3   135  GLU135      0.0388
     64  CG         9.2560   71.9820    6.8920 C.3   135  GLU135      0.1160
     65  CD         8.1650   71.4760    7.8090 C.2   135  GLU135      0.3649
     66  OE1        8.4700   71.1560    8.9860 O.co2 135  GLU135     -0.2457
     67  OE2        7.0230   71.3210    7.3180 O.co2 135  GLU135     -0.2457
     68  N          4.2780   56.9920    9.3290 N.3   162  PHE162     -0.1227
     69  CA         4.5330   55.9710    8.2880 C.3   162  PHE162      0.1736
     70  C          5.3830   54.8090    8.8180 C.2   162  PHE162      0.2595
     71  O          6.1320   54.9730    9.7930 O.2   162  PHE162     -0.2718
     72  CB         5.2600   56.5870    7.0550 C.3   162  PHE162      0.0547
     73  CG         4.5280   57.7980    6.5000 C.ar  162  PHE162     -0.0202
     74  CD1        3.3730   57.6400    5.7390 C.ar  162  PHE162     -0.0042
     75  CD2        4.9280   59.0850    6.8470 C.ar  162  PHE162     -0.0042
     76  CE1        2.6390   58.7580    5.3050 C.ar  162  PHE162     -0.0003
     77  CE2        4.2210   60.2140    6.3930 C.ar  162  PHE162     -0.0003
     78  CZ         3.0770   60.0440    5.6330 C.ar  162  PHE162     -0.0000
     79  N          5.2390   53.6630    8.1540 N.am  163  ILE163     -0.1980
     80  CA         5.9660   52.4240    8.5270 C.3   163  ILE163      0.1595
     81  C          7.4620   52.6590    8.3960 C.2   163  ILE163      0.2287
     82  O          7.9560   53.0980    7.3250 O.2   163  ILE163     -0.2864
     83  CB         5.4840   51.2090    7.7000 C.3   163  ILE163      0.0276
     84  CG1        4.0450   50.8090    8.1400 C.3   163  ILE163      0.0022
     85  CG2        6.4460   49.9890    7.8180 C.3   163  ILE163      0.0022
     86  CD1        3.2840   50.1870    7.0710 C.3   163  ILE163      0.0001
     87  N         18.2490   68.9020   12.1350 N.3   179  ASP179     -0.1225
     88  CA        17.8710   67.7390   11.3300 C.3   179  ASP179      0.1805
     89  C         18.3610   67.9910    9.8890 C.2   179  ASP179      0.2598
     90  O         18.6700   69.1430    9.5050 O.2   179  ASP179     -0.2718
     91  CB        16.3160   67.7250   11.2760 C.3   179  ASP179      0.1424
     92  CG        15.6370   66.4230   10.8220 C.2   179  ASP179      0.3668
     93  OD1       16.3550   65.4710   10.5140 O.co2 179  ASP179     -0.2456
     94  OD2       14.3900   66.4370   10.6430 O.co2 179  ASP179     -0.2456
     95  N         18.3240   66.9490    9.0660 N.am  180  ALA180     -0.1966
     96  CA        18.5190   67.1330    7.6350 C.3   180  ALA180      0.1728
     97  C         17.1580   67.6620    7.1310 C.2   180  ALA180      0.2616
     98  O         16.1350   67.7240    7.8790 O.2   180  ALA180     -0.2715
     99  CB        18.8790   65.8010    6.9640 C.3   180  ALA180      0.0334
    100  N         17.1130   68.0820    5.8680 N.am  181  CYS181     -0.1954
    101  CA        15.8620   68.6050    5.3460 C.3   181  CYS181      0.1843
    102  C         15.8070   68.3420    3.8270 C.2   181  CYS181      0.2625
    103  O         16.7600   67.7900    3.2740 O.2   181  CYS181     -0.2714
    104  CB        15.7120   70.0960    5.7000 C.3   181  CYS181      0.0997
    105  SG        14.0450   70.7400    5.4980 S.3   181  CYS181     -0.0797
    106  N         14.6810   68.7030    3.1570 N.am  182  GLN182     -0.1977
    107  CA        14.5670   68.4770    1.7120 C.3   182  GLN182      0.1601
    108  C         15.7360   69.1670    1.0090 C.2   182  GLN182      0.2287
    109  O         16.1480   70.2700    1.3800 O.2   182  GLN182     -0.2864
    110  CB        13.2460   69.0280    1.1740 C.3   182  GLN182      0.0394
    111  CG        12.8950   68.4240   -0.2020 C.3   182  GLN182      0.0908
    112  CD        11.5870   68.9420   -0.6950 C.2   182  GLN182      0.2608
    113  OE1       11.3940   70.1440   -0.8710 O.2   182  GLN182     -0.2717
    114  NE2       10.6600   68.0390   -0.9210 N.am  182  GLN182     -0.0878
    115  N         18.4080   65.2090    0.8240 N.3   185  SER185     -0.1217
    116  CA        17.8670   63.9560    0.2910 C.3   185  SER185      0.1889
    117  C         18.9000   63.3030   -0.6580 C.2   185  SER185      0.2288
    118  O         19.4230   64.0090   -1.5540 O.2   185  SER185     -0.2866
    119  CB        16.6000   64.3060   -0.5020 C.3   185  SER185      0.2089
    120  OG        15.8220   65.2300    0.2450 O.3   185  SER185     -0.2183
    121  N         20.2680   59.9980    3.1460 N.3   203  VAL203     -0.1231
    122  CA        19.1680   60.8940    3.5770 C.3   203  VAL203      0.1692
    123  C         17.9250   60.5230    2.7710 C.2   203  VAL203      0.2593
    124  O         17.9580   60.5710    1.5330 O.2   203  VAL203     -0.2718
    125  CB        19.5150   62.3850    3.3410 C.3   203  VAL203      0.0266
    126  CG1       18.3510   63.2890    3.7820 C.3   203  VAL203      0.0020
    127  CG2       20.8170   62.7540    4.0700 C.3   203  VAL203      0.0020
    128  N         16.8480   60.0740    3.4640 N.am  204  SER204     -0.1938
    129  CA        15.6830   59.5810    2.7310 C.3   204  SER204      0.2055
    130  C         14.4180   60.4150    2.9300 C.2   204  SER204      0.2643
    131  O         13.9280   61.0160    1.9620 O.2   204  SER204     -0.2714
    132  CB        15.4200   58.1220    3.1120 C.3   204  SER204      0.2130
    133  OG        14.3660   57.5990    2.3130 O.3   204  SER204     -0.2179
    134  N         13.9060   60.5330    4.1670 N.am  205  TRP205     -0.1959
    135  CA        12.6700   61.3280    4.3420 C.3   205  TRP205      0.1771
    136  C         12.4510   61.7460    5.7560 C.2   205  TRP205      0.2620
    137  O         13.1520   61.2980    6.6620 O.2   205  TRP205     -0.2715
    138  CB        11.4270   60.5100    3.8620 C.3   205  TRP205      0.0590
    139  CG        11.2200   59.1740    4.5500 C.ar  205  TRP205      0.0006
    140  CD1       11.7200   57.9670    4.1450 C.ar  205  TRP205      0.0946
    141  CD2       10.3600   58.9040    5.6610 C.ar  205  TRP205      0.0152
    142  NE1       11.2740   56.9620    4.9970 N.ar  205  TRP205     -0.2442
    143  CE2       10.4050   57.5020    5.9050 C.ar  205  TRP205      0.0810
    144  CE3        9.5030   59.7050    6.4500 C.ar  205  TRP205      0.0012
    145  CZ2        9.6530   56.8840    6.9140 C.ar  205  TRP205      0.0191
    146  CZ3        8.7070   59.0820    7.4180 C.ar  205  TRP205      0.0001
    147  CH2        8.8360   57.7090    7.6880 C.ar  205  TRP205      0.0015
    148  N         11.4390   62.5780    5.9520 N.am  206  GLY206     -0.1940
    149  CA        11.0560   63.0080    7.2850 C.3   206  GLY206      0.2014
    150  C          9.7430   63.7420    7.1940 C.2   206  GLY206      0.2639
    151  O          9.3820   64.2000    6.1070 O.2   206  GLY206     -0.2714
    152  N          9.0060   63.8080    8.3180 N.am  207  GLU207     -0.1963
    153  CA         7.7120   64.5380    8.3530 C.3   207  GLU207      0.1733
    154  C          8.0730   65.9590    8.6950 C.2   207  GLU207      0.2617
    155  O          8.4030   66.2700    9.8510 O.2   207  GLU207     -0.2715
    156  CB         6.7520   63.8890    9.3720 C.3   207  GLU207      0.0429
    157  CG         6.4460   62.4570    8.9860 C.3   207  GLU207      0.1163
    158  CD         5.4310   61.8060    9.8920 C.2   207  GLU207      0.3649
    159  OE1        4.3010   62.3470    9.9850 O.co2 207  GLU207     -0.2457
    160  OE2        5.7470   60.7390   10.4740 O.co2 207  GLU207     -0.2457
    161  N          8.1930   66.7670    7.6400 N.am  208  GLY208     -0.1940
    162  CA         8.6970   68.1260    7.7320 C.3   208  GLY208      0.2014
    163  C         10.1990   68.0500    7.9470 C.2   208  GLY208      0.2639
    164  O         10.8490   67.1280    7.4490 O.2   208  GLY208     -0.2714
    165  N         10.7600   68.9810    8.7090 N.am  209  CYS209     -0.1967
    166  CA        12.1830   68.9890    9.0870 C.3   209  CYS209      0.1712
    167  C         12.3060   69.5310   10.4890 C.2   209  CYS209      0.2296
    168  O         11.7290   70.5950   10.7790 O.2   209  CYS209     -0.2864
    169  CB        13.0520   69.8130    8.1350 C.3   209  CYS209      0.0983
    170  SG        12.7890   69.4360    6.4180 S.3   209  CYS209     -0.0798
    171  N         14.7240   62.1170   11.6610 N.3   216  GLY216     -0.1210
    172  CA        15.1400   61.9770   10.2600 C.3   216  GLY216      0.1956
    173  C         15.2020   60.4990    9.9270 C.2   216  GLY216      0.2612
    174  O         15.6990   59.6910   10.7360 O.2   216  GLY216     -0.2717
    175  N         14.7200   60.1260    8.7130 N.am  217  ILE217     -0.1965
    176  CA        14.7070   58.7370    8.2550 C.3   217  ILE217      0.1727
    177  C         15.7330   58.5180    7.1590 C.2   217  ILE217      0.2616
    178  O         15.7400   59.2370    6.1510 O.2   217  ILE217     -0.2715
    179  CB        13.3230   58.1800    7.9000 C.3   217  ILE217      0.0290
    180  CG1       12.1870   58.7490    8.8490 C.3   217  ILE217      0.0022
    181  CG2       13.3540   56.6250    7.7830 C.3   217  ILE217      0.0023
    182  CD1       12.2680   58.3410   10.3370 C.3   217  ILE217      0.0001
    183  N         16.5760   57.4940    7.3520 N.am  218  TYR218     -0.1974
    184  CA        17.6800   57.2270    6.4370 C.3   218  TYR218      0.1639
    185  C         17.5960   55.8430    5.8790 C.2   218  TYR218      0.2290
    186  O         17.1990   54.9170    6.5890 O.2   218  TYR218     -0.2864
    187  CB        19.0120   57.3610    7.2300 C.3   218  TYR218      0.0560
    188  CG        19.2730   58.7550    7.7600 C.ar  218  TYR218     -0.0198
    189  CD1       20.1400   59.6260    7.0940 C.ar  218  TYR218     -0.0009
    190  CD2       18.6380   59.2200    8.9200 C.ar  218  TYR218     -0.0009
    191  CE1       20.3590   60.9150    7.5590 C.ar  218  TYR218      0.0417
    192  CE2       18.8000   60.5340    9.3570 C.ar  218  TYR218      0.0417
    193  CZ        19.6630   61.3830    8.6640 C.ar  218  TYR218      0.1957
    194  OH        19.8990   62.6710    9.0770 O.3   218  TYR218     -0.2866
@<TRIPOS>BOND
     1    19    18    1
     2     4     3    2
     3    18    17    1
     4     3     2    1
     5    17    16    1
     6     2     1    1
     7     2     5    1
     8    16    15    1
     9    15    12    1
    10    11    12    1
    11     5     6    1
    12    12    13    1
    13     8     6   ar
    14     8    10   ar
    15    27    26   ar
    16     6     7   ar
    17    20    13   am
    18    20    21    1
    19    13    14    2
    20    47    46    1
    21    24    21    1
    22    24    25    1
    23    10     9   ar
    24     7     9   ar
    25    21    22    1
    26   118   117    2
    27    26    25    1
    28    26    28   ar
    29    46    44   ar
    30    46    45   ar
    31    44    42   ar
    32   114   112   am
    33   113   112    2
    34    58    56    1
    35   112   111    1
    36   117   116    1
    37    45    43   ar
    38   119   120    1
    39   119   116    1
    40    42    41   ar
    41   111   110    1
    42    22    29   am
    43    22    23    2
    44    29    30    1
    45    43    41   ar
    46   116   115    1
    47    34    33    1
    48    56    55    2
    49    56    57    1
    50    41    40    1
    51    36    37    1
    52    36    31   am
    53    37    38    1
    54    37    40    1
    55    55    54    1
    56    38    39    2
    57   108   109    2
    58   108   107    1
    59   110   107    1
    60    35    33    1
    61    30    33    1
    62    30    31    1
    63    31    32    2
    64   124   123    2
    65   107   106    1
    66   131   130    2
    67    53    54    1
    68    53    52    1
    69   133   132    1
    70    48    49    1
    71   129   130    1
    72   129   132    1
    73   129   128    1
    74   123   128   am
    75   123   122    1
    76   130   134   am
    77   121   122    1
    78   106   102   am
    79    49    52    1
    80    49    50    1
    81   103   102    2
    82   125   122    1
    83   125   126    1
    84   125   127    1
    85   102   101    1
    86   138   135    1
    87   138   139    1
    88   140   139   ar
    89   140   142   ar
    90   134   135    1
    91   135   136    1
    92    62    61    2
    93   139   141   ar
    94    50    51    2
    95   142   143   ar
    96    76    78   ar
    97    76    74   ar
    98   101   104    1
    99   101   100    1
   100   105   104    1
   101   105   170    1
   102    61    60    1
   103    78    77   ar
   104   141   143   ar
   105   141   144   ar
   106    74    73   ar
   107   136   148   am
   108   136   137    2
   109   100    97   am
   110   185   184    1
   111   185   186    2
   112   143   145   ar
   113   148   149    1
   114   151   150    2
   115   178   177    2
   116    77    75   ar
   117   170   169    1
   118   184   187    1
   119   184   183    1
   120   144   146   ar
   121    73    75   ar
   122    73    72    1
   123    60    59    1
   124    60    63    1
   125    64    63    1
   126    64    65    1
   127   145   147   ar
   128    99    96    1
   129    72    69    1
   130    86    84    1
   131   189   191   ar
   132   189   188   ar
   133    97    96    1
   134    97    98    2
   135   177   183   am
   136   177   176    1
   137   150   149    1
   138   150   152   am
   139   187   188    1
   140    67    65   ar
   141    82    81    2
   142   146   147   ar
   143   164   163    2
   144   191   193   ar
   145    96    95    1
   146   161   162    1
   147   161   154   am
   148    83    85    1
   149    83    84    1
   150    83    80    1
   151   162   163    1
   152   188   190   ar
   153   181   179    1
   154    65    66   ar
   155   179   176    1
   156   179   180    1
   157   163   165   am
   158   169   166    1
   159    79    80    1
   160    79    70   am
   161   176   175    1
   162    69    70    1
   163    69    68    1
   164   152   153    1
   165   153   154    1
   166   153   156    1
   167    81    80    1
   168   193   194    1
   169   193   192   ar
   170   154   155    2
   171   165   166    1
   172   175   173   am
   173    70    71    2
   174   180   182    1
   175   190   192   ar
   176   157   156    1
   177   157   158    1
   178    95    89   am
   179   166   167    1
   180    90    89    2
   181    89    88    1
   182   158   159   ar
   183   158   160   ar
   184   173   172    1
   185   173   174    2
   186   172   171    1
   187   167   168    2
   188    93    92   ar
   189    94    92   ar
   190    92    91    1
   191    91    88    1
   192    88    87    1
