@<TRIPOS>MOLECULE
tmp/2xbyA00.pdb
 194 192 0 0 0
SMALL
GASTEIGER

@<TRIPOS>ATOM
      1  N         14.6210   58.2700   -4.6960 N.3    42  HIS42      -0.1241
      2  CA        13.5550   59.2700   -4.9190 C.3    42  HIS42       0.1621
      3  C         14.0160   60.5800   -5.5900 C.2    42  HIS42       0.2264
      4  O         13.1960   61.3110   -6.1650 O.2    42  HIS42      -0.2867
      5  CB        12.7900   59.5710   -3.6160 C.3    42  HIS42       0.0745
      6  CG        13.4370   60.6120   -2.7490 C.ar   42  HIS42       0.0817
      7  ND1       14.1340   60.2990   -1.6020 N.ar   42  HIS42      -0.2268
      8  CD2       13.5100   61.9600   -2.8790 C.ar   42  HIS42       0.1154
      9  CE1       14.6130   61.4070   -1.0660 C.ar   42  HIS42       0.1986
     10  NE2       14.2470   62.4290   -1.8220 N.ar   42  HIS42      -0.2212
     11  N          7.2600   55.2540   -4.1010 N.3    82  LYS82      -0.1231
     12  CA         6.8830   56.4220   -3.3180 C.3    82  LYS82       0.1693
     13  C          5.8090   56.0890   -2.3130 C.2    82  LYS82       0.2592
     14  O          5.5650   56.8550   -1.3880 O.2    82  LYS82      -0.2718
     15  CB         6.4090   57.5610   -4.2330 C.3    82  LYS82       0.0285
     16  CG         7.5450   58.4720   -4.7290 C.3    82  LYS82       0.0035
     17  CD         7.0650   59.5010   -5.7480 C.3    82  LYS82       0.0206
     18  CE         6.5780   58.8500   -7.0280 C.3    82  LYS82       0.1093
     19  NZ         6.1720   59.8720   -8.0350 N.3    82  LYS82      -0.1314
     20  N          5.1600   54.9430   -2.4730 N.am   83  GLU83      -0.1966
     21  CA         4.1140   54.5740   -1.5270 C.3    83  GLU83       0.1733
     22  C          4.6580   54.4230   -0.1120 C.2    83  GLU83       0.2617
     23  O          4.0600   54.9380    0.8430 O.2    83  GLU83      -0.2715
     24  CB         3.4310   53.2770   -1.9690 C.3    83  GLU83       0.0429
     25  CG         2.3670   52.7770   -1.0220 C.3    83  GLU83       0.1163
     26  CD         1.7110   51.4930   -1.4950 C.2    83  GLU83       0.3649
     27  OE1        2.4210   50.4790   -1.6560 O.co2  83  GLU83      -0.2457
     28  OE2        0.4810   51.5000   -1.7030 O.co2  83  GLU83      -0.2457
     29  N          5.8160   53.7640    0.0230 N.am   84  THR84      -0.1937
     30  CA         6.4290   53.5210    1.3270 C.3    84  THR84       0.2028
     31  C          7.7930   54.2050    1.5570 C.2    84  THR84       0.2642
     32  O          8.2650   54.2750    2.6860 O.2    84  THR84      -0.2714
     33  CB         6.7200   52.0490    1.4930 C.3    84  THR84       0.1808
     34  OG1        7.5200   51.6400    0.3800 O.3    84  THR84      -0.2208
     35  CG2        5.3990   51.2020    1.5390 C.3    84  THR84       0.0379
     36  N          8.4100   54.6770    0.4840 N.am   85  TYR85      -0.1973
     37  CA         9.7650   55.2600    0.5190 C.3    85  TYR85       0.1639
     38  C         10.8330   54.2140    0.9790 C.2    85  TYR85       0.2290
     39  O         11.9430   54.5530    1.4020 O.2    85  TYR85      -0.2864
     40  CB         9.7990   56.5450    1.3730 C.3    85  TYR85       0.0560
     41  CG         9.7760   57.7970    0.5000 C.ar   85  TYR85      -0.0198
     42  CD1        8.6610   58.1110   -0.2860 C.ar   85  TYR85      -0.0009
     43  CD2       10.8810   58.6470    0.4370 C.ar   85  TYR85      -0.0009
     44  CE1        8.6490   59.2330   -1.1070 C.ar   85  TYR85       0.0417
     45  CE2       10.8730   59.7730   -0.3840 C.ar   85  TYR85       0.0417
     46  CZ         9.7620   60.0580   -1.1500 C.ar   85  TYR85       0.1957
     47  OH         9.7720   61.1650   -1.9690 O.3    85  TYR85      -0.2866
     48  N         17.8690   73.3890    2.5720 N.3   132  ARG132     -0.1245
     49  CA        17.2840   74.5040    3.3310 C.3   132  ARG132      0.1563
     50  C         17.8160   74.6380    4.7630 C.2   132  ARG132      0.2260
     51  O         18.2020   73.6430    5.4000 O.2   132  ARG132     -0.2867
     52  CB        15.7620   74.3730    3.3770 C.3   132  ARG132      0.0307
     53  CG        15.0770   74.4470    2.0060 C.3   132  ARG132      0.0489
     54  CD        13.5620   74.3380    2.1420 C.3   132  ARG132      0.2205
     55  NE        12.9020   74.2030    0.8440 N.pl3 132  ARG132     -0.0865
     56  CZ        11.5850   74.0980    0.6610 C.cat 132  ARG132      0.5346
     57  NH1       10.7510   74.1130    1.6940 N.pl3 132  ARG132      0.1354
     58  NH2       11.0960   73.9690   -0.5660 N.pl3 132  ARG132      0.1354
     59  N         12.6150   74.8600    7.5070 N.3   135  GLU135     -0.1245
     60  CA        11.6050   74.1020    6.7900 C.3   135  GLU135      0.1567
     61  C         11.0420   74.7700    5.5230 C.2   135  GLU135      0.2260
     62  O         10.9340   74.1180    4.4770 O.2   135  GLU135     -0.2867
     63  CB        10.4550   73.7180    7.7330 C.3   135  GLU135      0.0388
     64  CG         9.5660   72.5810    7.1880 C.3   135  GLU135      0.1160
     65  CD         8.4000   72.1870    8.1230 C.2   135  GLU135      0.3649
     66  OE1        8.6180   71.9340    9.3320 O.co2 135  GLU135     -0.2457
     67  OE2        7.2590   72.1170    7.6220 O.co2 135  GLU135     -0.2457
     68  N          4.3280   57.3770    9.4510 N.3   162  PHE162     -0.1227
     69  CA         4.5560   56.3490    8.4380 C.3   162  PHE162      0.1736
     70  C          5.4030   55.1770    8.9610 C.2   162  PHE162      0.2595
     71  O          6.1370   55.2920    9.9510 O.2   162  PHE162     -0.2718
     72  CB         5.2580   57.0010    7.2170 C.3   162  PHE162      0.0547
     73  CG         4.5530   58.2540    6.6860 C.ar  162  PHE162     -0.0202
     74  CD1        3.4430   58.1480    5.8540 C.ar  162  PHE162     -0.0042
     75  CD2        5.0120   59.5240    7.0240 C.ar  162  PHE162     -0.0042
     76  CE1        2.8020   59.2960    5.3640 C.ar  162  PHE162     -0.0003
     77  CE2        4.3900   60.6670    6.5480 C.ar  162  PHE162     -0.0003
     78  CZ         3.2760   60.5600    5.7090 C.ar  162  PHE162     -0.0000
     79  N          5.3080   54.0500    8.2710 N.am  163  ILE163     -0.1980
     80  CA         6.0610   52.8710    8.6620 C.3   163  ILE163      0.1595
     81  C          7.5890   52.9780    8.5410 C.2   163  ILE163      0.2287
     82  O          8.1300   53.3680    7.4990 O.2   163  ILE163     -0.2864
     83  CB         5.5670   51.6620    7.8640 C.3   163  ILE163      0.0276
     84  CG1        4.1370   51.3230    8.3230 C.3   163  ILE163      0.0022
     85  CG2        6.4990   50.4520    8.0810 C.3   163  ILE163      0.0022
     86  CD1        3.3570   50.5880    7.2790 C.3   163  ILE163      0.0001
     87  N         18.5070   69.3500   12.2290 N.3   179  ASP179     -0.1225
     88  CA        18.0410   68.2140   11.4290 C.3   179  ASP179      0.1805
     89  C         18.4680   68.4680    9.9720 C.2   179  ASP179      0.2598
     90  O         19.0170   69.5390    9.6530 O.2   179  ASP179     -0.2718
     91  CB        16.5140   68.1440   11.5350 C.3   179  ASP179      0.1424
     92  CG        15.9110   66.8580   10.9510 C.2   179  ASP179      0.3668
     93  OD1       16.6310   65.9360   10.5080 O.co2 179  ASP179     -0.2456
     94  OD2       14.6700   66.7830   10.9550 O.co2 179  ASP179     -0.2456
     95  N         18.2540   67.4850    9.1010 N.am  180  ALA180     -0.1966
     96  CA        18.5750   67.6610    7.7000 C.3   180  ALA180      0.1728
     97  C         17.2950   68.2280    7.1140 C.2   180  ALA180      0.2616
     98  O         16.3110   68.3940    7.8460 O.2   180  ALA180     -0.2715
     99  CB        18.9450   66.3250    7.0480 C.3   180  ALA180      0.0334
    100  N         17.2820   68.5720    5.8290 N.am  181  CYS181     -0.1954
    101  CA        16.0500   69.1250    5.2760 C.3   181  CYS181      0.1843
    102  C         15.9600   68.9940    3.7590 C.2   181  CYS181      0.2625
    103  O         16.8160   68.3640    3.1270 O.2   181  CYS181     -0.2714
    104  CB        15.9140   70.5890    5.7300 C.3   181  CYS181      0.0997
    105  SG        14.2700   71.3860    5.6220 S.3   181  CYS181     -0.0797
    106  N         14.8890   69.5400    3.1810 N.am  182  GLN182     -0.1977
    107  CA        14.6990   69.4930    1.7310 C.3   182  GLN182      0.1601
    108  C         15.9510   70.0640    1.0750 C.2   182  GLN182      0.2287
    109  O         16.3730   71.1780    1.3890 O.2   182  GLN182     -0.2864
    110  CB        13.4820   70.3350    1.3190 C.3   182  GLN182      0.0394
    111  CG        13.2890   70.5160   -0.1980 C.3   182  GLN182      0.0908
    112  CD        12.9400   69.2120   -0.9080 C.2   182  GLN182      0.2608
    113  OE1       11.9730   68.5410   -0.5410 O.2   182  GLN182     -0.2717
    114  NE2       13.7190   68.8560   -1.9330 N.am  182  GLN182     -0.0878
    115  N         18.4990   65.5970    0.7710 N.3   185  SER185     -0.1217
    116  CA        18.1600   64.2290    0.3620 C.3   185  SER185      0.1889
    117  C         19.1880   63.6270   -0.6070 C.2   185  SER185      0.2288
    118  O         19.6460   64.2900   -1.5230 O.2   185  SER185     -0.2866
    119  CB        16.7790   64.1960   -0.3150 C.3   185  SER185      0.2089
    120  OG        15.7250   64.4270    0.5900 O.3   185  SER185     -0.2183
    121  N         20.4900   60.3100    3.2820 N.3   203  VAL203     -0.1231
    122  CA        19.4140   61.2180    3.7020 C.3   203  VAL203      0.1692
    123  C         18.1790   60.8370    2.8760 C.2   203  VAL203      0.2593
    124  O         18.2230   60.8800    1.6380 O.2   203  VAL203     -0.2718
    125  CB        19.8270   62.6870    3.4360 C.3   203  VAL203      0.0266
    126  CG1       18.6830   63.6450    3.8150 C.3   203  VAL203      0.0020
    127  CG2       21.1250   62.9990    4.2540 C.3   203  VAL203      0.0020
    128  N         17.0950   60.4530    3.5550 N.am  204  SER204     -0.1938
    129  CA        15.8900   59.9750    2.8600 C.3   204  SER204      0.2055
    130  C         14.6140   60.8200    3.0000 C.2   204  SER204      0.2643
    131  O         14.1500   61.3870    2.0050 O.2   204  SER204     -0.2714
    132  CB        15.6140   58.5160    3.2720 C.3   204  SER204      0.2130
    133  OG        14.6190   57.9380    2.4220 O.3   204  SER204     -0.2179
    134  N         14.0410   60.9130    4.2020 N.am  205  TRP205     -0.1959
    135  CA        12.8350   61.7320    4.3780 C.3   205  TRP205      0.1771
    136  C         12.6270   62.1550    5.8330 C.2   205  TRP205      0.2620
    137  O         13.3720   61.7390    6.7280 O.2   205  TRP205     -0.2715
    138  CB        11.5760   60.9660    3.8900 C.3   205  TRP205      0.0590
    139  CG        11.3360   59.6320    4.5940 C.ar  205  TRP205      0.0006
    140  CD1       11.8640   58.4180    4.2560 C.ar  205  TRP205      0.0946
    141  CD2       10.4550   59.3870    5.6990 C.ar  205  TRP205      0.0152
    142  NE1       11.3570   57.4310    5.0690 N.ar  205  TRP205     -0.2442
    143  CE2       10.4910   58.0020    5.9660 C.ar  205  TRP205      0.0810
    144  CE3        9.6250   60.2030    6.4800 C.ar  205  TRP205      0.0012
    145  CZ2        9.7340   57.4160    6.9800 C.ar  205  TRP205      0.0191
    146  CZ3        8.8690   59.6140    7.4810 C.ar  205  TRP205      0.0001
    147  CH2        8.9290   58.2350    7.7150 C.ar  205  TRP205      0.0015
    148  N         11.6060   62.9810    6.0480 N.am  206  GLY206     -0.1940
    149  CA        11.2620   63.4500    7.3850 C.3   206  GLY206      0.2014
    150  C          9.9700   64.2460    7.2830 C.2   206  GLY206      0.2639
    151  O          9.6760   64.7730    6.2190 O.2   206  GLY206     -0.2714
    152  N          9.1910   64.3160    8.3570 N.am  207  GLU207     -0.1963
    153  CA         7.9290   65.0730    8.3400 C.3   207  GLU207      0.1733
    154  C          8.3010   66.5020    8.7240 C.2   207  GLU207      0.2617
    155  O          8.5060   66.8170    9.9010 O.2   207  GLU207     -0.2715
    156  CB         6.9130   64.4540    9.3190 C.3   207  GLU207      0.0429
    157  CG         6.6150   62.9810    8.9990 C.3   207  GLU207      0.1163
    158  CD         5.5700   62.3620    9.9280 C.2   207  GLU207      0.3649
    159  OE1        4.4570   62.9420   10.0770 O.co2 207  GLU207     -0.2457
    160  OE2        5.8620   61.2860   10.5020 O.co2 207  GLU207     -0.2457
    161  N          8.4100   67.3510    7.7020 N.am  208  GLY208     -0.1940
    162  CA         8.8330   68.7250    7.9130 C.3   208  GLY208      0.2014
    163  C         10.3400   68.6350    8.0590 C.2   208  GLY208      0.2639
    164  O         10.9790   67.7610    7.4430 O.2   208  GLY208     -0.2714
    165  N         10.9060   69.5230    8.8720 N.am  209  CYS209     -0.1967
    166  CA        12.3480   69.5550    9.1490 C.3   209  CYS209      0.1712
    167  C         12.4950   70.0950   10.5700 C.2   209  CYS209      0.2296
    168  O         11.8420   71.0870   10.9390 O.2   209  CYS209     -0.2864
    169  CB        13.0760   70.5100    8.2080 C.3   209  CYS209      0.0983
    170  SG        12.9660   70.0620    6.4610 S.3   209  CYS209     -0.0798
    171  N         14.8690   62.5350   11.8400 N.3   216  GLY216     -0.1210
    172  CA        15.2610   62.3930   10.4380 C.3   216  GLY216      0.1956
    173  C         15.3190   60.9070   10.0620 C.2   216  GLY216      0.2612
    174  O         15.7660   60.0880   10.8750 O.2   216  GLY216     -0.2717
    175  N         14.8670   60.5380    8.8550 N.am  217  ILE217     -0.1965
    176  CA        14.8940   59.1230    8.4370 C.3   217  ILE217      0.1727
    177  C         15.9360   58.9010    7.3240 C.2   217  ILE217      0.2616
    178  O         15.9860   59.6400    6.3170 O.2   217  ILE217     -0.2715
    179  CB        13.4930   58.6340    7.9270 C.3   217  ILE217      0.0290
    180  CG1       12.3560   59.2300    8.7920 C.3   217  ILE217      0.0022
    181  CG2       13.4330   57.0820    7.9530 C.3   217  ILE217      0.0023
    182  CD1       12.3830   58.8220   10.2580 C.3   217  ILE217      0.0001
    183  N         16.7450   57.8570    7.4990 N.am  218  TYR218     -0.1974
    184  CA        17.8310   57.5200    6.5860 C.3   218  TYR218      0.1639
    185  C         17.7610   56.0980    6.0360 C.2   218  TYR218      0.2290
    186  O         17.3230   55.1820    6.7310 O.2   218  TYR218     -0.2864
    187  CB        19.1740   57.6730    7.3420 C.3   218  TYR218      0.0560
    188  CG        19.4360   59.0900    7.8770 C.ar  218  TYR218     -0.0198
    189  CD1       20.3070   59.9580    7.2110 C.ar  218  TYR218     -0.0009
    190  CD2       18.7880   59.5720    9.0230 C.ar  218  TYR218     -0.0009
    191  CE1       20.5220   61.2700    7.6710 C.ar  218  TYR218      0.0417
    192  CE2       18.9920   60.8770    9.4860 C.ar  218  TYR218      0.0417
    193  CZ        19.8640   61.7290    8.8090 C.ar  218  TYR218      0.1957
    194  OH        20.0970   63.0310    9.2650 O.3   218  TYR218     -0.2866
@<TRIPOS>BOND
     1    19    18    1
     2    18    17    1
     3     4     3    2
     4    17    16    1
     5     3     2    1
     6     2     1    1
     7     2     5    1
     8    16    15    1
     9    15    12    1
    10    11    12    1
    11     5     6    1
    12    12    13    1
    13     8     6   ar
    14     8    10   ar
    15     6     7   ar
    16    20    13   am
    17    20    21    1
    18    13    14    2
    19    47    46    1
    20    24    21    1
    21    24    25    1
    22   114   112   am
    23    10     9   ar
    24    28    26   ar
    25    27    26   ar
    26     7     9   ar
    27    21    22    1
    28   118   117    2
    29    26    25    1
    30    46    44   ar
    31    46    45   ar
    32    44    42   ar
    33   112   113    2
    34   112   111    1
    35   117   116    1
    36    58    56    1
    37    45    43   ar
    38   119   116    1
    39   119   120    1
    40    42    41   ar
    41   111   110    1
    42    22    29   am
    43    22    23    2
    44    29    30    1
    45   116   115    1
    46    34    33    1
    47    43    41   ar
    48    36    37    1
    49    36    31   am
    50    41    40    1
    51    37    38    1
    52    37    40    1
    53    56    55    2
    54    56    57    1
    55    55    54    1
    56    38    39    2
    57   108   109    2
    58   108   107    1
    59   110   107    1
    60    30    33    1
    61    30    31    1
    62    33    35    1
    63    31    32    2
    64   124   123    2
    65   107   106    1
    66   131   130    2
    67    53    54    1
    68    53    52    1
    69   133   132    1
    70    48    49    1
    71   129   130    1
    72   129   132    1
    73   129   128    1
    74   123   128   am
    75   123   122    1
    76   130   134   am
    77   103   102    2
    78   106   102   am
    79   121   122    1
    80    49    52    1
    81    49    50    1
    82   125   122    1
    83   125   126    1
    84   125   127    1
    85   102   101    1
    86   138   135    1
    87   138   139    1
    88   134   135    1
    89   140   139   ar
    90   140   142   ar
    91   135   136    1
    92    62    61    2
    93   139   141   ar
    94    50    51    2
    95   142   143   ar
    96   101   104    1
    97   101   100    1
    98    76    78   ar
    99    76    74   ar
   100    61    60    1
   101   105   104    1
   102   105   170    1
   103   141   143   ar
   104   141   144   ar
   105    78    77   ar
   106   100    97   am
   107   136   148   am
   108   136   137    2
   109    74    73   ar
   110   143   145   ar
   111   185   184    1
   112   185   186    2
   113   148   149    1
   114   151   150    2
   115   178   177    2
   116   170   169    1
   117   144   146   ar
   118    77    75   ar
   119   184   187    1
   120   184   183    1
   121    73    75   ar
   122    73    72    1
   123    60    59    1
   124    60    63    1
   125   145   147   ar
   126    99    96    1
   127    97    96    1
   128    97    98    2
   129    64    63    1
   130    64    65    1
   131   189   191   ar
   132   189   188   ar
   133    72    69    1
   134    86    84    1
   135   150   149    1
   136   150   152   am
   137   177   183   am
   138   177   176    1
   139   187   188    1
   140   164   163    2
   141   146   147   ar
   142    82    81    2
   143    67    65   ar
   144   191   193   ar
   145    96    95    1
   146   161   162    1
   147   161   154   am
   148    83    85    1
   149    83    84    1
   150    83    80    1
   151   188   190   ar
   152   162   163    1
   153   179   181    1
   154   179   176    1
   155   179   180    1
   156   163   165   am
   157    65    66   ar
   158   169   166    1
   159    79    80    1
   160    79    70   am
   161   153   152    1
   162   153   154    1
   163   153   156    1
   164   176   175    1
   165    69    70    1
   166    69    68    1
   167    81    80    1
   168   154   155    2
   169   180   182    1
   170   193   194    1
   171   193   192   ar
   172   175   173   am
   173   165   166    1
   174    70    71    2
   175   157   156    1
   176   157   158    1
   177   190   192   ar
   178    95    89   am
   179   166   167    1
   180    90    89    2
   181   158   159   ar
   182   158   160   ar
   183    89    88    1
   184   173   172    1
   185   173   174    2
   186   172   171    1
   187    93    92   ar
   188   167   168    2
   189    92    94   ar
   190    92    91    1
   191    88    91    1
   192    88    87    1
