@<TRIPOS>MOLECULE
tmp/2xc1C00.pdb
 103 103 0 0 0
SMALL
GASTEIGER

@<TRIPOS>ATOM
      1  N        -45.8350   48.0690  -37.2290 N.3   310  TRP310     -0.1241
      2  CA       -44.3670   47.9790  -37.3040 C.3   310  TRP310      0.1605
      3  C        -43.9880   47.3840  -38.6640 C.2   310  TRP310      0.2264
      4  O        -44.6360   46.4550  -39.1510 O.2   310  TRP310     -0.2867
      5  CB       -43.7760   47.0980  -36.1940 C.3   310  TRP310      0.0550
      6  CG       -43.6620   47.7660  -34.8440 C.ar  310  TRP310      0.0003
      7  CD1      -44.6830   48.0800  -34.0200 C.ar  310  TRP310      0.0946
      8  CD2      -42.4600   48.1950  -34.1840 C.ar  310  TRP310      0.0152
      9  NE1      -44.2040   48.6930  -32.8800 N.ar  310  TRP310     -0.2442
     10  CE2      -42.8410   48.7540  -32.9460 C.ar  310  TRP310      0.0810
     11  CE3      -41.0970   48.1190  -34.4950 C.ar  310  TRP310      0.0012
     12  CZ2      -41.9320   49.2620  -32.0460 C.ar  310  TRP310      0.0191
     13  CZ3      -40.1840   48.6370  -33.5980 C.ar  310  TRP310      0.0001
     14  CH2      -40.6010   49.2070  -32.3830 C.ar  310  TRP310      0.0015
     15  N        -39.8060   45.6160  -37.2110 N.3   335  ASN335     -0.1240
     16  CA       -39.6220   44.4610  -36.3890 C.3   335  ASN335      0.1653
     17  C        -39.8050   43.2300  -37.2690 C.2   335  ASN335      0.2266
     18  O        -40.9100   42.9660  -37.7810 O.2   335  ASN335     -0.2867
     19  CB       -40.6150   44.4680  -35.2300 C.3   335  ASN335      0.1155
     20  CG       -40.4680   43.2760  -34.3050 C.2   335  ASN335      0.2627
     21  OD1      -39.6320   42.4130  -34.5120 O.2   335  ASN335     -0.2716
     22  ND2      -41.2800   43.2530  -33.2420 N.am  335  ASN335     -0.0877
     23  N        -39.7480   40.1680  -36.4180 N.3   337  GLY337     -0.1210
     24  CA       -40.3640   39.0400  -35.7380 C.3   337  GLY337      0.1956
     25  C        -39.3350   37.9710  -35.4300 C.2   337  GLY337      0.2611
     26  O        -38.1520   38.0900  -35.7920 O.2   337  GLY337     -0.2717
     27  N        -39.7600   36.9010  -34.7740 N.am  338  PHE338     -0.1976
     28  CA       -38.8200   35.7980  -34.4930 C.3   338  PHE338      0.1639
     29  C        -38.2170   35.2950  -35.7920 C.2   338  PHE338      0.2290
     30  O        -37.0670   34.8010  -35.8260 O.2   338  PHE338     -0.2864
     31  CB       -39.5080   34.6480  -33.7710 C.3   338  PHE338      0.0560
     32  CG       -40.2510   35.0600  -32.5240 C.ar  338  PHE338     -0.0200
     33  CD1      -39.7950   36.1250  -31.7440 C.ar  338  PHE338     -0.0042
     34  CD2      -41.3990   34.3920  -32.1320 C.ar  338  PHE338     -0.0042
     35  CE1      -40.4830   36.5250  -30.6040 C.ar  338  PHE338     -0.0003
     36  CE2      -42.0840   34.7780  -30.9860 C.ar  338  PHE338     -0.0003
     37  CZ       -41.6210   35.8510  -30.2220 C.ar  338  PHE338     -0.0000
     38  N        -36.2210   45.9980  -34.2310 N.3   372  TYR372     -0.1227
     39  CA       -35.9730   44.7000  -33.6170 C.3   372  TYR372      0.1736
     40  C        -35.9230   43.6170  -34.6650 C.2   372  TYR372      0.2595
     41  O        -36.5650   43.7380  -35.6850 O.2   372  TYR372     -0.2718
     42  CB       -37.1060   44.3330  -32.6790 C.3   372  TYR372      0.0548
     43  CG       -37.1940   45.2290  -31.4610 C.ar  372  TYR372     -0.0200
     44  CD1      -37.7940   46.4820  -31.5290 C.ar  372  TYR372     -0.0009
     45  CD2      -36.6790   44.8090  -30.2450 C.ar  372  TYR372     -0.0009
     46  CE1      -37.8670   47.3110  -30.3970 C.ar  372  TYR372      0.0417
     47  CE2      -36.7440   45.6070  -29.1210 C.ar  372  TYR372      0.0417
     48  CZ       -37.3190   46.8470  -29.1900 C.ar  372  TYR372      0.1957
     49  OH       -37.3630   47.5950  -28.0370 O.3   372  TYR372     -0.2866
     50  N        -35.2210   42.5290  -34.3450 N.am  373  ASN373     -0.1974
     51  CA       -35.2880   41.2770  -35.1010 C.3   373  ASN373      0.1688
     52  C        -34.9650   41.3820  -36.6100 C.2   373  ASN373      0.2292
     53  O        -35.5880   40.7170  -37.4250 O.2   373  ASN373     -0.2864
     54  CB       -36.6880   40.6620  -34.9130 C.3   373  ASN373      0.1181
     55  CG       -36.9020   40.1050  -33.5160 C.2   373  ASN373      0.2629
     56  OD1      -36.0860   39.3400  -33.0300 O.2   373  ASN373     -0.2716
     57  ND2      -38.0150   40.4520  -32.8890 N.am  373  ASN373     -0.0877
     58  N        -44.0710   54.4260  -27.2360 N.3   405  GLY405     -0.1210
     59  CA       -44.2170   53.3990  -28.2840 C.3   405  GLY405      0.1956
     60  C        -43.3520   52.1510  -28.1810 C.2   405  GLY405      0.2612
     61  O        -43.4100   51.2700  -29.0530 O.2   405  GLY405     -0.2717
     62  N        -42.5430   52.0590  -27.1330 N.am  406  ASP406     -0.1959
     63  CA       -41.5490   50.9930  -27.0270 C.3   406  ASP406      0.1840
     64  C        -41.4780   50.5350  -25.5630 C.2   406  ASP406      0.2622
     65  O        -42.2580   50.9850  -24.7480 O.2   406  ASP406     -0.2715
     66  CB       -40.1770   51.5000  -27.4980 C.3   406  ASP406      0.1450
     67  CG       -39.3820   50.4340  -28.2380 C.2   406  ASP406      0.3671
     68  OD1      -39.1860   49.3510  -27.6710 O.co2 406  ASP406     -0.2456
     69  OD2      -38.9760   50.6780  -29.4020 O.co2 406  ASP406     -0.2456
     70  N        -40.5390   49.6530  -25.2350 N.am  407  TYR407     -0.1960
     71  CA       -40.3890   49.2110  -23.8560 C.3   407  TYR407      0.1756
     72  C        -39.9930   50.3690  -22.9700 C.2   407  TYR407      0.2461
     73  O        -39.1390   51.1890  -23.3550 O.2   407  TYR407     -0.2730
     74  CB       -39.3070   48.1410  -23.7270 C.3   407  TYR407      0.0574
     75  CG       -39.6680   46.8200  -24.3420 C.ar  407  TYR407     -0.0198
     76  CD1      -40.6710   46.0220  -23.8080 C.ar  407  TYR407     -0.0009
     77  CD2      -38.9970   46.3590  -25.4550 C.ar  407  TYR407     -0.0009
     78  CE1      -40.9840   44.7950  -24.3790 C.ar  407  TYR407      0.0417
     79  CE2      -39.3120   45.1610  -26.0300 C.ar  407  TYR407      0.0417
     80  CZ       -40.2990   44.3770  -25.4930 C.ar  407  TYR407      0.1957
     81  OH       -40.5740   43.1580  -26.1040 O.3   407  TYR407     -0.2866
     82  N        -40.5510   50.4210  -21.7510 N.am  408  PRO408     -0.2727
     83  CA       -40.1440   51.4850  -20.8300 C.3   408  PRO408      0.1402
     84  C        -38.7460   51.2970  -20.2550 C.2   408  PRO408      0.2269
     85  O        -38.2330   50.1890  -20.2040 O.2   408  PRO408     -0.2865
     86  CB       -41.2140   51.4390  -19.7310 C.3   408  PRO408      0.0296
     87  CG       -41.8360   50.1140  -19.8190 C.3   408  PRO408      0.0237
     88  CD       -41.6960   49.6430  -21.2380 C.3   408  PRO408      0.0939
     89  N        -33.8760   44.3500  -25.8230 N.3   418  PRO418     -0.2116
     90  CA       -33.6350   43.0180  -26.4170 C.3   418  PRO418      0.1372
     91  C        -33.8210   43.0570  -27.9530 C.2   418  PRO418      0.2244
     92  O        -34.7620   42.4860  -28.5080 O.2   418  PRO418     -0.2868
     93  CB       -34.6990   42.1500  -25.7430 C.3   418  PRO418      0.0268
     94  CG       -35.8620   43.1210  -25.5700 C.3   418  PRO418      0.0207
     95  CD       -35.2200   44.4460  -25.2180 C.3   418  PRO418      0.0892
     96  N        -32.2710   41.7720  -30.5240 N.3   420  ASN420     -0.1240
     97  CA       -32.4190   40.4250  -31.0720 C.3   420  ASN420      0.1653
     98  C        -32.0470   40.2870  -32.5810 C.2   420  ASN420      0.2266
     99  O        -32.3440   39.2830  -33.2160 O.2   420  ASN420     -0.2867
    100  CB       -33.8400   39.8960  -30.8060 C.3   420  ASN420      0.1155
    101  CG       -33.9240   39.0230  -29.5750 C.2   420  ASN420      0.2627
    102  OD1      -33.1230   38.0960  -29.3830 O.2   420  ASN420     -0.2716
    103  ND2      -34.9220   39.2840  -28.7510 N.am  420  ASN420     -0.0877
@<TRIPOS>BOND
     1     4     3    2
     2     3     2    1
     3    18    17    2
     4    53    52    2
     5     2     1    1
     6     2     5    1
     7    17    16    1
     8    15    16    1
     9    52    51    1
    10    23    24    1
    11    16    19    1
    12     5     6    1
    13    30    29    2
    14    29    28    1
    15    26    25    2
    16    24    25    1
    17    41    40    2
    18    25    27   am
    19    19    20    1
    20    51    54    1
    21    51    50    1
    22    54    55    1
    23     6     8   ar
    24     6     7   ar
    25    27    28    1
    26    40    50   am
    27    40    39    1
    28    21    20    2
    29    11     8   ar
    30    11    13   ar
    31    28    31    1
    32    20    22   am
    33    38    39    1
    34     8    10   ar
    35     7     9   ar
    36    31    32    1
    37    39    42    1
    38    13    14   ar
    39    55    56    2
    40    55    57   am
    41    99    98    2
    42    10     9   ar
    43    10    12   ar
    44    42    43    1
    45    98    97    1
    46    32    34   ar
    47    32    33   ar
    48    14    12   ar
    49    34    36   ar
    50    33    35   ar
    51    44    43   ar
    52    44    46   ar
    53    43    45   ar
    54    97   100    1
    55    97    96    1
    56    36    37   ar
    57   100   101    1
    58    35    37   ar
    59    46    48   ar
    60    45    47   ar
    61   101   102    2
    62   101   103   am
    63    69    67   ar
    64    48    47   ar
    65    48    49    1
    66    61    60    2
    67    92    91    2
    68    59    60    1
    69    59    58    1
    70    67    68   ar
    71    67    66    1
    72    60    62   am
    73    91    90    1
    74    66    63    1
    75    62    63    1
    76    63    64    1
    77    90    89    1
    78    90    93    1
    79    81    80    1
    80    79    80   ar
    81    79    77   ar
    82    89    95    1
    83    93    94    1
    84    94    95    1
    85    64    70   am
    86    64    65    2
    87    80    78   ar
    88    77    75   ar
    89    70    71    1
    90    78    76   ar
    91    75    76   ar
    92    75    74    1
    93    71    74    1
    94    71    72    1
    95    73    72    2
    96    72    82   am
    97    82    88    1
    98    82    83    1
    99    88    87    1
   100    83    84    1
   101    83    86    1
   102    84    85    2
   103    87    86    1
