@<TRIPOS>MOLECULE
tmp/2xc1A00.pdb
 104 104 0 0 0
SMALL
GASTEIGER

@<TRIPOS>ATOM
      1  N        -28.8840   10.2590  -61.8150 N.3   309  TRP309     -0.1241
      2  CA       -28.5710   11.0570  -60.6300 C.3   309  TRP309      0.1605
      3  C        -28.7880   12.5300  -60.9330 C.2   309  TRP309      0.2264
      4  O        -28.4330   13.0240  -62.0090 O.2   309  TRP309     -0.2867
      5  CB       -27.1090   10.8430  -60.1870 C.3   309  TRP309      0.0550
      6  CG       -26.8700    9.5670  -59.4650 C.ar  309  TRP309      0.0003
      7  CD1      -26.7710    8.3280  -60.0100 C.ar  309  TRP309      0.0946
      8  CD2      -26.7050    9.3970  -58.0610 C.ar  309  TRP309      0.0152
      9  NE1      -26.5450    7.4010  -59.0440 N.ar  309  TRP309     -0.2442
     10  CE2      -26.5000    8.0210  -57.8290 C.ar  309  TRP309      0.0810
     11  CE3      -26.6990   10.2700  -56.9770 C.ar  309  TRP309      0.0012
     12  CZ2      -26.3120    7.4890  -56.5410 C.ar  309  TRP309      0.0191
     13  CZ3      -26.5260    9.7470  -55.6930 C.ar  309  TRP309      0.0001
     14  CH2      -26.2940    8.3730  -55.4900 C.ar  309  TRP309      0.0015
     15  N        -28.2520   16.4210  -61.0490 N.3   311  LYS311     -0.1245
     16  CA       -27.0340   17.2340  -61.1840 C.3   311  LYS311      0.1561
     17  C        -27.4950   18.5930  -61.6230 C.2   311  LYS311      0.2260
     18  O        -28.5470   18.7150  -62.2510 O.2   311  LYS311     -0.2867
     19  CB       -26.0510   16.6520  -62.1970 C.3   311  LYS311      0.0271
     20  CG       -24.7030   17.3730  -62.2650 C.3   311  LYS311      0.0035
     21  CD       -23.8380   16.7490  -63.3440 C.3   311  LYS311      0.0206
     22  CE       -22.3690   17.0420  -63.1230 C.3   311  LYS311      0.1093
     23  NZ       -21.5660   16.4280  -64.2160 N.3   311  LYS311     -0.1314
     24  N        -25.8800   14.0630  -57.4330 N.3   334  ASN334     -0.1240
     25  CA       -24.4090   14.0490  -57.4760 C.3   334  ASN334      0.1653
     26  C        -23.9690   15.2490  -58.3330 C.2   334  ASN334      0.2266
     27  O        -24.1840   15.2620  -59.5510 O.2   334  ASN334     -0.2867
     28  CB       -23.9420   12.7350  -58.0560 C.3   334  ASN334      0.1155
     29  CG       -22.4320   12.5930  -58.0430 C.2   334  ASN334      0.2627
     30  OD1      -21.7080   13.5440  -57.7470 O.2   334  ASN334     -0.2716
     31  ND2      -21.9560   11.4010  -58.3590 N.am  334  ASN334     -0.0877
     32  N        -20.9560   15.9770  -59.1530 N.3   336  GLY336     -0.1210
     33  CA       -19.7130   15.6920  -59.8430 C.3   336  GLY336      0.1956
     34  C        -18.5200   16.4120  -59.2390 C.2   336  GLY336      0.2611
     35  O        -18.6520   17.1520  -58.2690 O.2   336  GLY336     -0.2717
     36  N        -17.3450   16.2220  -59.8210 N.am  337  PHE337     -0.1976
     37  CA       -16.1330   16.9140  -59.3220 C.3   337  PHE337      0.1639
     38  C        -16.3570   18.4230  -59.3650 C.2   337  PHE337      0.2290
     39  O        -15.8310   19.1580  -58.5550 O.2   337  PHE337     -0.2864
     40  CB       -14.8980   16.5650  -60.1640 C.3   337  PHE337      0.0560
     41  CG       -14.6600   15.0800  -60.3350 C.ar  337  PHE337     -0.0200
     42  CD1      -14.9180   14.1910  -59.3070 C.ar  337  PHE337     -0.0042
     43  CD2      -14.1260   14.5850  -61.5240 C.ar  337  PHE337     -0.0042
     44  CE1      -14.6880   12.8090  -59.4780 C.ar  337  PHE337     -0.0003
     45  CE2      -13.9040   13.2250  -61.6910 C.ar  337  PHE337     -0.0003
     46  CZ       -14.1950   12.3390  -60.6620 C.ar  337  PHE337     -0.0000
     47  N        -23.9480   13.3430  -53.2200 N.3   371  TYR371     -0.1227
     48  CA       -22.4960   13.5410  -53.3230 C.3   371  TYR371      0.1736
     49  C        -22.1930   14.8890  -53.9740 C.2   371  TYR371      0.2595
     50  O        -22.9720   15.3700  -54.8150 O.2   371  TYR371     -0.2718
     51  CB       -21.9130   12.4630  -54.2280 C.3   371  TYR371      0.0548
     52  CG       -21.9830   11.0770  -53.6120 C.ar  371  TYR371     -0.0200
     53  CD1      -23.1720   10.3220  -53.6410 C.ar  371  TYR371     -0.0009
     54  CD2      -20.8900   10.5460  -52.9600 C.ar  371  TYR371     -0.0009
     55  CE1      -23.2380    9.0500  -53.0440 C.ar  371  TYR371      0.0417
     56  CE2      -20.9340    9.2880  -52.3630 C.ar  371  TYR371      0.0417
     57  CZ       -22.0950    8.5450  -52.4040 C.ar  371  TYR371      0.1957
     58  OH       -22.0790    7.3210  -51.7750 O.3   371  TYR371     -0.2866
     59  N        -21.0410   15.4490  -53.6280 N.am  372  ASN372     -0.1974
     60  CA       -20.4290   16.5050  -54.4010 C.3   372  ASN372      0.1688
     61  C        -21.3260   17.7320  -54.5520 C.2   372  ASN372      0.2292
     62  O        -21.3550   18.3570  -55.6060 O.2   372  ASN372     -0.2864
     63  CB       -20.0870   15.9630  -55.8010 C.3   372  ASN372      0.1181
     64  CG       -18.8600   15.0970  -55.8050 C.2   372  ASN372      0.2629
     65  OD1      -17.8460   15.4580  -55.2270 O.2   372  ASN372     -0.2716
     66  ND2      -18.9540   13.9310  -56.4730 N.am  372  ASN372     -0.0877
     67  N        -28.0200    0.5910  -54.9920 N.3   404  GLY404     -0.1210
     68  CA       -27.8590    1.7910  -55.8400 C.3   404  GLY404      0.1956
     69  C        -26.6950    2.6800  -55.4510 C.2   404  GLY404      0.2612
     70  O        -26.4650    3.7130  -56.0790 O.2   404  GLY404     -0.2717
     71  N        -25.9350    2.2770  -54.4370 N.am  405  ASP405     -0.1959
     72  CA       -24.8420    3.1150  -53.9350 C.3   405  ASP405      0.1840
     73  C        -23.6270    2.2330  -53.6540 C.2   405  ASP405      0.2622
     74  O        -23.5880    1.0340  -54.0290 O.2   405  ASP405     -0.2715
     75  CB       -25.3120    3.9090  -52.6860 C.3   405  ASP405      0.1450
     76  CG       -24.7530    5.3190  -52.6220 C.2   405  ASP405      0.3671
     77  OD1      -23.5070    5.4480  -52.6500 O.co2 405  ASP405     -0.2456
     78  OD2      -25.5520    6.2920  -52.4820 O.co2 405  ASP405     -0.2456
     79  N        -22.6300    2.8000  -52.9930 N.am  406  TYR406     -0.1960
     80  CA       -21.4090    2.0560  -52.7470 C.3   406  TYR406      0.1756
     81  C        -21.6890    0.9140  -51.7820 C.2   406  TYR406      0.2461
     82  O        -22.4550    1.0590  -50.8380 O.2   406  TYR406     -0.2730
     83  CB       -20.3230    2.9410  -52.1590 C.3   406  TYR406      0.0574
     84  CG       -19.6490    3.9040  -53.1280 C.ar  406  TYR406     -0.0198
     85  CD1      -18.8120    3.4450  -54.1380 C.ar  406  TYR406     -0.0009
     86  CD2      -19.8340    5.2700  -53.0100 C.ar  406  TYR406     -0.0009
     87  CE1      -18.1810    4.3350  -55.0060 C.ar  406  TYR406      0.0417
     88  CE2      -19.2070    6.1660  -53.8700 C.ar  406  TYR406      0.0417
     89  CZ       -18.3830    5.6890  -54.8590 C.ar  406  TYR406      0.1957
     90  OH       -17.7610    6.5690  -55.7000 O.3   406  TYR406     -0.2866
     91  N        -21.0540   -0.2300  -52.0070 N.am  407  PRO407     -0.2727
     92  CA       -21.3060   -1.3110  -51.1030 C.3   407  PRO407      0.1402
     93  C        -20.7250   -1.0600  -49.7250 C.2   407  PRO407      0.2269
     94  O        -19.6750   -0.4180  -49.5740 O.2   407  PRO407     -0.2865
     95  CB       -20.6440   -2.5120  -51.7780 C.3   407  PRO407      0.0296
     96  CG       -19.7090   -1.9730  -52.7740 C.3   407  PRO407      0.0237
     97  CD       -20.2840   -0.6510  -53.1910 C.3   407  PRO407      0.0939
     98  N        -17.4660    8.6500  -49.3700 N.3   417  PRO417     -0.2116
     99  CA       -16.6940    9.7800  -49.8540 C.3   417  PRO417      0.1372
    100  C        -17.6190   10.8340  -50.4320 C.2   417  PRO417      0.2244
    101  O        -17.6380   11.0610  -51.6460 O.2   417  PRO417     -0.2868
    102  CB       -15.8260    9.1590  -50.9400 C.3   417  PRO417      0.0268
    103  CG       -16.7070    8.1100  -51.5240 C.3   417  PRO417      0.0207
    104  CD       -17.4300    7.5340  -50.3320 C.3   417  PRO417      0.0892
@<TRIPOS>BOND
     1    23    22    1
     2    21    22    1
     3    21    20    1
     4    20    19    1
     5    18    17    2
     6    19    16    1
     7     4     3    2
     8     1     2    1
     9    45    43   ar
    10    45    46   ar
    11    17    16    1
    12    43    41   ar
    13    16    15    1
    14     3     2    1
    15    46    44   ar
    16     2     5    1
    17    41    40    1
    18    41    42   ar
    19     5     6    1
    20    40    37    1
    21     7     6   ar
    22     7     9   ar
    23    33    34    1
    24    33    32    1
    25    36    37    1
    26    36    34   am
    27    27    26    2
    28    44    42   ar
    29     6     8   ar
    30    38    37    1
    31    38    39    2
    32    34    35    2
    33     9    10   ar
    34    31    29   am
    35    26    25    1
    36     8    10   ar
    37     8    11   ar
    38    28    29    1
    39    28    25    1
    40    29    30    2
    41    10    12   ar
    42    25    24    1
    43    11    13   ar
    44    12    14   ar
    45    66    64   am
    46    70    69    2
    47    68    69    1
    48    68    67    1
    49    64    63    1
    50    64    65    2
    51    63    60    1
    52    90    89    1
    53    13    14   ar
    54    62    61    2
    55    69    71   am
    56    87    89   ar
    57    87    85   ar
    58    89    88   ar
    59    50    49    2
    60    61    60    1
    61    71    72    1
    62    60    59    1
    63    51    52    1
    64    51    48    1
    65    85    84   ar
    66    74    73    2
    67    49    59   am
    68    49    48    1
    69    72    73    1
    70    72    75    1
    71    88    86   ar
    72    73    79   am
    73    53    52   ar
    74    53    55   ar
    75    52    54   ar
    76    48    47    1
    77    97    96    1
    78    97    91    1
    79    84    86   ar
    80    84    83    1
    81    55    57   ar
    82    79    80    1
    83    54    56   ar
    84    96    95    1
    85    80    83    1
    86    80    81    1
    87    75    76    1
    88    77    76   ar
    89    76    78   ar
    90    57    56   ar
    91    57    58    1
    92    91    81   am
    93    91    92    1
    94    81    82    2
    95    95    92    1
    96   101   100    2
    97   103   102    1
    98   103   104    1
    99    92    93    1
   100   102    99    1
   101   100    99    1
   102   104    98    1
   103    99    98    1
   104    93    94    2
