@<TRIPOS>MOLECULE
tmp/2xc3A01.pdb
 219 208 0 0 0
SMALL
GASTEIGER

@<TRIPOS>ATOM
      1  N         17.7700   52.1680   27.1950 N.3    79  ILE79      -0.1245
      2  CA        19.0510   51.4380   27.0960 C.3    79  ILE79       0.1561
      3  C         20.0910   52.4240   26.5020 C.2    79  ILE79       0.2260
      4  O         19.8770   53.0270   25.4620 O.2    79  ILE79      -0.2867
      5  CB        18.8820   50.1890   26.2190 C.3    79  ILE79       0.0252
      6  CG1       18.2320   49.0370   27.0560 C.3    79  ILE79       0.0019
      7  CG2       20.2530   49.6300   25.7980 C.3    79  ILE79       0.0019
      8  CD1       17.8740   47.7430   26.2050 C.3    79  ILE79       0.0001
      9  N         23.8890   50.4280   22.2920 N.3    82  PHE82      -0.1241
     10  CA        23.7780   49.3290   21.3130 C.3    82  PHE82       0.1605
     11  C         25.0380   49.2460   20.4570 C.2    82  PHE82       0.2264
     12  O         25.9130   50.0870   20.5530 O.2    82  PHE82      -0.2867
     13  CB        22.5870   49.6560   20.3910 C.3    82  PHE82       0.0534
     14  CG        21.2720   49.7500   21.1400 C.ar   82  PHE82      -0.0203
     15  CD1       20.5500   48.5940   21.4060 C.ar   82  PHE82      -0.0042
     16  CD2       20.7480   50.9940   21.5610 C.ar   82  PHE82      -0.0042
     17  CE1       19.3530   48.6430   22.1120 C.ar   82  PHE82      -0.0003
     18  CE2       19.5130   51.0380   22.2680 C.ar   82  PHE82      -0.0003
     19  CZ        18.8130   49.8630   22.5360 C.ar   82  PHE82      -0.0000
     20  N         23.6260   50.4690   14.8140 N.3    86  ILE86      -0.1245
     21  CA        22.2060   50.1060   14.8830 C.3    86  ILE86       0.1561
     22  C         21.3530   51.1690   14.1710 C.2    86  ILE86       0.2260
     23  O         21.5960   52.3780   14.2830 O.2    86  ILE86      -0.2867
     24  CB        21.7300   49.9480   16.3380 C.3    86  ILE86       0.0252
     25  CG1       20.3220   49.3250   16.3840 C.3    86  ILE86       0.0019
     26  CG2       21.7930   51.2710   17.1450 C.3    86  ILE86       0.0019
     27  CD1       19.9290   48.8630   17.8290 C.3    86  ILE86       0.0001
     28  N         15.4350   50.4470   15.1080 N.3    90  ASP90      -0.1239
     29  CA        15.5860   49.3530   16.0780 C.3    90  ASP90       0.1674
     30  C         15.7400   49.8630   17.4850 C.2    90  ASP90       0.2266
     31  O         15.5470   49.0770   18.4180 O.2    90  ASP90      -0.2867
     32  CB        16.8120   48.4830   15.7160 C.3    90  ASP90       0.1410
     33  CG        16.5570   47.6360   14.4890 C.2    90  ASP90       0.3668
     34  OD1       15.3990   47.4870   14.0540 O.co2  90  ASP90      -0.2456
     35  OD2       17.4940   47.0630   13.9480 O.co2  90  ASP90      -0.2456
     36  N         11.7760   50.7880   18.2440 N.3    93  VAL93      -0.1231
     37  CA        10.8240   49.6640   18.4090 C.3    93  VAL93       0.1692
     38  C         10.6810   49.3030   19.8910 C.2    93  VAL93       0.2591
     39  O          9.6620   48.7610   20.3100 O.2    93  VAL93      -0.2718
     40  CB        11.2400   48.4160   17.5600 C.3    93  VAL93       0.0266
     41  CG1       12.4780   47.6820   18.1160 C.3    93  VAL93       0.0020
     42  CG2       10.0830   47.4380   17.3490 C.3    93  VAL93       0.0020
     43  N         11.6720   49.6780   20.6980 N.am   94  GLN94      -0.1979
     44  CA        11.5650   49.4870   22.1770 C.3    94  GLN94       0.1601
     45  C         10.3320   50.1720   22.7480 C.2    94  GLN94       0.2287
     46  O          9.8850   49.7900   23.8350 O.2    94  GLN94      -0.2864
     47  CB        12.7670   50.1150   22.8390 C.3    94  GLN94       0.0394
     48  CG        14.0860   49.4250   22.5140 C.3    94  GLN94       0.0908
     49  CD        15.2040   50.1680   23.2700 C.2    94  GLN94       0.2608
     50  OE1       15.6230   51.3180   22.8910 O.2    94  GLN94      -0.2717
     51  NE2       15.6480   49.5800   24.3680 N.am   94  GLN94      -0.0878
     52  N          7.3790   49.9020   22.0930 N.3    96  PHE96      -0.1227
     53  CA         6.2330   49.0090   22.2200 C.3    96  PHE96       0.1736
     54  C          6.1170   48.3450   23.5910 C.2    96  PHE96       0.2595
     55  O          5.0150   47.7710   23.8790 O.2    96  PHE96      -0.2718
     56  CB         6.2100   47.9200   21.1200 C.3    96  PHE96       0.0547
     57  CG         5.8430   48.4240   19.7790 C.ar   96  PHE96      -0.0202
     58  CD1        4.5930   49.0480   19.5640 C.ar   96  PHE96      -0.0042
     59  CD2        6.7100   48.2650   18.7090 C.ar   96  PHE96      -0.0042
     60  CE1        4.2240   49.5450   18.2660 C.ar   96  PHE96      -0.0003
     61  CE2        6.3470   48.7380   17.4020 C.ar   96  PHE96      -0.0003
     62  CZ         5.1390   49.4000   17.2040 C.ar   96  PHE96      -0.0000
     63  N          7.1750   48.4150   24.4190 N.am   97  VAL97      -0.1980
     64  CA         7.0360   47.8910   25.7720 C.3    97  VAL97       0.1595
     65  C          6.9670   49.0370   26.7680 C.2    97  VAL97       0.2287
     66  O          7.5470   50.1370   26.5390 O.2    97  VAL97      -0.2864
     67  CB         8.1430   46.8800   26.1200 C.3    97  VAL97       0.0276
     68  CG1        8.0100   45.6360   25.2250 C.3    97  VAL97       0.0022
     69  CG2        9.5820   47.5180   26.0900 C.3    97  VAL97       0.0022
     70  N          8.3150   49.9340   29.5300 N.3    99  LEU99      -0.1231
     71  CA         9.5370   50.5460   30.0860 C.3    99  LEU99       0.1693
     72  C          9.9640   51.7830   29.2620 C.2    99  LEU99       0.2592
     73  O         10.5410   52.7260   29.8150 O.2    99  LEU99      -0.2718
     74  CB        10.6750   49.4700   30.0720 C.3    99  LEU99       0.0284
     75  CG        12.0600   49.9520   30.5420 C.3    99  LEU99       0.0019
     76  CD1       12.0220   50.1170   32.0550 C.3    99  LEU99       0.0001
     77  CD2       13.1010   48.9090   30.1300 C.3    99  LEU99       0.0001
     78  N          9.6190   51.7980   27.9560 N.am  100  ASN100     -0.1974
     79  CA        10.0710   52.8820   27.0800 C.3   100  ASN100      0.1688
     80  C          8.8870   53.7470   26.6640 C.2   100  ASN100      0.2292
     81  O          8.8860   54.3120   25.5700 O.2   100  ASN100     -0.2864
     82  CB        10.7470   52.2560   25.8740 C.3   100  ASN100      0.1181
     83  CG        11.9540   51.4440   26.2860 C.2   100  ASN100      0.2629
     84  OD1       12.9690   52.0210   26.7190 O.2   100  ASN100     -0.2716
     85  ND2       11.8330   50.1260   26.2090 N.am  100  ASN100     -0.0877
     86  N         16.8360   36.9960   23.8880 N.3   182  MET182     -0.1230
     87  CA        16.2090   38.2530   23.6130 C.3   182  MET182      0.1702
     88  C         16.7880   39.5260   24.1670 C.2   182  MET182      0.2593
     89  O         16.5110   40.5960   23.6180 O.2   182  MET182     -0.2718
     90  CB        14.8110   38.1420   24.0410 C.3   182  MET182      0.0401
     91  CG        14.0390   37.7140   22.8550 C.3   182  MET182      0.0596
     92  SD        12.6610   38.5410   23.4140 S.3   182  MET182     -0.1393
     93  CE        11.9550   37.0310   23.9620 C.3   182  MET182      0.0692
     94  N         17.5420   39.4380   25.2630 N.am  183  THR183     -0.1939
     95  CA        18.1980   40.6560   25.7360 C.3   183  THR183      0.2028
     96  C         19.5310   40.7550   25.0080 C.2   183  THR183      0.2642
     97  O         20.4120   39.8730   25.1100 O.2   183  THR183     -0.2714
     98  CB        18.0930   40.9630   27.2650 C.3   183  THR183      0.1808
     99  OG1       19.3210   41.3980   27.8440 O.3   183  THR183     -0.2208
    100  CG2       17.4050   39.8480   28.0920 C.3   183  THR183      0.0379
    101  N         19.6480   41.7830   24.2060 N.am  184  GLY184     -0.1954
    102  CA        20.7930   41.7380   23.2880 C.3   184  GLY184      0.1869
    103  C         22.0430   42.1320   24.0530 C.2   184  GLY184      0.2309
    104  O         21.9670   42.8120   25.1140 O.2   184  GLY184     -0.2863
    105  N         18.1750   38.3490   18.3660 N.3   195  PRO195     -0.2102
    106  CA        17.1000   38.6020   19.3560 C.3   195  PRO195      0.1504
    107  C         15.7330   38.9710   18.7550 C.2   195  PRO195      0.2575
    108  O         14.6900   38.6530   19.3700 O.2   195  PRO195     -0.2718
    109  CB        17.6400   39.7630   20.2650 C.3   195  PRO195      0.0282
    110  CG        18.9830   39.9870   19.8300 C.3   195  PRO195      0.0208
    111  CD        19.2700   39.2910   18.5240 C.3   195  PRO195      0.0893
    112  N         15.7200   39.5520   17.5490 N.am  196  LYS196     -0.1980
    113  CA        14.4390   39.9290   16.8830 C.3   196  LYS196      0.1596
    114  C         13.5330   38.7380   16.6110 C.2   196  LYS196      0.2287
    115  O         12.3380   38.7820   16.8700 O.2   196  LYS196     -0.2864
    116  CB        14.7190   40.5830   15.5370 C.3   196  LYS196      0.0298
    117  CG        15.4930   41.8570   15.6270 C.3   196  LYS196      0.0038
    118  CD        15.5200   42.5820   14.2640 C.3   196  LYS196      0.0206
    119  CE        15.9890   44.0130   14.4400 C.3   196  LYS196      0.1093
    120  NZ        16.3080   44.7160   13.1490 N.3   196  LYS196     -0.1314
    121  N         12.0550   37.3650   19.7740 N.3   199  SER199     -0.1217
    122  CA        11.0170   38.2960   20.3080 C.3   199  SER199      0.1889
    123  C          9.6980   38.0930   19.5390 C.2   199  SER199      0.2288
    124  O          8.5920   38.0890   20.1230 O.2   199  SER199     -0.2866
    125  CB        11.5140   39.7770   20.1780 C.3   199  SER199      0.2089
    126  OG        12.6550   39.9530   21.0320 O.3   199  SER199     -0.2183
    127  N          6.0320   36.9330   20.9970 N.3   203  ILE203     -0.1245
    128  CA         4.8040   37.7170   20.8570 C.3   203  ILE203      0.1561
    129  C          3.6610   36.8880   20.3170 C.2   203  ILE203      0.2260
    130  O          2.5250   36.9840   20.8410 O.2   203  ILE203     -0.2867
    131  CB         5.0720   38.9620   19.9300 C.3   203  ILE203      0.0252
    132  CG1        5.9970   39.9060   20.6980 C.3   203  ILE203      0.0019
    133  CG2        3.6950   39.6100   19.4490 C.3   203  ILE203      0.0019
    134  CD1        6.6660   40.9730   19.7600 C.3   203  ILE203      0.0001
    135  N          3.0990   42.3080   24.2320 N.3   237  PHE237     -0.1241
    136  CA         4.2260   43.1860   24.6040 C.3   237  PHE237      0.1605
    137  C          4.5160   43.1730   26.0910 C.2   237  PHE237      0.2264
    138  O          5.6300   43.3850   26.5130 O.2   237  PHE237     -0.2867
    139  CB         3.9760   44.5800   24.0280 C.3   237  PHE237      0.0534
    140  CG         4.1950   44.6300   22.5670 C.ar  237  PHE237     -0.0203
    141  CD1        5.4570   44.3890   22.0320 C.ar  237  PHE237     -0.0042
    142  CD2        3.1470   44.8740   21.6990 C.ar  237  PHE237     -0.0042
    143  CE1        5.6640   44.4110   20.5940 C.ar  237  PHE237     -0.0003
    144  CE2        3.3620   44.9300   20.2850 C.ar  237  PHE237     -0.0003
    145  CZ         4.6220   44.6740   19.7530 C.ar  237  PHE237     -0.0000
    146  N          6.6260   39.9530   26.4610 N.3   240  VAL240     -0.1231
    147  CA         7.9830   40.2530   26.0120 C.3   240  VAL240      0.1692
    148  C          8.7340   41.1080   27.0670 C.2   240  VAL240      0.2591
    149  O          9.9210   40.8660   27.3530 O.2   240  VAL240     -0.2718
    150  CB         8.0000   41.0490   24.6380 C.3   240  VAL240      0.0266
    151  CG1        9.3900   41.7870   24.4620 C.3   240  VAL240      0.0020
    152  CG2        7.5510   40.1600   23.5700 C.3   240  VAL240      0.0020
    153  N          8.0180   42.1040   27.6350 N.am  241  MET241     -0.1979
    154  CA         8.5400   42.9290   28.7080 C.3   241  MET241      0.1605
    155  C          9.0680   42.0920   29.8700 C.2   241  MET241      0.2287
    156  O         10.2020   42.3080   30.3340 O.2   241  MET241     -0.2864
    157  CB         7.4960   43.9350   29.1760 C.3   241  MET241      0.0413
    158  CG         8.0340   44.8930   30.2390 C.3   241  MET241      0.0598
    159  SD         9.1760   46.2200   29.5820 S.3   241  MET241     -0.1393
    160  CE        10.7480   45.7680   30.3300 C.3   241  MET241      0.0692
    161  N         12.3550   39.9430   29.0870 N.3   244  VAL244     -0.1231
    162  CA        13.6070   40.6530   29.1140 C.3   244  VAL244      0.1692
    163  C         13.8850   41.3260   30.4790 C.2   244  VAL244      0.2591
    164  O         15.0350   41.3400   30.9420 O.2   244  VAL244     -0.2718
    165  CB        13.7250   41.6540   27.9250 C.3   244  VAL244      0.0266
    166  CG1       13.5620   40.8510   26.6070 C.3   244  VAL244      0.0020
    167  CG2       12.7320   42.8480   28.0130 C.3   244  VAL244      0.0020
    168  N         12.8430   41.7770   31.1600 N.am  245  ALA245     -0.1980
    169  CA        13.1320   42.4980   32.4200 C.3   245  ALA245      0.1597
    170  C         13.5140   41.5220   33.5480 C.2   245  ALA245      0.2287
    171  O         14.2230   41.9190   34.4790 O.2   245  ALA245     -0.2864
    172  CB        11.9390   43.2910   32.8610 C.3   245  ALA245      0.0319
    173  N         18.4900   39.7990   34.5630 N.3   249  THR249     -0.1218
    174  CA        18.6460   40.6100   35.7890 C.3   249  THR249      0.1862
    175  C         18.7290   39.7320   37.0620 C.2   249  THR249      0.2287
    176  O         19.7460   39.7670   37.8040 O.2   249  THR249     -0.2866
    177  CB        17.4720   41.5750   35.9290 C.3   249  THR249      0.1770
    178  OG1       16.2700   40.8080   35.7820 O.3   249  THR249     -0.2211
    179  CG2       17.5270   42.6580   34.8500 C.3   249  THR249      0.0375
    180  N         21.4460   45.8450   36.4000 N.3   290  VAL290     -0.1245
    181  CA        21.3620   46.9100   35.3570 C.3   290  VAL290      0.1561
    182  C         22.3840   47.9650   35.8200 C.2   290  VAL290      0.2260
    183  O         22.1790   48.6680   36.8360 O.2   290  VAL290     -0.2867
    184  CB        19.9680   47.4970   35.2100 C.3   290  VAL290      0.0252
    185  CG1       19.9820   48.6230   34.1870 C.3   290  VAL290      0.0019
    186  CG2       18.9570   46.3760   34.7610 C.3   290  VAL290      0.0019
    187  N         20.4760   52.8890   33.2690 N.3   293  PHE293     -0.1241
    188  CA        19.4570   53.2210   32.2780 C.3   293  PHE293      0.1605
    189  C         19.4710   54.7270   32.0680 C.2   293  PHE293      0.2264
    190  O         19.9180   55.4560   32.9450 O.2   293  PHE293     -0.2867
    191  CB        18.0250   52.8450   32.7310 C.3   293  PHE293      0.0534
    192  CG        17.6730   51.3640   32.5870 C.ar  293  PHE293     -0.0203
    193  CD1       18.1170   50.5920   31.4790 C.ar  293  PHE293     -0.0042
    194  CD2       16.7850   50.7930   33.4950 C.ar  293  PHE293     -0.0042
    195  CE1       17.6900   49.2390   31.3240 C.ar  293  PHE293     -0.0003
    196  CE2       16.3860   49.4530   33.3720 C.ar  293  PHE293     -0.0003
    197  CZ        16.8080   48.6620   32.2850 C.ar  293  PHE293     -0.0000
    198  N         25.5900   48.1760   29.2940 N.3   391  TRP391     -0.1227
    199  CA        24.6010   48.5610   30.2950 C.3   391  TRP391      0.1737
    200  C         24.1270   47.4590   31.2010 C.2   391  TRP391      0.2595
    201  O         23.6090   47.7830   32.2920 O.2   391  TRP391     -0.2718
    202  CB        23.3810   49.2470   29.6350 C.3   391  TRP391      0.0564
    203  CG        22.6500   48.2620   28.7330 C.ar  391  TRP391      0.0003
    204  CD1       22.9550   47.9270   27.4140 C.ar  391  TRP391      0.0946
    205  CD2       21.5570   47.4310   29.1150 C.ar  391  TRP391      0.0152
    206  NE1       22.0870   46.9360   26.9800 N.ar  391  TRP391     -0.2442
    207  CE2       21.2220   46.6180   27.9860 C.ar  391  TRP391      0.0810
    208  CE3       20.8060   47.3030   30.3030 C.ar  391  TRP391      0.0012
    209  CZ2       20.2010   45.6790   28.0220 C.ar  391  TRP391      0.0191
    210  CZ3       19.7750   46.3340   30.3360 C.ar  391  TRP391      0.0001
    211  CH2       19.4900   45.5460   29.1970 C.ar  391  TRP391      0.0015
    212  N         24.2560   46.1910   30.7630 N.am  392  LEU392     -0.1980
    213  CA        23.8730   45.0640   31.5860 C.3   392  LEU392      0.1596
    214  C         25.1570   44.5270   32.2260 C.2   392  LEU392      0.2287
    215  O         26.1780   44.3950   31.5710 O.2   392  LEU392     -0.2864
    216  CB        23.2280   43.9560   30.7450 C.3   392  LEU392      0.0297
    217  CG        22.4930   42.8510   31.5110 C.3   392  LEU392      0.0022
    218  CD1       21.2320   43.3180   32.2650 C.3   392  LEU392      0.0001
    219  CD2       22.1470   41.6380   30.6040 C.3   392  LEU392      0.0001
@<TRIPOS>BOND
     1   120   119    1
     2    35    33   ar
     3    34    33   ar
     4    22    23    2
     5    22    21    1
     6   118   119    1
     7   118   117    1
     8    33    32    1
     9    20    21    1
    10    21    24    1
    11    28    29    1
    12   116   117    1
    13   116   113    1
    14    32    29    1
    15    29    30    1
    16    24    25    1
    17    24    26    1
    18    25    27    1
    19   114   115    2
    20   114   113    1
    21   113   112    1
    22    62    61   ar
    23    62    60   ar
    24    42    40    1
    25    61    59   ar
    26    30    31    2
    27   112   107   am
    28    40    41    1
    29    40    37    1
    30    36    37    1
    31    60    58   ar
    32   105   111    1
    33   105   106    1
    34    37    38    1
    35   111   110    1
    36    59    57   ar
    37   107   106    1
    38   107   108    2
    39   106   109    1
    40   133   131    1
    41   123   124    2
    42   123   122    1
    43    58    57   ar
    44   145   144   ar
    45   145   143   ar
    46   134   132    1
    47   121   122    1
    48    57    56    1
    49   110   109    1
    50    38    39    2
    51    38    43   am
    52   131   132    1
    53   131   128    1
    54   125   122    1
    55   125   126    1
    56   144   142   ar
    57   129   130    2
    58   129   128    1
    59    13    14    1
    60    13    10    1
    61    11    12    2
    62    11    10    1
    63   143   141   ar
    64    43    44    1
    65   128   127    1
    66    56    53    1
    67    14    15   ar
    68    14    16   ar
    69    10     9    1
    70    15    17   ar
    71    16    18   ar
    72   142   140   ar
    73   141   140   ar
    74    52    53    1
    75    17    19   ar
    76    44    45    1
    77    44    47    1
    78    53    54    1
    79    18    19   ar
    80    48    47    1
    81    48    49    1
    82   140   139    1
    83    45    46    2
    84    91    92    1
    85    91    90    1
    86    50    49    2
    87    49    51   am
    88   102   103    1
    89   102   101    1
    90    92    93    1
    91   152   150    1
    92    54    55    2
    93    54    63   am
    94    87    86    1
    95    87    90    1
    96    87    88    1
    97    89    88    2
    98   139   136    1
    99   103   104    2
   100    88    94   am
   101   101    96   am
   102   135   136    1
   103    63    64    1
   104   151   150    1
   105   136   137    1
   106   150   147    1
   107    96    97    2
   108    96    95    1
   109    68    67    1
   110    94    95    1
   111     4     3    2
   112    81    80    2
   113    95    98    1
   114    64    67    1
   115    64    65    1
   116     7     5    1
   117    82    83    1
   118    82    79    1
   119   147   146    1
   120   147   148    1
   121    69    67    1
   122   137   138    2
   123     8     6    1
   124    85    83   am
   125     5     6    1
   126     5     2    1
   127    83    84    2
   128     3     2    1
   129    66    65    2
   130   166   165    1
   131    80    79    1
   132   206   204   ar
   133   206   207   ar
   134   148   149    2
   135   148   153   am
   136    79    78    1
   137     2     1    1
   138    98    99    1
   139    98   100    1
   140   204   203   ar
   141   153   154    1
   142   165   167    1
   143   165   162    1
   144    78    72   am
   145   207   209   ar
   146   207   205   ar
   147   209   211   ar
   148   154   157    1
   149   154   155    1
   150   203   205   ar
   151   203   202    1
   152   161   162    1
   153   162   163    1
   154   205   208   ar
   155   157   158    1
   156   211   210   ar
   157    72    73    2
   158    72    71    1
   159   198   199    1
   160    70    71    1
   161   159   158    1
   162   159   160    1
   163   202   199    1
   164   155   156    2
   165    74    71    1
   166    74    75    1
   167    77    75    1
   168   199   200    1
   169   208   210   ar
   170   163   164    2
   171   163   168   am
   172    75    76    1
   173   219   217    1
   174   216   217    1
   175   216   213    1
   176   212   200   am
   177   212   213    1
   178   168   169    1
   179   200   201    2
   180   195   193   ar
   181   195   197   ar
   182   193   192   ar
   183   217   218    1
   184   215   214    2
   185   213   214    1
   186   189   188    1
   187   189   190    2
   188   188   191    1
   189   188   187    1
   190   197   196   ar
   191   169   172    1
   192   169   170    1
   193   192   191    1
   194   192   194   ar
   195   196   194   ar
   196   170   171    2
   197   185   184    1
   198   173   174    1
   199   186   184    1
   200   179   177    1
   201   184   181    1
   202   181   182    1
   203   181   180    1
   204   178   177    1
   205   174   177    1
   206   174   175    1
   207   182   183    2
   208   175   176    2
