@<TRIPOS>MOLECULE
tmp/2xc5A00.pdb
 226 224 0 0 0
SMALL
GASTEIGER

@<TRIPOS>ATOM
      1  N         14.4110   58.0940   -4.6790 N.3    42  HIS42      -0.1241
      2  CA        13.2970   59.0490   -4.8570 C.3    42  HIS42       0.1621
      3  C         13.7770   60.3430   -5.5340 C.2    42  HIS42       0.2264
      4  O         12.9950   61.0590   -6.1260 O.2    42  HIS42      -0.2867
      5  CB        12.6010   59.3390   -3.5320 C.3    42  HIS42       0.0745
      6  CG        13.3020   60.3510   -2.6850 C.ar   42  HIS42       0.0817
      7  ND1       14.0680   60.0020   -1.5940 N.ar   42  HIS42      -0.2268
      8  CD2       13.3520   61.7000   -2.7690 C.ar   42  HIS42       0.1154
      9  CE1       14.5670   61.0960   -1.0450 C.ar   42  HIS42       0.1986
     10  NE2       14.1430   62.1420   -1.7360 N.ar   42  HIS42      -0.2212
     11  N          7.1750   54.9130   -4.1150 N.3    82  LYS82      -0.1231
     12  CA         6.7370   56.1030   -3.3620 C.3    82  LYS82       0.1693
     13  C          5.6480   55.8150   -2.3170 C.2    82  LYS82       0.2592
     14  O          5.4130   56.6200   -1.4170 O.2    82  LYS82      -0.2718
     15  CB         6.2660   57.2190   -4.3120 C.3    82  LYS82       0.0285
     16  CG         7.3880   58.1370   -4.7870 C.3    82  LYS82       0.0035
     17  CD         6.8830   59.2780   -5.7030 C.3    82  LYS82       0.0206
     18  CE         6.5090   58.7720   -7.0960 C.3    82  LYS82       0.1093
     19  NZ         5.9660   59.8540   -7.9740 N.3    82  LYS82      -0.1314
     20  N          4.9750   54.6780   -2.4560 N.am   83  GLU83      -0.1966
     21  CA         3.9840   54.2390   -1.4810 C.3    83  GLU83       0.1733
     22  C          4.5810   54.1180   -0.0680 C.2    83  GLU83       0.2617
     23  O          3.9690   54.5540    0.9060 O.2    83  GLU83      -0.2715
     24  CB         3.3620   52.8980   -1.9190 C.3    83  GLU83       0.0429
     25  CG         2.4460   52.2720   -0.9140 C.3    83  GLU83       0.1163
     26  CD         1.7230   51.0590   -1.4600 C.2    83  GLU83       0.3649
     27  OE1        2.3770   50.0170   -1.6800 O.co2  83  GLU83      -0.2457
     28  OE2        0.4960   51.1510   -1.6620 O.co2  83  GLU83      -0.2457
     29  N          5.7720   53.5410    0.0320 N.am   84  THR84      -0.1937
     30  CA         6.3430   53.2240    1.3350 C.3    84  THR84       0.2028
     31  C          7.6850   53.9330    1.5550 C.2    84  THR84       0.2642
     32  O          8.1570   53.9960    2.6790 O.2    84  THR84      -0.2714
     33  CB         6.6500   51.7410    1.4660 C.3    84  THR84       0.1808
     34  OG1        7.5260   51.3740    0.4000 O.3    84  THR84      -0.2208
     35  CG2        5.3550   50.8820    1.4100 C.3    84  THR84       0.0379
     36  N          8.2670   54.4540    0.4850 N.am   85  TYR85      -0.1973
     37  CA         9.6490   54.9770    0.5010 C.3    85  TYR85       0.1639
     38  C         10.6850   53.9390    0.9580 C.2    85  TYR85       0.2290
     39  O         11.8030   54.3020    1.3330 O.2    85  TYR85      -0.2864
     40  CB         9.7370   56.2590    1.3400 C.3    85  TYR85       0.0560
     41  CG         9.6160   57.4970    0.4700 C.ar   85  TYR85      -0.0198
     42  CD1        8.4340   57.7650   -0.2450 C.ar   85  TYR85      -0.0009
     43  CD2       10.7080   58.3530    0.3110 C.ar   85  TYR85      -0.0009
     44  CE1        8.3360   58.8820   -1.0670 C.ar   85  TYR85       0.0417
     45  CE2       10.6170   59.4850   -0.5010 C.ar   85  TYR85       0.0417
     46  CZ         9.4440   59.7370   -1.1760 C.ar   85  TYR85       0.1957
     47  OH         9.3650   60.8280   -2.0100 O.3    85  TYR85      -0.2866
     48  N         17.3010   72.8750    2.4510 N.3   132  ARG132     -0.1245
     49  CA        16.6390   74.0060    3.1490 C.3   132  ARG132      0.1563
     50  C         17.1730   74.2180    4.5670 C.2   132  ARG132      0.2260
     51  O         17.4980   73.2440    5.2650 O.2   132  ARG132     -0.2867
     52  CB        15.1180   73.7990    3.2080 C.3   132  ARG132      0.0307
     53  CG        14.4090   73.7690    1.8590 C.3   132  ARG132      0.0489
     54  CD        12.9050   73.5970    2.0230 C.3   132  ARG132      0.2205
     55  NE        12.2780   73.4410    0.7120 N.pl3 132  ARG132     -0.0865
     56  CZ        11.0340   73.8050    0.4140 C.cat 132  ARG132      0.5346
     57  NH1       10.2430   74.3490    1.3380 N.pl3 132  ARG132      0.1354
     58  NH2       10.5750   73.6120   -0.8160 N.pl3 132  ARG132      0.1354
     59  N         12.2010   74.4950    7.4010 N.3   135  GLU135     -0.1231
     60  CA        11.1560   73.7280    6.7120 C.3   135  GLU135      0.1699
     61  C         10.4920   74.4750    5.5320 C.2   135  GLU135      0.2592
     62  O         10.3770   73.9420    4.4320 O.2   135  GLU135     -0.2718
     63  CB        10.0940   73.2420    7.7130 C.3   135  GLU135      0.0402
     64  CG         9.0780   72.2730    7.1280 C.3   135  GLU135      0.1161
     65  CD         8.0900   71.7400    8.1750 C.2   135  GLU135      0.3649
     66  OE1        8.5100   71.3880    9.3050 O.co2 135  GLU135     -0.2457
     67  OE2        6.8860   71.6680    7.8520 O.co2 135  GLU135     -0.2457
     68  N         10.0660   75.7100    5.7610 N.am  136  LYS136     -0.1980
     69  CA         9.3790   76.4640    4.7140 C.3   136  LYS136      0.1596
     70  C         10.3160   77.4450    3.9780 C.2   136  LYS136      0.2287
     71  O          9.8670   78.2510    3.1480 O.2   136  LYS136     -0.2864
     72  CB         8.1670   77.1800    5.3170 C.3   136  LYS136      0.0298
     73  CG         7.1650   76.2230    5.9780 C.3   136  LYS136      0.0038
     74  CD         6.6210   76.7930    7.2800 C.3   136  LYS136      0.0206
     75  CE         5.5560   75.8860    7.8770 C.3   136  LYS136      0.1093
     76  NZ         4.9210   76.4920    9.0800 N.3   136  LYS136     -0.1314
     77  N          4.2490   57.0380    9.3420 N.3   162  PHE162     -0.1227
     78  CA         4.4830   56.0620    8.2990 C.3   162  PHE162      0.1736
     79  C          5.3040   54.9120    8.8470 C.2   162  PHE162      0.2595
     80  O          6.0690   55.0880    9.7910 O.2   162  PHE162     -0.2718
     81  CB         5.2460   56.7070    7.1360 C.3   162  PHE162      0.0547
     82  CG         4.5230   57.9170    6.5490 C.ar  162  PHE162     -0.0202
     83  CD1        3.4580   57.7370    5.6750 C.ar  162  PHE162     -0.0042
     84  CD2        4.8710   59.2050    6.9300 C.ar  162  PHE162     -0.0042
     85  CE1        2.7590   58.8420    5.1720 C.ar  162  PHE162     -0.0003
     86  CE2        4.1860   60.3420    6.4120 C.ar  162  PHE162     -0.0003
     87  CZ         3.1350   60.1540    5.5470 C.ar  162  PHE162     -0.0000
     88  N          5.1990   53.7700    8.1780 N.am  163  ILE163     -0.1980
     89  CA         5.9720   52.5640    8.5540 C.3   163  ILE163      0.1595
     90  C          7.4880   52.7600    8.4240 C.2   163  ILE163      0.2287
     91  O          7.9890   53.2620    7.4080 O.2   163  ILE163     -0.2864
     92  CB         5.4920   51.3670    7.7560 C.3   163  ILE163      0.0276
     93  CG1        4.0820   50.9920    8.2390 C.3   163  ILE163      0.0022
     94  CG2        6.4220   50.2000    7.9320 C.3   163  ILE163      0.0022
     95  CD1        3.1670   50.4760    7.1440 C.3   163  ILE163      0.0001
     96  N         18.0990   69.2840   12.1390 N.3   179  ASP179     -0.1225
     97  CA        17.6680   68.1590   11.2980 C.3   179  ASP179      0.1805
     98  C         18.1730   68.3320    9.8670 C.2   179  ASP179      0.2598
     99  O         18.5500   69.4260    9.4430 O.2   179  ASP179     -0.2718
    100  CB        16.1270   68.0910   11.3130 C.3   179  ASP179      0.1424
    101  CG        15.5560   66.7530   10.8140 C.2   179  ASP179      0.3668
    102  OD1       16.2960   65.7370   10.7430 O.co2 179  ASP179     -0.2456
    103  OD2       14.3250   66.7400   10.4860 O.co2 179  ASP179     -0.2456
    104  N         18.1640   67.2510    9.1030 N.am  180  ALA180     -0.1966
    105  CA        18.2970   67.3780    7.6610 C.3   180  ALA180      0.1728
    106  C         16.9530   67.8630    7.1350 C.2   180  ALA180      0.2616
    107  O         15.9500   67.8850    7.8720 O.2   180  ALA180     -0.2715
    108  CB        18.6790   66.0380    7.0520 C.3   180  ALA180      0.0334
    109  N         16.9310   68.3030    5.8880 N.am  181  CYS181     -0.1954
    110  CA        15.6940   68.8030    5.3120 C.3   181  CYS181      0.1843
    111  C         15.6370   68.4560    3.8250 C.2   181  CYS181      0.2625
    112  O         16.5980   67.8960    3.2560 O.2   181  CYS181     -0.2714
    113  CB        15.5460   70.3220    5.5790 C.3   181  CYS181      0.0997
    114  SG        13.8280   70.9930    5.4260 S.3   181  CYS181     -0.0797
    115  N         14.5140   68.7970    3.1930 N.am  182  GLN182     -0.1977
    116  CA        14.3580   68.6290    1.7590 C.3   182  GLN182      0.1601
    117  C         15.5050   69.3480    1.0480 C.2   182  GLN182      0.2287
    118  O         15.9060   70.4740    1.4110 O.2   182  GLN182     -0.2864
    119  CB        13.0110   69.1800    1.2900 C.3   182  GLN182      0.0394
    120  CG        12.6330   68.7560   -0.1220 C.3   182  GLN182      0.0908
    121  CD        11.2850   69.3030   -0.5490 C.2   182  GLN182      0.2608
    122  OE1       10.3790   68.5420   -0.8920 O.2   182  GLN182     -0.2717
    123  NE2       11.1420   70.6280   -0.5240 N.am  182  GLN182     -0.0878
    124  N         18.1820   65.3800    0.8390 N.3   185  SER185     -0.1217
    125  CA        17.8010   64.0380    0.4170 C.3   185  SER185      0.1889
    126  C         18.8200   63.4870   -0.5570 C.2   185  SER185      0.2288
    127  O         19.2500   64.2120   -1.4700 O.2   185  SER185     -0.2866
    128  CB        16.4480   64.1030   -0.2850 C.3   185  SER185      0.2089
    129  OG        15.5860   64.9750    0.4210 O.3   185  SER185     -0.2183
    130  N         20.3080   60.1390    3.3220 N.3   203  VAL203     -0.1231
    131  CA        19.2440   61.0540    3.7350 C.3   203  VAL203      0.1692
    132  C         17.9980   60.7120    2.9040 C.2   203  VAL203      0.2593
    133  O         18.0290   60.7820    1.6850 O.2   203  VAL203     -0.2718
    134  CB        19.6910   62.5170    3.4990 C.3   203  VAL203      0.0266
    135  CG1       18.6040   63.4870    3.9520 C.3   203  VAL203      0.0020
    136  CG2       21.0030   62.7680    4.2630 C.3   203  VAL203      0.0020
    137  N         16.9180   60.2960    3.5700 N.am  204  SER204     -0.1938
    138  CA        15.7570   59.7960    2.8230 C.3   204  SER204      0.2055
    139  C         14.4830   60.6240    2.9850 C.2   204  SER204      0.2643
    140  O         13.9800   61.2100    2.0020 O.2   204  SER204     -0.2714
    141  CB        15.4900   58.3270    3.1540 C.3   204  SER204      0.2130
    142  OG        14.4680   57.7740    2.3240 O.3   204  SER204     -0.2179
    143  N         13.9150   60.6690    4.1820 N.am  205  TRP205     -0.1959
    144  CA        12.6560   61.4460    4.3360 C.3   205  TRP205      0.1771
    145  C         12.4030   61.8540    5.7770 C.2   205  TRP205      0.2620
    146  O         13.0940   61.4080    6.6970 O.2   205  TRP205     -0.2715
    147  CB        11.4390   60.6670    3.8100 C.3   205  TRP205      0.0590
    148  CG        11.2150   59.3340    4.4930 C.ar  205  TRP205      0.0006
    149  CD1       11.8080   58.1350    4.1660 C.ar  205  TRP205      0.0946
    150  CD2       10.3330   59.0640    5.5850 C.ar  205  TRP205      0.0152
    151  NE1       11.3290   57.1400    4.9860 N.ar  205  TRP205     -0.2442
    152  CE2       10.4170   57.6740    5.8540 C.ar  205  TRP205      0.0810
    153  CE3        9.4620   59.8600    6.3550 C.ar  205  TRP205      0.0012
    154  CZ2        9.6670   57.0490    6.8750 C.ar  205  TRP205      0.0191
    155  CZ3        8.6870   59.2440    7.3470 C.ar  205  TRP205      0.0001
    156  CH2        8.8230   57.8520    7.6180 C.ar  205  TRP205      0.0015
    157  N         11.3930   62.6900    5.9640 N.am  206  GLY206     -0.1940
    158  CA        10.9500   63.0430    7.3020 C.3   206  GLY206      0.2014
    159  C          9.6670   63.8320    7.1590 C.2   206  GLY206      0.2639
    160  O          9.3960   64.4090    6.0830 O.2   206  GLY206     -0.2714
    161  N          8.9010   63.8860    8.2480 N.am  207  GLU207     -0.1963
    162  CA         7.6780   64.6900    8.3060 C.3   207  GLU207      0.1733
    163  C          8.0650   66.0970    8.7280 C.2   207  GLU207      0.2617
    164  O          8.4620   66.3230    9.8560 O.2   207  GLU207     -0.2715
    165  CB         6.6790   64.0510    9.2560 C.3   207  GLU207      0.0429
    166  CG         6.3830   62.6510    8.8370 C.3   207  GLU207      0.1163
    167  CD         5.3660   62.0050    9.7260 C.2   207  GLU207      0.3649
    168  OE1        4.2640   62.5780    9.8480 O.co2 207  GLU207     -0.2457
    169  OE2        5.6640   60.9440   10.3140 O.co2 207  GLU207     -0.2457
    170  N          8.0050   67.0230    7.7660 N.am  208  GLY208     -0.1940
    171  CA         8.5400   68.3790    7.9330 C.3   208  GLY208      0.2014
    172  C         10.0460   68.3640    8.1040 C.2   208  GLY208      0.2639
    173  O         10.7160   67.4420    7.6560 O.2   208  GLY208     -0.2714
    174  N         10.5920   69.3900    8.7480 N.am  209  CYS209     -0.1967
    175  CA        12.0020   69.4060    9.0840 C.3   209  CYS209      0.1712
    176  C         12.1330   69.9650   10.4730 C.2   209  CYS209      0.2296
    177  O         11.5360   70.9950   10.7730 O.2   209  CYS209     -0.2864
    178  CB        12.7840   70.2770    8.1000 C.3   209  CYS209      0.0983
    179  SG        12.6660   69.6720    6.4360 S.3   209  CYS209     -0.0798
    180  N         10.8050   69.0590   13.1380 N.3   211  ARG211     -0.1245
    181  CA         9.5320   69.1200   13.8540 C.3   211  ARG211      0.1563
    182  C          9.6710   68.4510   15.2100 C.2   211  ARG211      0.2260
    183  O         10.3160   67.3900   15.3340 O.2   211  ARG211     -0.2867
    184  CB         8.4080   68.4720   13.0510 C.3   211  ARG211      0.0307
    185  CG         7.8700   69.3750   11.9730 C.3   211  ARG211      0.0489
    186  CD         6.5470   68.8380   11.4560 C.3   211  ARG211      0.2205
    187  NE         6.1970   69.4600   10.1850 N.pl3 211  ARG211     -0.0865
    188  CZ         5.1600   69.1100    9.4370 C.cat 211  ARG211      0.5346
    189  NH1        4.3470   68.1370    9.8330 N.pl3 211  ARG211      0.1354
    190  NH2        4.9390   69.7390    8.2860 N.pl3 211  ARG211      0.1354
    191  N         11.6070   62.6080   13.7230 N.3   215  TYR215     -0.1227
    192  CA        13.0220   62.3470   13.4920 C.3   215  TYR215      0.1736
    193  C         13.3280   62.3290   12.0190 C.2   215  TYR215      0.2596
    194  O         12.4190   62.3420   11.1930 O.2   215  TYR215     -0.2718
    195  CB        13.4320   61.0140   14.1140 C.3   215  TYR215      0.0548
    196  CG        13.1760   60.9680   15.6060 C.ar  215  TYR215     -0.0200
    197  CD1       14.0070   61.6570   16.5040 C.ar  215  TYR215     -0.0009
    198  CD2       12.0770   60.2750   16.1210 C.ar  215  TYR215     -0.0009
    199  CE1       13.7820   61.6040   17.8760 C.ar  215  TYR215      0.0417
    200  CE2       11.8240   60.2410   17.4850 C.ar  215  TYR215      0.0417
    201  CZ        12.6760   60.9070   18.3580 C.ar  215  TYR215      0.1957
    202  OH        12.4170   60.8510   19.7270 O.3   215  TYR215     -0.2866
    203  N         14.6040   62.2830   11.6750 N.am  216  GLY216     -0.1942
    204  CA        14.9680   62.1240   10.2710 C.3   216  GLY216      0.2014
    205  C         15.0880   60.6240    9.9950 C.2   216  GLY216      0.2639
    206  O         15.5400   59.8620   10.8340 O.2   216  GLY216     -0.2714
    207  N         14.6760   60.2180    8.8030 N.am  217  ILE217     -0.1963
    208  CA        14.7000   58.8180    8.4020 C.3   217  ILE217      0.1727
    209  C         15.6940   58.6230    7.2550 C.2   217  ILE217      0.2616
    210  O         15.7010   59.3600    6.2560 O.2   217  ILE217     -0.2715
    211  CB        13.2930   58.3150    7.9880 C.3   217  ILE217      0.0290
    212  CG1       12.1610   58.9430    8.8610 C.3   217  ILE217      0.0022
    213  CG2       13.2890   56.8010    7.8900 C.3   217  ILE217      0.0023
    214  CD1       12.0440   58.4090   10.2600 C.3   217  ILE217      0.0001
    215  N         16.5370   57.6190    7.4420 N.am  218  TYR218     -0.1974
    216  CA        17.6690   57.3360    6.5510 C.3   218  TYR218      0.1639
    217  C         17.5750   55.9510    5.9980 C.2   218  TYR218      0.2290
    218  O         17.1630   55.0400    6.7110 O.2   218  TYR218     -0.2864
    219  CB        18.9660   57.4870    7.3530 C.3   218  TYR218      0.0560
    220  CG        19.1790   58.9010    7.8510 C.ar  218  TYR218     -0.0198
    221  CD1       19.9860   59.7900    7.1360 C.ar  218  TYR218     -0.0009
    222  CD2       18.5400   59.3710    9.0020 C.ar  218  TYR218     -0.0009
    223  CE1       20.1920   61.0620    7.5720 C.ar  218  TYR218      0.0417
    224  CE2       18.7150   60.6560    9.4440 C.ar  218  TYR218      0.0417
    225  CZ        19.5420   61.5190    8.7160 C.ar  218  TYR218      0.1957
    226  OH        19.7130   62.8110    9.1360 O.3   218  TYR218     -0.2866
@<TRIPOS>BOND
     1    19    18    1
     2    18    17    1
     3     4     3    2
     4    17    16    1
     5     3     2    1
     6     2     1    1
     7     2     5    1
     8    16    15    1
     9    15    12    1
    10    11    12    1
    11     5     6    1
    12    12    13    1
    13     8     6   ar
    14     8    10   ar
    15     6     7   ar
    16    20    13   am
    17    20    21    1
    18    13    14    2
    19    47    46    1
    20    24    21    1
    21    24    25    1
    22    10     9   ar
    23    27    26   ar
    24    28    26   ar
    25     7     9   ar
    26    21    22    1
    27   127   126    2
    28    26    25    1
    29    46    44   ar
    30    46    45   ar
    31    44    42   ar
    32   122   121    2
    33    58    56    1
    34   126   125    1
    35   121   123   am
    36   121   120    1
    37    45    43   ar
    38   128   125    1
    39   128   129    1
    40    42    41   ar
    41   120   119    1
    42    22    29   am
    43    22    23    2
    44    29    30    1
    45    43    41   ar
    46    34    33    1
    47    56    55    2
    48    56    57    1
    49   125   124    1
    50    41    40    1
    51    36    37    1
    52    36    31   am
    53    37    38    1
    54    37    40    1
    55    55    54    1
    56    38    39    2
    57   117   118    2
    58   117   116    1
    59   119   116    1
    60    30    33    1
    61    30    31    1
    62    35    33    1
    63    31    32    2
    64   133   132    2
    65   116   115    1
    66    53    54    1
    67    53    52    1
    68   140   139    2
    69   142   141    1
    70    48    49    1
    71   138   139    1
    72   138   141    1
    73   138   137    1
    74   132   137   am
    75   132   131    1
    76   139   143   am
    77    71    70    2
    78    49    52    1
    79    49    50    1
    80   115   111   am
    81   112   111    2
    82   130   131    1
    83   134   131    1
    84   134   135    1
    85   134   136    1
    86   147   144    1
    87   147   148    1
    88   111   110    1
    89    70    69    1
    90   149   148   ar
    91   149   151   ar
    92   143   144    1
    93   144   145    1
    94    62    61    2
    95   148   150   ar
    96    50    51    2
    97    69    72    1
    98    69    68    1
    99   151   152   ar
   100    85    87   ar
   101    85    83   ar
   102   110   113    1
   103   110   109    1
   104    72    73    1
   105   114   113    1
   106   114   179    1
   107    61    68   am
   108    61    60    1
   109    87    86   ar
   110   150   152   ar
   111   150   153   ar
   112    83    82   ar
   113   145   157   am
   114   145   146    2
   115   152   154   ar
   116   109   106   am
   117   157   158    1
   118    73    74    1
   119   217   216    1
   120   217   218    2
   121   160   159    2
   122   210   209    2
   123   153   155   ar
   124    86    84   ar
   125   179   178    1
   126    82    84   ar
   127    82    81    1
   128   216   219    1
   129   216   215    1
   130    60    59    1
   131    60    63    1
   132   154   156   ar
   133   108   105    1
   134    64    63    1
   135    64    65    1
   136   106   105    1
   137   106   107    2
   138   221   223   ar
   139   221   220   ar
   140    81    78    1
   141    95    93    1
   142   159   158    1
   143   159   161   am
   144   209   215   am
   145   209   208    1
   146    74    75    1
   147   155   156   ar
   148   219   220    1
   149    91    90    2
   150   223   225   ar
   151   173   172    2
   152   105   104    1
   153    92    94    1
   154    92    93    1
   155    92    89    1
   156   170   171    1
   157   170   163   am
   158   220   222   ar
   159    67    65   ar
   160    75    76    1
   161   213   211    1
   162   171   172    1
   163   211   208    1
   164   211   212    1
   165   178   175    1
   166   172   174   am
   167    65    66   ar
   168    88    89    1
   169    88    79   am
   170   161   162    1
   171   190   188    1
   172    78    79    1
   173    78    77    1
   174   162   163    1
   175   162   165    1
   176   208   207    1
   177    90    89    1
   178   225   226    1
   179   225   224   ar
   180   163   164    2
   181   174   175    1
   182   207   205   am
   183   166   165    1
   184   166   167    1
   185    79    80    2
   186   212   214    1
   187   222   224   ar
   188   175   176    1
   189   104    98   am
   190   188   189    1
   191   188   187    2
   192    99    98    2
   193   167   168   ar
   194   167   169   ar
   195    98    97    1
   196   205   204    1
   197   205   206    2
   198   187   186    1
   199   204   203    1
   200   176   177    2
   201   103   101   ar
   202   102   101   ar
   203   101   100    1
   204   194   193    2
   205    97   100    1
   206    97    96    1
   207   186   185    1
   208   203   193   am
   209   185   184    1
   210   193   192    1
   211   184   181    1
   212   180   181    1
   213   192   191    1
   214   192   195    1
   215   181   182    1
   216   195   196    1
   217   182   183    2
   218   196   198   ar
   219   196   197   ar
   220   198   200   ar
   221   197   199   ar
   222   200   201   ar
   223   199   201   ar
   224   201   202    1
