@<TRIPOS>MOLECULE
tmp/2xc8B00.pdb
 202 206 0 0 0
SMALL
GASTEIGER

@<TRIPOS>ATOM
      1  N         -2.5330   11.3200  -24.0670 N.3    42  GLU42      -0.1231
      2  CA        -3.0690   12.6440  -24.3150 C.3    42  GLU42       0.1699
      3  C         -4.5840   12.7010  -24.5120 C.2    42  GLU42       0.2595
      4  O         -5.2200   11.7520  -24.8970 O.2    42  GLU42      -0.2718
      5  CB        -2.3120   13.3350  -25.4510 C.3    42  GLU42       0.0402
      6  CG        -2.5850   12.7550  -26.8330 C.3    42  GLU42       0.1161
      7  CD        -1.5480   13.0920  -27.9020 C.2    42  GLU42       0.3649
      8  OE1       -1.5240   14.2430  -28.3310 O.co2  42  GLU42      -0.2457
      9  OE2       -0.7790   12.2180  -28.3220 O.co2  42  GLU42      -0.2457
     10  N         -5.1730   13.8100  -24.1640 N.am   43  GLU43      -0.1920
     11  CA        -6.5540   14.0370  -24.4290 C.3    43  GLU43       0.1949
     12  C         -6.8670   13.9370  -25.9360 C.2    43  GLU43       0.2659
     13  O         -6.0310   14.1000  -26.7500 O.2    43  GLU43      -0.2711
     14  CB        -6.9940   15.3460  -23.7560 C.2    43  GLU43       0.0111
     15  CG        -6.9910   16.5630  -24.6140 C.2    43  GLU43       0.0838
     16  CD        -7.2900   17.8910  -23.9000 C.2    43  GLU43       0.3877
     17  OE1       -7.1180   18.0410  -22.6980 O.co2  43  GLU43      -0.2406
     18  OE2       -7.7070   18.8290  -24.5770 O.co2  43  GLU43      -0.2406
     19  N         -8.0890   13.6150  -26.2770 N.am   44  VAL44      -0.1961
     20  CA        -8.5480   13.5520  -27.6440 C.3    44  VAL44       0.1727
     21  C        -10.0330   13.7360  -27.6840 C.2    44  VAL44       0.2617
     22  O        -10.7300   13.2840  -26.8450 O.2    44  VAL44      -0.2715
     23  CB        -8.1510   12.2240  -28.3570 C.3    44  VAL44       0.0290
     24  CG1       -8.8960   11.0620  -27.8310 C.3    44  VAL44       0.0023
     25  CG2       -8.3280   12.3280  -29.8010 C.3    44  VAL44       0.0023
     26  N        -10.5030   14.4290  -28.6830 N.am   45  SER45      -0.1936
     27  CA       -11.9040   14.5440  -28.9150 C.3    45  SER45       0.2055
     28  C        -12.2860   14.6430  -30.3950 C.2    45  SER45       0.2643
     29  O        -11.4780   15.0110  -31.1930 O.2    45  SER45      -0.2714
     30  CB       -12.4960   15.6540  -28.0380 C.3    45  SER45       0.2130
     31  OG       -12.2120   16.9100  -28.5080 O.3    45  SER45      -0.2179
     32  N        -13.5140   14.2760  -30.7410 N.am   46  PHE46      -0.1973
     33  CA       -14.0040   14.3450  -32.1160 C.3    46  PHE46       0.1639
     34  C        -15.5230   14.4790  -32.1740 C.2    46  PHE46       0.2290
     35  O        -16.2330   13.9800  -31.2970 O.2    46  PHE46      -0.2864
     36  CB       -13.5200   13.1420  -32.9460 C.3    46  PHE46       0.0560
     37  CG       -13.9840   11.8010  -32.4310 C.ar   46  PHE46      -0.0200
     38  CD1      -15.1330   11.2030  -32.9450 C.ar   46  PHE46      -0.0042
     39  CD2      -13.2580   11.1220  -31.4550 C.ar   46  PHE46      -0.0042
     40  CE1      -15.5620    9.9600  -32.4820 C.ar   46  PHE46      -0.0003
     41  CE2      -13.6790    9.8790  -30.9850 C.ar   46  PHE46      -0.0003
     42  CZ       -14.8330    9.2970  -31.5010 C.ar   46  PHE46      -0.0000
     43  N        -12.2910    4.5910  -32.8450 N.3    59  LEU59      -0.1231
     44  CA       -11.1430    5.1840  -32.1680 C.3    59  LEU59       0.1693
     45  C        -10.1520    4.1080  -31.7270 C.2    59  LEU59       0.2592
     46  O        -10.5280    3.1410  -31.0620 O.2    59  LEU59      -0.2718
     47  CB       -11.6080    6.0230  -30.9710 C.3    59  LEU59       0.0284
     48  CG       -10.5800    6.8420  -30.1820 C.3    59  LEU59       0.0019
     49  CD1      -10.0010    7.9830  -31.0140 C.3    59  LEU59       0.0001
     50  CD2      -11.2090    7.3830  -28.9080 C.3    59  LEU59       0.0001
     51  N         -8.8900    4.2860  -32.1090 N.am   60  TYR60      -0.1976
     52  CA        -7.8360    3.3210  -31.8010 C.3    60  TYR60       0.1639
     53  C         -6.7840    3.9040  -30.8630 C.2    60  TYR60       0.2290
     54  O         -6.3430    5.0410  -31.0410 O.2    60  TYR60      -0.2864
     55  CB        -7.1500    2.8320  -33.0830 C.3    60  TYR60       0.0560
     56  CG        -8.0870    2.3460  -34.1690 C.ar   60  TYR60      -0.0198
     57  CD1       -8.8580    1.1960  -33.9930 C.ar   60  TYR60      -0.0009
     58  CD2       -8.1850    3.0250  -35.3820 C.ar   60  TYR60      -0.0009
     59  CE1       -9.7160    0.7460  -34.9930 C.ar   60  TYR60       0.0417
     60  CE2       -9.0380    2.5810  -36.3890 C.ar   60  TYR60       0.0417
     61  CZ        -9.7990    1.4420  -36.1870 C.ar   60  TYR60       0.1957
     62  OH       -10.6440    1.0000  -37.1790 O.3    60  TYR60      -0.2866
     63  N         -3.0490    2.9640  -29.8680 N.3    62  HIS62      -0.1241
     64  CA        -1.9250    2.1260  -30.2780 C.3    62  HIS62       0.1621
     65  C         -0.5990    2.6650  -29.7530 C.2    62  HIS62       0.2264
     66  O         -0.4840    3.8470  -29.4220 O.2    62  HIS62      -0.2867
     67  CB        -1.8840    1.9970  -31.8030 C.3    62  HIS62       0.0745
     68  CG        -2.0210    3.3030  -32.5200 C.ar   62  HIS62       0.0817
     69  ND1       -0.9460    4.1250  -32.7800 N.ar   62  HIS62      -0.2268
     70  CD2       -3.1080    3.9360  -33.0180 C.ar   62  HIS62       0.1154
     71  CE1       -1.3650    5.2060  -33.4130 C.ar   62  HIS62       0.1986
     72  NE2       -2.6730    5.1160  -33.5690 N.ar   62  HIS62      -0.2212
     73  N         -0.4520    6.6010  -28.9060 N.3    70  SER70      -0.1202
     74  CA        -1.1650    7.5840  -29.7300 C.3    70  SER70       0.2020
     75  C         -2.6030    7.1890  -30.0810 C.2    70  SER70       0.2619
     76  O         -2.9910    6.0250  -29.9550 O.2    70  SER70      -0.2717
     77  CB        -0.3760    7.8690  -31.0120 C.3    70  SER70       0.2103
     78  OG         0.9150    8.3750  -30.7180 O.3    70  SER70      -0.2182
     79  N         -3.3770    8.1810  -30.5250 N.am   71  TRP71      -0.1961
     80  CA        -4.7570    7.9850  -30.9640 C.3    71  TRP71       0.1771
     81  C         -4.8790    8.0020  -32.4860 C.2    71  TRP71       0.2620
     82  O         -4.1950    8.7700  -33.1680 O.2    71  TRP71      -0.2715
     83  CB        -5.6680    9.0770  -30.4000 C.3    71  TRP71       0.0590
     84  CG        -5.8610    9.0620  -28.9140 C.ar   71  TRP71       0.0006
     85  CD1       -5.3500    9.9540  -28.0170 C.ar   71  TRP71       0.0946
     86  CD2       -6.6400    8.1300  -28.1530 C.ar   71  TRP71       0.0152
     87  NE1       -5.7540    9.6330  -26.7440 N.ar   71  TRP71      -0.2442
     88  CE2       -6.5470    8.5170  -26.7970 C.ar   71  TRP71       0.0810
     89  CE3       -7.4030    7.0010  -28.4820 C.ar   71  TRP71       0.0012
     90  CZ2       -7.1880    7.8160  -25.7700 C.ar   71  TRP71       0.0191
     91  CZ3       -8.0410    6.3030  -27.4590 C.ar   71  TRP71       0.0001
     92  CH2       -7.9280    6.7150  -26.1190 C.ar   71  TRP71       0.0015
     93  N         -5.7620    7.1520  -33.0020 N.am   72  SER72      -0.1936
     94  CA        -6.1410    7.1590  -34.4110 C.3    72  SER72       0.2055
     95  C         -7.6540    7.0400  -34.5270 C.2    72  SER72       0.2643
     96  O         -8.2880    6.3310  -33.7430 O.2    72  SER72      -0.2714
     97  CB        -5.4720    6.0090  -35.1630 C.3    72  SER72       0.2130
     98  OG        -4.1260    6.3190  -35.4760 O.3    72  SER72      -0.2179
     99  N         -8.2290    7.7400  -35.5010 N.am   73  LEU73      -0.1963
    100  CA        -9.6650    7.6700  -35.7430 C.3    73  LEU73       0.1728
    101  C         -9.9620    7.2450  -37.1710 C.2    73  LEU73       0.2616
    102  O         -9.4420    7.8260  -38.1270 O.2    73  LEU73      -0.2715
    103  CB       -10.3430    9.0130  -35.4420 C.3    73  LEU73       0.0311
    104  CG       -11.8630    9.1390  -35.6110 C.3    73  LEU73       0.0022
    105  CD1      -12.6150    8.4720  -34.4640 C.3    73  LEU73       0.0001
    106  CD2      -12.2610   10.6020  -35.7230 C.3    73  LEU73       0.0001
    107  N        -10.7980    6.2210  -37.3030 N.am   74  CYS74      -0.1954
    108  CA       -11.3030    5.8160  -38.6030 C.3    74  CYS74       0.1843
    109  C        -12.7710    6.1980  -38.7380 C.2    74  CYS74       0.2625
    110  O        -13.5680    6.0060  -37.8150 O.2    74  CYS74      -0.2714
    111  CB       -11.1140    4.3160  -38.8280 C.3    74  CYS74       0.0997
    112  SG       -11.6200    3.7640  -40.4700 S.3    74  CYS74      -0.0797
    113  N        -13.1180    6.7680  -39.8720 N.am   75  LYS75      -0.1963
    114  CA       -14.4690    7.0780  -40.2400 C.3    75  LYS75       0.1728
    115  C        -14.8900    6.3270  -41.5000 C.2    75  LYS75       0.2616
    116  O        -14.2350    6.3010  -42.4800 O.2    75  LYS75      -0.2715
    117  CB       -14.5870    8.5690  -40.4630 C.3    75  LYS75       0.0311
    118  CG       -15.9490    9.1480  -40.3840 C.3    75  LYS75       0.0038
    119  CD       -16.0370   10.4840  -41.1000 C.3    75  LYS75       0.0206
    120  CE       -17.4760   10.9200  -41.3260 C.3    75  LYS75       0.1093
    121  NZ       -17.6900   12.3760  -41.3260 N.3    75  LYS75      -0.1314
    122  N        -16.0210    5.6970  -41.4490 N.am   76  ALA76      -0.1963
    123  CA       -16.5330    4.9660  -42.6040 C.3    76  ALA76       0.1728
    124  C        -17.9800    5.3270  -42.9040 C.2    76  ALA76       0.2616
    125  O        -18.8120    5.4070  -42.0000 O.2    76  ALA76      -0.2715
    126  CB       -16.3930    3.4650  -42.3930 C.3    76  ALA76       0.0334
    127  N        -18.2660    5.5420  -44.1840 N.am   77  TYR77      -0.1974
    128  CA       -19.6200    5.8080  -44.6460 C.3    77  TYR77       0.1639
    129  C        -20.2610    4.4850  -45.0430 C.2    77  TYR77       0.2290
    130  O        -19.7620    3.7900  -45.9330 O.2    77  TYR77      -0.2864
    131  CB       -19.6000    6.7800  -45.8300 C.3    77  TYR77       0.0560
    132  CG       -19.0080    8.1360  -45.5050 C.ar   77  TYR77      -0.0198
    133  CD1      -19.8280    9.2170  -45.1840 C.ar   77  TYR77      -0.0009
    134  CD2      -17.6250    8.3380  -45.5150 C.ar   77  TYR77      -0.0009
    135  CE1      -19.2900   10.4650  -44.8830 C.ar   77  TYR77       0.0417
    136  CE2      -17.0770    9.5800  -45.2130 C.ar   77  TYR77       0.0417
    137  CZ       -17.9140   10.6380  -44.8990 C.ar   77  TYR77       0.1957
    138  OH       -17.3770   11.8690  -44.6030 O.3    77  TYR77      -0.2866
    139  N        -21.7140    0.3430  -48.2580 N.3    80  GLY80      -0.1210
    140  CA       -21.4450   -1.0300  -48.6830 C.3    80  GLY80       0.1956
    141  C        -20.0810   -1.2350  -49.3170 C.2    80  GLY80       0.2612
    142  O        -19.7090   -2.3630  -49.6510 O.2    80  GLY80      -0.2717
    143  N        -19.3110   -0.1710  -49.4600 N.am   81  GLU81      -0.1965
    144  CA       -18.0270   -0.2110  -50.1300 C.3    81  GLU81       0.1733
    145  C        -16.8060   -0.0780  -49.2730 C.2    81  GLU81       0.2617
    146  O        -15.7200   -0.1590  -49.7260 O.2    81  GLU81      -0.2715
    147  CB       -17.9540    0.8720  -51.1600 C.3    81  GLU81       0.0429
    148  CG       -18.0350    0.3680  -52.5320 C.3    81  GLU81       0.1163
    149  CD       -18.8430    1.2480  -53.3240 C.2    81  GLU81       0.3649
    150  OE1      -18.4040    1.6650  -54.4080 O.co2  81  GLU81      -0.2457
    151  OE2      -19.9330    1.5400  -52.8400 O.co2  81  GLU81      -0.2457
    152  N        -16.9910    0.1600  -48.0250 N.am   82  GLY82      -0.1940
    153  CA       -15.8540    0.3340  -47.1250 C.3    82  GLY82       0.2014
    154  C        -16.1130    0.0020  -45.6700 C.2    82  GLY82       0.2639
    155  O        -17.2460    0.0950  -45.1920 O.2    82  GLY82      -0.2714
    156  N        -15.0470   -0.3810  -44.9690 N.am   83  TYR83      -0.1959
    157  CA       -15.1070   -0.6530  -43.5350 C.3    83  TYR83       0.1771
    158  C        -13.8620   -0.1520  -42.8130 C.2    83  TYR83       0.2620
    159  O        -12.7880   -0.0300  -43.4090 O.2    83  TYR83      -0.2715
    160  CB       -15.3040   -2.1500  -43.2650 C.3    83  TYR83       0.0574
    161  CG       -14.1890   -3.0320  -43.7850 C.ar   83  TYR83      -0.0198
    162  CD1      -13.0350   -3.2570  -43.0300 C.ar   83  TYR83      -0.0009
    163  CD2      -14.2900   -3.6460  -45.0310 C.ar   83  TYR83      -0.0009
    164  CE1      -12.0100   -4.0660  -43.5070 C.ar   83  TYR83       0.0417
    165  CE2      -13.2710   -4.4560  -45.5180 C.ar   83  TYR83       0.0417
    166  CZ       -12.1370   -4.6640  -44.7500 C.ar   83  TYR83       0.1957
    167  OH       -11.1280   -5.4660  -45.2290 O.3    83  TYR83      -0.2866
    168  N        -14.0200    0.1200  -41.5220 N.am   84  CYS84      -0.1954
    169  CA       -12.9170    0.5420  -40.6710 C.3    84  CYS84       0.1843
    170  C        -12.2120   -0.6440  -40.0270 C.2    84  CYS84       0.2625
    171  O        -12.8530   -1.5790  -39.5370 O.2    84  CYS84      -0.2714
    172  CB       -13.4060    1.5180  -39.6030 C.3    84  CYS84       0.0997
    173  SG       -13.5510    3.2050  -40.1980 S.3    84  CYS84      -0.0797
    174  N        -10.8850   -0.5840  -40.0410 N.am   85  ASP85      -0.1957
    175  CA       -10.0250   -1.6330  -39.5190 C.3    85  ASP85       0.1840
    176  C         -8.6750   -0.9820  -39.2650 C.2    85  ASP85       0.2622
    177  O         -8.1430   -0.2940  -40.1420 O.2    85  ASP85      -0.2715
    178  CB        -9.8890   -2.7610  -40.5510 C.3    85  ASP85       0.1450
    179  CG        -9.1790   -3.9890  -40.0010 C.2    85  ASP85       0.3671
    180  OD1       -9.4520   -4.3840  -38.8470 O.co2  85  ASP85      -0.2456
    181  OD2       -8.3550   -4.5730  -40.7370 O.co2  85  ASP85      -0.2456
    182  N         -8.1270   -1.1760  -38.0690 N.am   86  TYR86      -0.1960
    183  CA        -6.8070   -0.6370  -37.7620 C.3    86  TYR86       0.1771
    184  C         -5.7310   -1.4180  -38.5200 C.2    86  TYR86       0.2619
    185  O         -5.7050   -2.6500  -38.4730 O.2    86  TYR86      -0.2715
    186  CB        -6.5390   -0.6550  -36.2580 C.3    86  TYR86       0.0574
    187  CG        -5.1440   -0.2020  -35.9180 C.ar   86  TYR86      -0.0198
    188  CD1       -4.7870    1.1430  -36.0070 C.ar   86  TYR86      -0.0009
    189  CD2       -4.1700   -1.1210  -35.5340 C.ar   86  TYR86      -0.0009
    190  CE1       -3.5010    1.5620  -35.7090 C.ar   86  TYR86       0.0417
    191  CE2       -2.8810   -0.7120  -35.2330 C.ar   86  TYR86       0.0417
    192  CZ        -2.5540    0.6310  -35.3220 C.ar   86  TYR86       0.1957
    193  OH        -1.2780    1.0440  -35.0240 O.3    86  TYR86      -0.2866
    194  N         -4.8450   -0.6990  -39.2070 N.am   87  GLN87      -0.1977
    195  CA        -3.9080   -1.3320  -40.1460 C.3    87  GLN87       0.1601
    196  C         -2.4060   -1.1220  -39.8860 C.2    87  GLN87       0.2287
    197  O         -1.5880   -1.9550  -40.2870 O.2    87  GLN87      -0.2864
    198  CB        -4.2060   -0.8880  -41.5890 C.3    87  GLN87       0.0394
    199  CG        -4.3810    0.6230  -41.7810 C.3    87  GLN87       0.0908
    200  CD        -4.4190    1.0370  -43.2460 C.2    87  GLN87       0.2608
    201  OE1       -5.3420    1.7220  -43.6860 O.2    87  GLN87      -0.2717
    202  NE2       -3.4080    0.6250  -44.0060 N.am   87  GLN87      -0.0878
@<TRIPOS>BOND
     1   150   149   ar
     2   149   151   ar
     3   149   148    1
     4   148   147    1
     5   147   144    1
     6   144   143    1
     7   144   145    1
     8   146   145    2
     9   142   141    2
    10   143   141   am
    11   141   140    1
    12   145   152   am
    13   140   139    1
    14   152   153    1
    15   153   154    1
    16   130   129    2
    17   131   132    1
    18   131   128    1
    19   154   155    2
    20   154   156   am
    21   165   163   ar
    22   165   166   ar
    23   134   132   ar
    24   134   136   ar
    25   132   133   ar
    26   167   166    1
    27   136   137   ar
    28   133   135   ar
    29   129   128    1
    30   163   161   ar
    31   156   157    1
    32   137   135   ar
    33   137   138    1
    34   166   164   ar
    35   128   127    1
    36   127   124   am
    37   202   200   am
    38   161   160    1
    39   161   162   ar
    40   201   200    2
    41   157   160    1
    42   157   158    1
    43   164   162   ar
    44   159   158    2
    45   200   199    1
    46   124   123    1
    47   124   125    2
    48   158   168   am
    49   123   126    1
    50   123   122    1
    51   116   115    2
    52   199   198    1
    53   198   195    1
    54   168   169    1
    55   115   122   am
    56   115   114    1
    57   120   121    1
    58   120   119    1
    59   119   118    1
    60   181   179   ar
    61   169   170    1
    62   169   172    1
    63   178   179    1
    64   178   175    1
    65   112   173    1
    66   112   111    1
    67   117   118    1
    68   117   114    1
    69   197   196    2
    70   114   113    1
    71   173   172    1
    72   195   196    1
    73   195   194    1
    74   177   176    2
    75   174   170   am
    76   174   175    1
    77   170   171    2
    78   179   180   ar
    79   113   109   am
    80   175   176    1
    81   176   182   am
    82   194   184   am
    83   111   108    1
    84   109   108    1
    85   109   110    2
    86   108   107    1
    87   184   185    2
    88   184   183    1
    89   102   101    2
    90   182   183    1
    91   183   186    1
    92   107   101   am
    93    62    61    1
    94   101   100    1
    95    60    61   ar
    96    60    58   ar
    97   186   187    1
    98    61    59   ar
    99   188   187   ar
   100   188   190   ar
   101   187   189   ar
   102   100    99    1
   103   100   103    1
   104   106   104    1
   105   190   192   ar
   106   104   103    1
   107   104   105    1
   108   189   191   ar
   109    99    95   am
   110    98    97    1
   111    58    56   ar
   112   192   191   ar
   113   192   193    1
   114    97    94    1
   115    59    57   ar
   116    95    94    1
   117    95    96    2
   118    94    93    1
   119    56    57   ar
   120    56    55    1
   121    72    71   ar
   122    72    70   ar
   123    71    69   ar
   124    82    81    2
   125    55    52    1
   126    70    68   ar
   127    93    81   am
   128    36    37    1
   129    36    33    1
   130    38    40   ar
   131    38    37   ar
   132    43    44    1
   133    69    68   ar
   134    68    67    1
   135    81    80    1
   136    40    42   ar
   137    37    39   ar
   138    34    33    1
   139    34    35    2
   140    44    45    1
   141    44    47    1
   142    33    32    1
   143    51    52    1
   144    51    45   am
   145    67    64    1
   146    52    53    1
   147    45    46    2
   148    42    41   ar
   149    39    41   ar
   150    29    28    2
   151    54    53    2
   152    49    48    1
   153    77    78    1
   154    77    74    1
   155    47    48    1
   156    80    79    1
   157    80    83    1
   158    32    28   am
   159    79    75   am
   160    83    84    1
   161    28    27    1
   162    64    63    1
   163    64    65    1
   164    48    50    1
   165    75    76    2
   166    75    74    1
   167    25    23    1
   168    65    66    2
   169    74    73    1
   170    27    26    1
   171    27    30    1
   172    84    86   ar
   173    84    85   ar
   174    26    21   am
   175    31    30    1
   176    89    86   ar
   177    89    91   ar
   178    23    24    1
   179    23    20    1
   180     8     7   ar
   181     9     7   ar
   182    86    88   ar
   183    85    87   ar
   184     7     6    1
   185    21    20    1
   186    21    22    2
   187    20    19    1
   188    91    92   ar
   189     6     5    1
   190    88    87   ar
   191    88    90   ar
   192    13    12    2
   193    19    12   am
   194    92    90   ar
   195    12    11    1
   196     5     2    1
   197     4     3    2
   198    15    16    1
   199    15    14    2
   200    18    16   ar
   201     3     2    1
   202     3    10   am
   203    11    10    1
   204    11    14    1
   205     2     1    1
   206    16    17   ar
