@<TRIPOS>MOLECULE
tmp/2xcbA00.pdb
 116 111 0 0 0
SMALL
GASTEIGER

@<TRIPOS>ATOM
      1  N        -11.3440   37.7180  -28.6970 N.3    11  GLU11      -0.1245
      2  CA       -11.5640   38.6530  -27.6170 C.3    11  GLU11       0.1567
      3  C        -13.0040   39.1310  -27.5500 C.2    11  GLU11       0.2260
      4  O        -13.6080   39.2140  -26.4690 O.2    11  GLU11      -0.2867
      5  CB       -10.6120   39.8330  -27.7440 C.3    11  GLU11       0.0388
      6  CG       -10.3910   40.5990  -26.4390 C.3    11  GLU11       0.1160
      7  CD       -10.2930   39.6920  -25.1630 C.2    11  GLU11       0.3649
      8  OE1       -9.4410   38.7580  -25.1580 O.co2  11  GLU11      -0.2457
      9  OE2      -11.1070   39.9460  -24.2040 O.co2  11  GLU11      -0.2457
     10  N        -15.0360   36.1640  -26.3210 N.3    14  TYR14      -0.1227
     11  CA       -14.9150   36.0680  -24.8740 C.3    14  TYR14       0.1736
     12  C        -15.7740   37.0840  -24.1690 C.2    14  TYR14       0.2595
     13  O        -16.4930   36.7310  -23.2180 O.2    14  TYR14      -0.2718
     14  CB       -13.4500   36.0870  -24.4150 C.3    14  TYR14       0.0548
     15  CG       -13.3260   36.1880  -22.8830 C.ar   14  TYR14      -0.0200
     16  CD1      -13.4620   35.0610  -22.0940 C.ar   14  TYR14      -0.0009
     17  CD2      -13.1800   37.4370  -22.2360 C.ar   14  TYR14      -0.0009
     18  CE1      -13.3630   35.1300  -20.7090 C.ar   14  TYR14       0.0417
     19  CE2      -13.1110   37.5140  -20.8050 C.ar   14  TYR14       0.0417
     20  CZ       -13.2260   36.3820  -20.0870 C.ar   14  TYR14       0.1957
     21  OH       -13.1390   36.4400  -18.7380 O.3    14  TYR14      -0.2866
     22  N        -15.7480   38.3570  -24.6290 N.am   15  ALA15      -0.1980
     23  CA       -16.6630   39.3790  -24.1310 C.3    15  ALA15       0.1597
     24  C        -18.1250   38.9810  -24.1750 C.2    15  ALA15       0.2287
     25  O        -18.9220   39.3220  -23.2520 O.2    15  ALA15      -0.2864
     26  CB       -16.4980   40.7180  -24.9300 C.3    15  ALA15       0.0319
     27  N        -18.6530   36.2790  -21.5230 N.3    18  PHE18      -0.1227
     28  CA       -18.6220   36.9230  -20.2230 C.3    18  PHE18       0.1736
     29  C        -19.9510   37.6540  -19.9370 C.2    18  PHE18       0.2595
     30  O        -20.4460   37.6720  -18.7870 O.2    18  PHE18      -0.2718
     31  CB       -17.4660   37.9200  -20.2170 C.3    18  PHE18       0.0547
     32  CG       -17.4120   38.8230  -18.9890 C.ar   18  PHE18      -0.0202
     33  CD1      -16.6160   38.4810  -17.8940 C.ar   18  PHE18      -0.0042
     34  CD2      -18.0900   40.0320  -18.9530 C.ar   18  PHE18      -0.0042
     35  CE1      -16.5270   39.3210  -16.7520 C.ar   18  PHE18      -0.0003
     36  CE2      -17.9950   40.8880  -17.8350 C.ar   18  PHE18      -0.0003
     37  CZ       -17.2120   40.5290  -16.7350 C.ar   18  PHE18      -0.0000
     38  N        -20.4840   38.3330  -20.9590 N.am   19  ASN19      -0.1974
     39  CA       -21.6810   39.1430  -20.7500 C.3    19  ASN19       0.1688
     40  C        -22.9040   38.2890  -20.4940 C.2    19  ASN19       0.2292
     41  O        -23.6870   38.5880  -19.5770 O.2    19  ASN19      -0.2864
     42  CB       -21.8870   40.1950  -21.8750 C.3    19  ASN19       0.1181
     43  CG       -20.8660   41.3190  -21.8070 C.2    19  ASN19       0.2629
     44  OD1      -20.3450   41.6510  -20.7430 O.2    19  ASN19      -0.2716
     45  ND2      -20.5390   41.8780  -22.9560 N.am   19  ASN19      -0.0877
     46  N        -22.7480   35.3370  -19.1520 N.3    21  TYR21      -0.1227
     47  CA       -22.4990   34.9250  -17.7670 C.3    21  TYR21       0.1736
     48  C        -22.9820   35.9460  -16.7440 C.2    21  TYR21       0.2595
     49  O        -23.6990   35.5610  -15.8250 O.2    21  TYR21      -0.2718
     50  CB       -21.0070   34.5870  -17.5280 C.3    21  TYR21       0.0548
     51  CG       -20.7520   34.0640  -16.1270 C.ar   21  TYR21      -0.0200
     52  CD1      -21.0870   32.7450  -15.7720 C.ar   21  TYR21      -0.0009
     53  CD2      -20.2230   34.8870  -15.1560 C.ar   21  TYR21      -0.0009
     54  CE1      -20.8770   32.2860  -14.4470 C.ar   21  TYR21       0.0417
     55  CE2      -19.9910   34.4420  -13.8710 C.ar   21  TYR21       0.0417
     56  CZ       -20.2820   33.1400  -13.5320 C.ar   21  TYR21       0.1957
     57  OH       -20.0980   32.7470  -12.2280 O.3    21  TYR21      -0.2866
     58  N        -22.5890   37.2280  -16.8930 N.am   22  GLN22      -0.1979
     59  CA       -23.0410   38.2840  -15.9900 C.3    22  GLN22       0.1601
     60  C        -24.6020   38.3940  -15.9300 C.2    22  GLN22       0.2287
     61  O        -25.1490   38.8150  -14.9380 O.2    22  GLN22      -0.2864
     62  CB       -22.4520   39.6790  -16.3700 C.3    22  GLN22       0.0394
     63  CG       -20.9230   39.7670  -16.4600 C.3    22  GLN22       0.0908
     64  CD       -20.2240   39.4660  -15.1360 C.2    22  GLN22       0.2608
     65  OE1      -20.2210   40.2900  -14.2240 O.2    22  GLN22      -0.2717
     66  NE2      -19.6320   38.2900  -15.0290 N.am   22  GLN22      -0.0878
     67  N        -18.2070   29.4650  -24.0910 N.3    33  PHE33      -0.1241
     68  CA       -16.9070   29.1080  -23.5170 C.3    33  PHE33       0.1605
     69  C        -16.4040   27.7570  -24.0210 C.2    33  PHE33       0.2264
     70  O        -15.1930   27.6120  -24.2250 O.2    33  PHE33      -0.2867
     71  CB       -16.9330   29.1600  -21.9670 C.3    33  PHE33       0.0534
     72  CG       -17.0590   30.5300  -21.4400 C.ar   33  PHE33      -0.0203
     73  CD1      -16.1270   31.4840  -21.7450 C.ar   33  PHE33      -0.0042
     74  CD2      -18.1100   30.8610  -20.5930 C.ar   33  PHE33      -0.0042
     75  CE1      -16.2680   32.7940  -21.2250 C.ar   33  PHE33      -0.0003
     76  CE2      -18.2310   32.1030  -20.0900 C.ar   33  PHE33      -0.0003
     77  CZ       -17.3510   33.0680  -20.4180 C.ar   33  PHE33      -0.0000
     78  N         -8.5450   31.7740  -18.9920 N.3    45  ARG45      -0.1245
     79  CA        -9.8330   32.4580  -18.8480 C.3    45  ARG45       0.1563
     80  C        -11.0060   31.6570  -19.3980 C.2    45  ARG45       0.2260
     81  O        -12.1380   31.6570  -18.8040 O.2    45  ARG45      -0.2867
     82  CB        -9.8570   33.8600  -19.4780 C.3    45  ARG45       0.0307
     83  CG        -8.6990   34.8060  -19.1210 C.3    45  ARG45       0.0489
     84  CD        -8.6480   36.1560  -20.0340 C.3    45  ARG45       0.2205
     85  NE        -8.4650   35.7950  -21.4420 N.pl3  45  ARG45      -0.0865
     86  CZ        -8.8230   36.5340  -22.4880 C.cat  45  ARG45       0.5346
     87  NH1       -9.3720   37.7460  -22.3240 N.pl3  45  ARG45       0.1354
     88  NH2       -8.6000   36.0550  -23.7010 N.pl3  45  ARG45       0.1354
     89  N        -11.9350   28.7500  -16.9190 N.3    48  LEU48      -0.1231
     90  CA       -12.5710   29.4450  -15.7640 C.3    48  LEU48       0.1693
     91  C        -13.9820   29.7410  -16.1380 C.2    48  LEU48       0.2592
     92  O        -14.9140   29.4350  -15.3970 O.2    48  LEU48      -0.2718
     93  CB       -11.8050   30.7590  -15.3750 C.3    48  LEU48       0.0284
     94  CG       -12.3590   31.3000  -14.0200 C.3    48  LEU48       0.0019
     95  CD1      -12.1790   30.2420  -12.9020 C.3    48  LEU48       0.0001
     96  CD2      -11.7300   32.6250  -13.6480 C.3    48  LEU48       0.0001
     97  N        -14.1780   30.3680  -17.3040 N.am   49  GLY49      -0.1957
     98  CA       -15.5610   30.6600  -17.7960 C.3    49  GLY49       0.1869
     99  C        -16.4570   29.3990  -17.9480 C.2    49  GLY49       0.2309
    100  O        -17.6050   29.3400  -17.4110 O.2    49  GLY49      -0.2863
    101  N        -17.2380   27.9900  -14.4440 N.3    52  ALA52      -0.1245
    102  CA       -18.1560   28.7900  -13.6990 C.3    52  ALA52       0.1562
    103  C        -19.5970   28.5500  -14.2000 C.2    52  ALA52       0.2260
    104  O        -20.5600   28.4800  -13.3960 O.2    52  ALA52      -0.2867
    105  CB       -17.7410   30.2450  -13.8550 C.3    52  ALA52       0.0290
    106  N         -8.5000   31.0390   -8.1670 N.3    79  ARG79      -0.1245
    107  CA        -9.9050   30.7450   -8.4690 C.3    79  ARG79       0.1563
    108  C        -10.1640   29.2850   -8.8170 C.2    79  ARG79       0.2260
    109  O        -11.2080   28.7650   -8.4870 O.2    79  ARG79      -0.2867
    110  CB       -10.4730   31.6420   -9.5520 C.3    79  ARG79       0.0307
    111  CG       -10.7710   33.0200   -9.0070 C.3    79  ARG79       0.0489
    112  CD       -11.0670   34.1510  -10.1160 C.3    79  ARG79       0.2205
    113  NE        -9.8720   34.4720  -10.8900 N.pl3  79  ARG79      -0.0865
    114  CZ        -9.8100   35.3880  -11.8770 C.cat  79  ARG79       0.5346
    115  NH1      -10.9100   36.0430  -12.2750 N.pl3  79  ARG79       0.1354
    116  NH2       -8.6410   35.6190  -12.4930 N.pl3  79  ARG79       0.1354
@<TRIPOS>BOND
     1     1     2    1
     2     5     2    1
     3     5     6    1
     4     2     3    1
     5     3     4    2
     6     6     7    1
     7    10    11    1
     8     7     8   ar
     9     7     9   ar
    10    26    23    1
    11    11    14    1
    12    11    12    1
    13    22    12   am
    14    22    23    1
    15    14    15    1
    16    70    69    2
    17    24    23    1
    18    24    25    2
    19    12    13    2
    20    67    68    1
    21    69    68    1
    22    88    86    1
    23    68    71    1
    24    45    43   am
    25    15    17   ar
    26    15    16   ar
    27    86    87    1
    28    86    85    2
    29    17    19   ar
    30    16    18   ar
    31    71    72    1
    32    42    43    1
    33    42    39    1
    34    43    44    2
    35    73    72   ar
    36    73    75   ar
    37    27    28    1
    38    85    84    1
    39    72    74   ar
    40    75    77   ar
    41    38    39    1
    42    38    29   am
    43    19    20   ar
    44    39    40    1
    45    18    20   ar
    46    74    76   ar
    47    40    41    2
    48    77    76   ar
    49    28    31    1
    50    28    29    1
    51    31    32    1
    52    20    21    1
    53    84    83    1
    54    29    30    2
    55    82    83    1
    56    82    79    1
    57    80    79    1
    58    80    81    2
    59    46    47    1
    60    78    79    1
    61    32    34   ar
    62    32    33   ar
    63    34    36   ar
    64    99    98    1
    65    99   100    2
    66    33    35   ar
    67    36    37   ar
    68    98    97    1
    69    47    50    1
    70    47    48    1
    71    50    51    1
    72    97    91   am
    73    89    90    1
    74    58    48   am
    75    58    59    1
    76    35    37   ar
    77    48    49    2
    78    63    62    1
    79    63    64    1
    80    62    59    1
    81    91    90    1
    82    91    92    2
    83    51    52   ar
    84    51    53   ar
    85    59    60    1
    86    60    61    2
    87    52    54   ar
    88    90    93    1
    89    93    94    1
    90    53    55   ar
    91    64    66   am
    92    64    65    2
    93    54    56   ar
    94   101   102    1
    95   103   102    1
    96   103   104    2
    97    94    96    1
    98    94    95    1
    99    55    56   ar
   100   105   102    1
   101    56    57    1
   102   116   114    1
   103   115   114    1
   104   114   113    2
   105   113   112    1
   106   112   111    1
   107   110   111    1
   108   110   107    1
   109   108   109    2
   110   108   107    1
   111   107   106    1
