@<TRIPOS>MOLECULE
tmp/2xchA00.pdb
 174 163 0 0 0
SMALL
GASTEIGER

@<TRIPOS>ATOM
      1  N        -37.6370   13.7850   24.0650 N.3    14  LYS14      -0.1245
      2  CA       -37.5150   15.1950   23.7480 C.3    14  LYS14       0.1561
      3  C        -38.5100   15.6690   22.6910 C.2    14  LYS14       0.2260
      4  O        -38.9870   14.8860   21.8640 O.2    14  LYS14      -0.2867
      5  CB       -36.0930   15.5580   23.3110 C.3    14  LYS14       0.0271
      6  CG       -35.6990   14.9730   21.9790 C.3    14  LYS14       0.0035
      7  CD       -34.2080   15.1310   21.7590 C.3    14  LYS14       0.0206
      8  CE       -33.8130   14.5580   20.4100 C.3    14  LYS14       0.1093
      9  NZ       -32.3020   14.4050   20.2520 N.3    14  LYS14      -0.1314
     10  N        -39.2290   17.4190   19.4000 N.3    16  LEU16      -0.1231
     11  CA       -38.5290   17.5590   18.1140 C.3    16  LEU16       0.1693
     12  C        -38.9310   18.8620   17.4440 C.2    16  LEU16       0.2593
     13  O        -38.1640   19.4330   16.6870 O.2    16  LEU16      -0.2718
     14  CB       -38.8820   16.3810   17.1900 C.3    16  LEU16       0.0284
     15  CG       -38.3590   15.0230   17.7110 C.3    16  LEU16       0.0019
     16  CD1      -38.9120   13.8710   16.8110 C.3    16  LEU16       0.0001
     17  CD2      -36.8180   14.9850   17.7780 C.3    16  LEU16       0.0001
     18  N        -40.1590   19.2990   17.6940 N.am   17  GLY17      -0.1942
     19  CA       -40.6400   20.5690   17.1520 C.3    17  GLY17       0.2014
     20  C        -41.9190   21.0390   17.8290 C.2    17  GLY17       0.2638
     21  O        -42.6840   20.2260   18.3630 O.2    17  GLY17      -0.2714
     22  N        -42.1280   22.3640   17.8270 N.am   18  GLU18      -0.1977
     23  CA       -43.3210   22.9900   18.3940 C.3    18  GLU18       0.1602
     24  C        -43.9690   23.9040   17.3490 C.2    18  GLU18       0.2287
     25  O        -43.4080   24.9470   16.9950 O.2    18  GLU18      -0.2864
     26  CB       -42.9600   23.8260   19.6300 C.3    18  GLU18       0.0415
     27  CG       -42.7160   23.0500   20.8970 C.3    18  GLU18       0.1163
     28  CD       -42.1280   23.9270   22.0110 C.2    18  GLU18       0.3649
     29  OE1      -40.9470   23.6960   22.4020 O.co2  18  GLU18      -0.2457
     30  OE2      -42.8530   24.8480   22.4920 O.co2  18  GLU18      -0.2457
     31  N        -49.5700   22.1150   16.9130 N.3    22  SER22      -0.1217
     32  CA       -49.0980   20.7980   17.3220 C.3    22  SER22       0.1889
     33  C        -47.7040   20.8130   17.9390 C.2    22  SER22       0.2288
     34  O        -46.9460   21.7700   17.7840 O.2    22  SER22      -0.2866
     35  CB       -49.1360   19.8530   16.1190 C.3    22  SER22       0.2089
     36  OG       -48.1480   20.2260   15.1810 O.3    22  SER22      -0.2183
     37  N        -44.3730   17.9990   18.2150 N.3    24  VAL24      -0.1245
     38  CA       -43.8270   16.6960   17.8490 C.3    24  VAL24       0.1561
     39  C        -42.8030   16.2770   18.8810 C.2    24  VAL24       0.2260
     40  O        -41.8800   17.0350   19.1700 O.2    24  VAL24      -0.2867
     41  CB       -43.1860   16.7230   16.4690 C.3    24  VAL24       0.0252
     42  CG1      -42.6900   15.2860   16.1380 C.3    24  VAL24       0.0019
     43  CG2      -44.2280   17.1860   15.4330 C.3    24  VAL24       0.0019
     44  N        -41.8700    9.6140   15.8370 N.3    37  ALA37      -0.1245
     45  CA       -42.0810   11.0230   16.0680 C.3    37  ALA37       0.1562
     46  C        -43.5800   11.1410   16.2420 C.2    37  ALA37       0.2260
     47  O        -44.3680   10.8980   15.2870 O.2    37  ALA37      -0.2867
     48  CB       -41.5590   11.8590   14.8720 C.3    37  ALA37       0.0290
     49  N        -46.7260   13.3000   16.7070 N.3    39  LYS39      -0.1245
     50  CA       -47.2980   14.6400   16.5840 C.3    39  LYS39       0.1561
     51  C        -48.5370   14.7390   17.4690 C.2    39  LYS39       0.2260
     52  O        -49.4730   13.9350   17.3300 O.2    39  LYS39      -0.2867
     53  CB       -47.6880   14.8790   15.1290 C.3    39  LYS39       0.0271
     54  CG       -48.1700   16.3360   14.8100 C.3    39  LYS39       0.0035
     55  CD       -47.8490   16.5950   13.3360 C.3    39  LYS39       0.0206
     56  CE       -48.3240   17.9570   12.8230 C.3    39  LYS39       0.1093
     57  NZ       -47.8320   18.1880   11.4110 N.3    39  LYS39      -0.1314
     58  N        -42.6860   11.0270    4.9670 N.3    71  VAL71      -0.1245
     59  CA       -43.0990   10.6390    6.3300 C.3    71  VAL71       0.1561
     60  C        -44.2390    9.6210    6.2520 C.2    71  VAL71       0.2260
     61  O        -45.1170    9.7380    5.4090 O.2    71  VAL71      -0.2867
     62  CB       -43.5880   11.8860    7.1100 C.3    71  VAL71       0.0252
     63  CG1      -44.8830   12.4610    6.4330 C.3    71  VAL71       0.0019
     64  CG2      -43.7880   11.5760    8.6030 C.3    71  VAL71       0.0019
     65  N        -45.6690    8.9880   13.6510 N.3    87  LEU87      -0.1231
     66  CA       -44.9990    9.2150   12.3850 C.3    87  LEU87       0.1693
     67  C        -43.6260    8.5870   12.3810 C.2    87  LEU87       0.2593
     68  O        -43.0390    8.3370   13.4580 O.2    87  LEU87      -0.2718
     69  CB       -44.8610   10.7270   12.0810 C.3    87  LEU87       0.0284
     70  CG       -46.1440   11.5330   12.2000 C.3    87  LEU87       0.0019
     71  CD1      -45.8870   13.0410   12.0370 C.3    87  LEU87       0.0001
     72  CD2      -47.2000   11.0400   11.2210 C.3    87  LEU87       0.0001
     73  N        -43.0840    8.3620   11.1780 N.am   88  SER88      -0.1938
     74  CA       -41.6780    7.9790   11.1110 C.3    88  SER88       0.2055
     75  C        -40.7980    9.0610   11.7060 C.2    88  SER88       0.2643
     76  O        -41.0800   10.2770   11.5950 O.2    88  SER88      -0.2714
     77  CB       -41.2110    7.6030    9.6900 C.3    88  SER88       0.2130
     78  OG       -41.8090    8.4150    8.7190 O.3    88  SER88      -0.2179
     79  N        -39.7440    8.6140   12.3640 N.am   89  TYR89      -0.1959
     80  CA       -38.7680    9.5190   12.9350 C.3    89  TYR89       0.1771
     81  C        -37.5750    9.6280   11.9680 C.2    89  TYR89       0.2619
     82  O        -36.9150    8.6370   11.6590 O.2    89  TYR89      -0.2715
     83  CB       -38.3390    8.9720   14.2910 C.3    89  TYR89       0.0574
     84  CG       -37.1870    9.7100   14.9350 C.ar   89  TYR89      -0.0198
     85  CD1      -37.1720   11.1140   15.0070 C.ar   89  TYR89      -0.0009
     86  CD2      -36.1260    9.0050   15.4840 C.ar   89  TYR89      -0.0009
     87  CE1      -36.1030   11.7670   15.6070 C.ar   89  TYR89       0.0417
     88  CE2      -35.0650    9.6600   16.0730 C.ar   89  TYR89       0.0417
     89  CZ       -35.0730   11.0390   16.1380 C.ar   89  TYR89       0.1957
     90  OH       -34.0070   11.6690   16.7300 O.3    89  TYR89      -0.2866
     91  N        -37.3210   10.8330   11.4870 N.am   90  ALA90      -0.1963
     92  CA       -36.1680   11.0930   10.6370 C.3    90  ALA90       0.1728
     93  C        -35.0600   11.6210   11.5360 C.2    90  ALA90       0.2616
     94  O        -35.0930   12.7820   11.9610 O.2    90  ALA90      -0.2715
     95  CB       -36.5330   12.1330    9.5510 C.3    90  ALA90       0.0334
     96  N        -34.0800   10.7770   11.8270 N.am   91  LYS91      -0.1963
     97  CA       -33.0930   11.0940   12.8940 C.3    91  LYS91       0.1728
     98  C        -32.1610   12.3040   12.6120 C.2    91  LYS91       0.2616
     99  O        -31.7080   12.9940   13.5440 O.2    91  LYS91      -0.2715
    100  CB       -32.2900    9.8110   13.2390 C.3    91  LYS91       0.0311
    101  CG       -30.8550   10.0700   13.6740 C.3    91  LYS91       0.0038
    102  CD       -29.9770    8.8030   13.6690 C.3    91  LYS91       0.0206
    103  CE       -28.5020    9.1550   13.8920 C.3    91  LYS91       0.1093
    104  NZ       -27.9770   10.3850   13.1480 N.3    91  LYS91      -0.1314
    105  N        -31.8920   12.5880   11.3340 N.am   92  ASN92      -0.1958
    106  CA       -30.9670   13.6740   10.9800 C.3    92  ASN92       0.1819
    107  C        -31.5560   15.0820   10.8080 C.2    92  ASN92       0.2622
    108  O        -30.8230   16.0310   10.5270 O.2    92  ASN92      -0.2715
    109  CB       -30.1100   13.2350    9.8010 C.3    92  ASN92       0.1195
    110  CG       -29.0320   12.2350   10.2250 C.2    92  ASN92       0.2630
    111  OD1      -28.3580   12.4450   11.2410 O.2    92  ASN92      -0.2716
    112  ND2      -28.8850   11.1650    9.4860 N.am   92  ASN92      -0.0877
    113  N        -32.8610   15.2330   11.0360 N.am   93  GLY93      -0.1940
    114  CA       -33.4600   16.5790   11.0680 C.3    93  GLY93       0.2014
    115  C        -33.5870   17.2380    9.6870 C.2    93  GLY93       0.2638
    116  O        -33.6870   16.5380    8.6760 O.2    93  GLY93      -0.2714
    117  N        -33.5560   18.5730    9.6590 N.am   94  GLU94      -0.1977
    118  CA       -33.8350   19.3840    8.4680 C.3    94  GLU94       0.1602
    119  C        -32.6810   19.3860    7.4900 C.2    94  GLU94       0.2287
    120  O        -31.5340   19.5160    7.8700 O.2    94  GLU94      -0.2864
    121  CB       -34.1090   20.8540    8.8350 C.3    94  GLU94       0.0415
    122  CG       -35.3340   21.0920    9.6810 C.3    94  GLU94       0.1163
    123  CD       -35.5160   22.5530   10.0980 C.2    94  GLU94       0.3649
    124  OE1      -34.6590   23.3990    9.7540 O.co2  94  GLU94      -0.2457
    125  OE2      -36.5360   22.8530   10.7720 O.co2  94  GLU94      -0.2457
    126  N        -30.4600   22.3450    7.9070 N.3    97  LYS97      -0.1245
    127  CA       -29.3150   22.2240    8.7990 C.3    97  LYS97       0.1561
    128  C        -28.0170   21.9010    8.0510 C.2    97  LYS97       0.2260
    129  O        -26.9610   22.4810    8.3530 O.2    97  LYS97      -0.2867
    130  CB       -29.5870   21.2110    9.9150 C.3    97  LYS97       0.0271
    131  CG       -28.3510   20.9090   10.7690 C.3    97  LYS97       0.0035
    132  CD       -28.6240   19.8010   11.7730 C.3    97  LYS97       0.0206
    133  CE       -28.3110   18.4280   11.1740 C.3    97  LYS97       0.1093
    134  NZ       -28.8700   17.3150   12.0230 N.3    97  LYS97      -0.1314
    135  N        -36.8880   23.2150    5.4780 N.3   137  GLU137     -0.1231
    136  CA       -37.3420   22.9560    6.8620 C.3   137  GLU137      0.1699
    137  C        -38.2760   21.7460    6.9820 C.2   137  GLU137      0.2592
    138  O        -38.3280   21.1080    8.0340 O.2   137  GLU137     -0.2718
    139  CB       -38.0290   24.2030    7.4590 C.3   137  GLU137      0.0402
    140  CG       -37.0370   25.3670    7.6850 C.3   137  GLU137      0.1161
    141  CD       -36.7310   26.1830    6.4140 C.2   137  GLU137      0.3649
    142  OE1      -37.1780   25.8550    5.2820 O.co2 137  GLU137     -0.2457
    143  OE2      -36.0100   27.1870    6.5600 O.co2 137  GLU137     -0.2457
    144  N        -38.9950   21.4430    5.8930 N.am  138  ASN138     -0.1974
    145  CA       -39.9860   20.3810    5.7970 C.3   138  ASN138      0.1688
    146  C        -39.4420   19.1210    5.1130 C.2   138  ASN138      0.2292
    147  O        -40.1510   18.1120    5.0080 O.2   138  ASN138     -0.2864
    148  CB       -41.1720   20.8760    4.9340 C.3   138  ASN138      0.1181
    149  CG       -42.1350   21.6890    5.7130 C.2   138  ASN138      0.2629
    150  OD1      -43.0320   22.3470    5.1500 O.2   138  ASN138     -0.2716
    151  ND2      -41.9940   21.6390    7.0530 N.am  138  ASN138     -0.0877
    152  N        -36.8510   16.3740    5.5290 N.3   140  LEU140     -0.1245
    153  CA       -36.0180   15.8470    6.6070 C.3   140  LEU140      0.1561
    154  C        -35.0610   14.8210    6.0420 C.2   140  LEU140      0.2260
    155  O        -35.2180   14.3800    4.9030 O.2   140  LEU140     -0.2867
    156  CB       -36.9140   15.2330    7.6950 C.3   140  LEU140      0.0270
    157  CG       -38.0810   16.0950    8.2140 C.3   140  LEU140      0.0019
    158  CD1      -38.6830   15.4200    9.4470 C.3   140  LEU140      0.0001
    159  CD2      -37.6600   17.5470    8.5530 C.3   140  LEU140      0.0001
    160  N        -42.1780   16.0530    4.9700 N.3   150  THR150     -0.1203
    161  CA       -43.1370   16.1080    6.0610 C.3   150  THR150      0.1994
    162  C        -44.0490   17.3190    5.9370 C.2   150  THR150      0.2617
    163  O        -43.9170   18.1120    5.0200 O.2   150  THR150     -0.2717
    164  CB       -42.4070   16.1610    7.4660 C.3   150  THR150      0.1784
    165  OG1      -41.7020   17.4100    7.6410 O.3   150  THR150     -0.2211
    166  CG2      -41.3990   15.0230    7.5520 C.3   150  THR150      0.0376
    167  N        -44.9940   17.4050    6.8710 N.am  151  ASP151     -0.1973
    168  CA       -45.8640   18.5760    7.0780 C.3   151  ASP151      0.1709
    169  C        -46.9200   18.7510    6.0270 C.2   151  ASP151      0.2293
    170  O        -46.8180   19.6490    5.1620 O.2   151  ASP151     -0.2864
    171  CB       -45.0780   19.8780    7.2550 C.3   151  ASP151      0.1436
    172  CG       -45.9650   21.0290    7.8170 C.2   151  ASP151      0.3671
    173  OD1      -47.1680   20.7810    8.1290 O.co2 151  ASP151     -0.2456
    174  OD2      -45.4530   22.1670    7.9390 O.co2 151  ASP151     -0.2456
@<TRIPOS>BOND
     1   155   154    2
     2   148   149    1
     3   148   145    1
     4    58    59    1
     5   160   161    1
     6   147   146    2
     7   163   162    2
     8   146   145    1
     9   150   149    2
    10   170   169    2
    11   142   141   ar
    12    61    60    2
    13   135   136    1
    14   152   153    1
    15   149   151   am
    16   145   144    1
    17   144   137   am
    18   162   161    1
    19   162   167   am
    20   169   168    1
    21   154   153    1
    22   161   164    1
    23    60    59    1
    24    59    62    1
    25   141   143   ar
    26   141   140    1
    27    63    62    1
    28   153   156    1
    29   136   137    1
    30   136   139    1
    31   167   168    1
    32   137   138    2
    33   168   171    1
    34    62    64    1
    35   171   172    1
    36   139   140    1
    37   164   166    1
    38   164   165    1
    39   119   120    2
    40   119   118    1
    41   156   157    1
    42   172   174   ar
    43   172   173   ar
    44   126   127    1
    45   128   129    2
    46   128   127    1
    47   157   159    1
    48   157   158    1
    49   118   121    1
    50   118   117    1
    51   116   115    2
    52    78    77    1
    53   127   130    1
    54   121   122    1
    55   112   110   am
    56    95    92    1
    57   117   115   am
    58   122   123    1
    59   115   114    1
    60    77    74    1
    61   124   123   ar
    62   109   110    1
    63   109   106    1
    64   130   131    1
    65   123   125   ar
    66   110   111    2
    67   108   107    2
    68    92    91    1
    69    92    93    1
    70   131   132    1
    71   107   106    1
    72   107   113   am
    73   106   105    1
    74   113   114    1
    75    74    73    1
    76    74    75    1
    77   133   132    1
    78   133   134    1
    79    73    67   am
    80    72    70    1
    81   105    98   am
    82    57    56    1
    83    91    81   am
    84    93    96   am
    85    93    94    2
    86    76    75    2
    87    82    81    2
    88    75    79   am
    89    96    97    1
    90    81    80    1
    91    71    70    1
    92    69    70    1
    93    69    66    1
    94    79    80    1
    95    67    66    1
    96    67    68    2
    97    66    65    1
    98    98    97    1
    99    98    99    2
   100    56    55    1
   101    97   100    1
   102    80    83    1
   103   104   103    1
   104   100   101    1
   105    55    54    1
   106   102   101    1
   107   102   103    1
   108    83    84    1
   109    54    53    1
   110    48    45    1
   111    84    85   ar
   112    84    86   ar
   113    85    87   ar
   114    53    50    1
   115    36    35    1
   116    47    46    2
   117    43    41    1
   118    86    88   ar
   119    87    89   ar
   120    44    45    1
   121    45    46    1
   122    88    89   ar
   123    35    32    1
   124    89    90    1
   125    42    41    1
   126    41    38    1
   127    50    49    1
   128    50    51    1
   129    13    12    2
   130    16    15    1
   131    31    32    1
   132    25    24    2
   133    19    18    1
   134    19    20    1
   135    14    15    1
   136    14    11    1
   137    32    33    1
   138    52    51    2
   139    24    23    1
   140    12    18   am
   141    12    11    1
   142    15    17    1
   143    34    33    2
   144    22    20   am
   145    22    23    1
   146    20    21    2
   147    38    37    1
   148    38    39    1
   149    11    10    1
   150    23    26    1
   151    39    40    2
   152    26    27    1
   153     9     8    1
   154     8     7    1
   155    27    28    1
   156     7     6    1
   157     4     3    2
   158     6     5    1
   159    28    29   ar
   160    28    30   ar
   161     3     2    1
   162     5     2    1
   163     2     1    1
