@<TRIPOS>MOLECULE
tmp/2xckA00.pdb
 215 203 0 0 0
SMALL
GASTEIGER

@<TRIPOS>ATOM
      1  N        -30.7000  -25.8070   39.8020 N.3    11  LYS11      -0.1231
      2  CA       -31.7910  -24.9670   39.3770 C.3    11  LYS11       0.1693
      3  C        -32.7290  -25.6080   38.3140 C.2    11  LYS11       0.2592
      4  O        -32.3020  -26.4090   37.4790 O.2    11  LYS11      -0.2718
      5  CB       -31.2550  -23.6110   38.9000 C.3    11  LYS11       0.0285
      6  CG       -30.7250  -23.6340   37.4960 C.3    11  LYS11       0.0035
      7  CD       -30.2270  -22.2480   37.0380 C.3    11  LYS11       0.0206
      8  CE       -29.1720  -22.4510   35.9110 C.3    11  LYS11       0.1093
      9  NZ       -29.0880  -21.3780   34.8620 N.3    11  LYS11      -0.1314
     10  N        -34.0020  -25.2220   38.4020 N.am   12  ILE12      -0.1966
     11  CA       -35.0670  -25.5150   37.4690 C.3    12  ILE12       0.1727
     12  C        -34.8770  -24.7130   36.1660 C.2    12  ILE12       0.2616
     13  O        -34.7260  -23.4890   36.1960 O.2    12  ILE12      -0.2715
     14  CB       -36.4600  -25.1660   38.1170 C.3    12  ILE12       0.0290
     15  CG1      -36.7790  -26.1920   39.2480 C.3    12  ILE12       0.0022
     16  CG2      -37.5710  -25.0990   37.0680 C.3    12  ILE12       0.0023
     17  CD1      -38.0680  -25.8410   40.0970 C.3    12  ILE12       0.0001
     18  N        -34.8610  -25.4140   35.0320 N.am   13  LEU13      -0.1963
     19  CA       -34.6270  -24.7690   33.7150 C.3    13  LEU13       0.1728
     20  C        -35.9620  -24.4900   33.0720 C.2    13  LEU13       0.2617
     21  O        -36.1090  -23.5230   32.3420 O.2    13  LEU13      -0.2715
     22  CB       -33.7630  -25.6480   32.8070 C.3    13  LEU13       0.0311
     23  CG       -32.3320  -25.8250   33.3880 C.3    13  LEU13       0.0022
     24  CD1      -31.4970  -26.7660   32.4850 C.3    13  LEU13       0.0001
     25  CD2      -31.6180  -24.4740   33.6110 C.3    13  LEU13       0.0001
     26  N        -36.9320  -25.3380   33.3740 N.am   14  GLY14      -0.1940
     27  CA       -38.3010  -25.0980   33.0100 C.3    14  GLY14       0.2014
     28  C        -39.2940  -26.0140   33.7160 C.2    14  GLY14       0.2639
     29  O        -38.9350  -27.0730   34.2340 O.2    14  GLY14      -0.2714
     30  N        -40.5510  -25.5730   33.7250 N.am   15  GLU15      -0.1963
     31  CA       -41.6660  -26.2910   34.3560 C.3    15  GLU15       0.1733
     32  C        -42.8730  -26.4180   33.4510 C.2    15  GLU15       0.2617
     33  O        -43.3000  -25.4520   32.8570 O.2    15  GLU15      -0.2715
     34  CB       -42.1390  -25.5460   35.5810 C.3    15  GLU15       0.0429
     35  CG       -41.2250  -25.6330   36.7350 C.3    15  GLU15       0.1163
     36  CD       -41.6730  -24.6860   37.8130 C.2    15  GLU15       0.3649
     37  OE1      -41.1430  -23.5430   37.8810 O.co2  15  GLU15      -0.2457
     38  OE2      -42.5990  -25.0820   38.5540 O.co2  15  GLU15      -0.2457
     39  N        -43.4330  -27.6160   33.3680 N.am   16  GLY16      -0.1940
     40  CA       -44.7260  -27.8150   32.7270 C.3    16  GLY16       0.2014
     41  C        -45.7420  -28.3180   33.7420 C.2    16  GLY16       0.2639
     42  O        -45.5510  -28.2240   34.9680 O.2    16  GLY16      -0.2714
     43  N        -46.8420  -28.8140   33.1900 N.am   17  SER17      -0.1949
     44  CA       -47.8930  -29.6150   33.8700 C.3    17  SER17       0.1924
     45  C        -47.6000  -30.0320   35.3320 C.2    17  SER17       0.2314
     46  O        -47.7530  -29.2320   36.2710 O.2    17  SER17      -0.2863
     47  CB       -48.1160  -30.8640   33.0130 C.3    17  SER17       0.2116
     48  OG       -46.8740  -31.5460   32.8350 O.3    17  SER17      -0.2180
     49  N        -44.1850  -31.5340   35.8260 N.3    19  SER19      -0.1202
     50  CA       -43.0790  -31.6740   34.8860 C.3    19  SER19       0.2020
     51  C        -42.0620  -30.6460   35.3150 C.2    19  SER19       0.2619
     52  O        -42.4190  -29.5780   35.8440 O.2    19  SER19      -0.2717
     53  CB       -43.5400  -31.3250   33.4750 C.3    19  SER19       0.2103
     54  OG       -42.8300  -32.0890   32.5420 O.3    19  SER19      -0.2182
     55  N        -40.7930  -30.9860   35.1270 N.am   20  THR20      -0.1938
     56  CA       -39.7220  -30.0900   35.4620 C.3    20  THR20       0.2028
     57  C        -38.4850  -30.5380   34.7010 C.2    20  THR20       0.2642
     58  O        -38.1870  -31.7210   34.6440 O.2    20  THR20      -0.2714
     59  CB       -39.4240  -30.1210   36.9950 C.3    20  THR20       0.1808
     60  OG1      -40.6460  -30.1710   37.7310 O.3    20  THR20      -0.2208
     61  CG2      -38.6460  -28.8940   37.4310 C.3    20  THR20       0.0379
     62  N        -37.7870  -29.5670   34.1230 N.am   21  THR21      -0.1950
     63  CA       -36.4150  -29.7300   33.7000 C.3    21  THR21       0.1897
     64  C        -35.5220  -29.0870   34.7520 C.2    21  THR21       0.2313
     65  O        -35.6750  -27.8890   35.0670 O.2    21  THR21      -0.2863
     66  CB       -36.1400  -29.1180   32.3200 C.3    21  THR21       0.1794
     67  OG1      -37.1100  -29.6220   31.3670 O.3    21  THR21      -0.2208
     68  CG2      -34.7100  -29.4860   31.8790 C.3    21  THR21       0.0378
     69  N        -29.2840  -31.6830   31.6830 N.3    34  ALA34      -0.1245
     70  CA       -30.5590  -31.1060   31.9050 C.3    34  ALA34       0.1562
     71  C        -31.4600  -32.3290   32.0190 C.2    34  ALA34       0.2260
     72  O        -31.6310  -33.0700   31.0290 O.2    34  ALA34      -0.2867
     73  CB       -30.9970  -30.1820   30.7160 C.3    34  ALA34       0.0290
     74  N        -35.0440  -33.9860   32.4800 N.3    36  LYS36      -0.1245
     75  CA       -36.4720  -33.8220   32.4180 C.3    36  LYS36       0.1561
     76  C        -37.1450  -34.8500   33.3100 C.2    36  LYS36       0.2260
     77  O        -36.8830  -36.0650   33.2050 O.2    36  LYS36      -0.2867
     78  CB       -36.9880  -33.9320   30.9790 C.3    36  LYS36       0.0271
     79  CG       -38.4900  -33.5210   30.8830 C.3    36  LYS36       0.0035
     80  CD       -39.1090  -33.7870   29.5380 C.3    36  LYS36       0.0206
     81  CE       -38.7920  -32.6770   28.5900 C.3    36  LYS36       0.1093
     82  NZ       -39.7840  -32.6190   27.4410 N.3    36  LYS36      -0.1314
     83  N        -40.7940  -36.3250   34.9040 N.3    38  LEU38      -0.1245
     84  CA       -42.2140  -36.4340   34.5810 C.3    38  LEU38       0.1561
     85  C        -42.8700  -37.3720   35.5890 C.2    38  LEU38       0.2260
     86  O        -42.3930  -38.4700   35.8990 O.2    38  LEU38      -0.2867
     87  CB       -42.4590  -36.9190   33.1190 C.3    38  LEU38       0.0270
     88  CG       -41.8110  -36.2920   31.8600 C.3    38  LEU38       0.0019
     89  CD1      -40.3420  -36.7090   31.7720 C.3    38  LEU38       0.0001
     90  CD2      -42.4690  -36.8130   30.6090 C.3    38  LEU38       0.0001
     91  N        -41.7380  -39.2620   22.5490 N.3    55  GLU55      -0.1245
     92  CA       -40.6280  -38.3850   22.8540 C.3    55  GLU55       0.1567
     93  C        -39.3040  -39.1380   23.0470 C.2    55  GLU55       0.2260
     94  O        -38.2730  -38.7460   22.4740 O.2    55  GLU55      -0.2867
     95  CB       -40.9330  -37.5760   24.1070 C.3    55  GLU55       0.0388
     96  CG       -39.8330  -36.6420   24.5160 C.3    55  GLU55       0.1160
     97  CD       -40.1830  -35.7760   25.7220 C.2    55  GLU55       0.3649
     98  OE1      -41.3200  -35.9330   26.2950 O.co2  55  GLU55      -0.2457
     99  OE2      -39.3040  -34.9380   26.0980 O.co2  55  GLU55      -0.2457
    100  N        -36.1380  -39.0490   20.2750 N.3    59  MET59      -0.1245
    101  CA       -34.8450  -38.5520   20.7530 C.3    59  MET59       0.1570
    102  C        -33.7710  -39.6080   20.6980 C.2    59  MET59       0.2261
    103  O        -32.5760  -39.2700   20.5040 O.2    59  MET59      -0.2867
    104  CB       -34.9190  -37.9560   22.1590 C.3    59  MET59       0.0387
    105  CG       -35.4020  -36.5130   22.1740 C.3    59  MET59       0.0595
    106  SD       -35.4410  -35.9090   23.8920 S.3    59  MET59      -0.1393
    107  CE       -36.4950  -34.4950   23.7380 C.3    59  MET59       0.0692
    108  N        -30.9550  -31.6590   20.7820 N.3    68  VAL68      -0.1245
    109  CA       -30.7250  -32.1100   22.1460 C.3    68  VAL68       0.1561
    110  C        -30.5970  -33.6300   22.0840 C.2    68  VAL68       0.2260
    111  O        -31.3290  -34.2660   21.3370 O.2    68  VAL68      -0.2867
    112  CB       -31.8710  -31.6060   23.0900 C.3    68  VAL68       0.0252
    113  CG1      -31.9360  -32.3750   24.3780 C.3    68  VAL68       0.0019
    114  CG2      -31.6660  -30.0770   23.4120 C.3    68  VAL68       0.0019
    115  N        -30.6510  -35.2160   29.3980 N.3    84  LEU84      -0.1231
    116  CA       -30.5800  -34.5270   28.1180 C.3    84  LEU84       0.1693
    117  C        -29.3450  -33.6500   28.1340 C.2    84  LEU84       0.2593
    118  O        -28.8850  -33.2820   29.2090 O.2    84  LEU84      -0.2718
    119  CB       -31.8270  -33.6710   27.8560 C.3    84  LEU84       0.0284
    120  CG       -33.1780  -34.4080   27.9070 C.3    84  LEU84       0.0019
    121  CD1      -34.3870  -33.4570   27.7510 C.3    84  LEU84       0.0001
    122  CD2      -33.2530  -35.4960   26.8520 C.3    84  LEU84       0.0001
    123  N        -28.7950  -33.3250   26.9480 N.am   85  SER85      -0.1938
    124  CA       -27.7100  -32.3500   26.8890 C.3    85  SER85       0.2055
    125  C        -28.2060  -31.0880   27.4980 C.2    85  SER85       0.2643
    126  O        -29.3850  -30.7970   27.4580 O.2    85  SER85      -0.2714
    127  CB       -27.2360  -32.0810   25.4640 C.3    85  SER85       0.2130
    128  OG       -28.2850  -32.3130   24.5740 O.3    85  SER85      -0.2179
    129  N        -27.2940  -30.3290   28.0800 N.am   86  TYR86      -0.1959
    130  CA       -27.6200  -29.0810   28.6700 C.3    86  TYR86       0.1771
    131  C        -27.1920  -27.9040   27.7450 C.2    86  TYR86       0.2619
    132  O        -26.0130  -27.7580   27.4030 O.2    86  TYR86      -0.2715
    133  CB       -26.9570  -29.0250   30.0580 C.3    86  TYR86       0.0574
    134  CG       -26.9690  -27.6330   30.6920 C.ar   86  TYR86      -0.0198
    135  CD1      -28.1810  -26.8930   30.8110 C.ar   86  TYR86      -0.0009
    136  CD2      -25.7930  -27.0660   31.1970 C.ar   86  TYR86      -0.0009
    137  CE1      -28.2110  -25.6420   31.3950 C.ar   86  TYR86       0.0417
    138  CE2      -25.8330  -25.7930   31.8080 C.ar   86  TYR86       0.0417
    139  CZ       -27.0640  -25.1040   31.9010 C.ar   86  TYR86       0.1957
    140  OH       -27.1290  -23.8550   32.4790 O.3    86  TYR86      -0.2866
    141  N        -28.1550  -27.0920   27.3070 N.am   87  ALA87      -0.1963
    142  CA       -27.8480  -25.9290   26.4900 C.3    87  ALA87       0.1728
    143  C        -27.7110  -24.7250   27.3940 C.2    87  ALA87       0.2616
    144  O        -28.7120  -24.1230   27.8120 O.2    87  ALA87      -0.2715
    145  CB       -28.9190  -25.6790   25.3930 C.3    87  ALA87       0.0334
    146  N        -26.4600  -24.3760   27.6690 N.am   88  LYS88      -0.1963
    147  CA       -26.1140  -23.3630   28.6720 C.3    88  LYS88       0.1728
    148  C        -26.7620  -22.0240   28.4120 C.2    88  LYS88       0.2616
    149  O        -27.2220  -21.3770   29.3320 O.2    88  LYS88      -0.2715
    150  CB       -24.5900  -23.1830   28.7690 C.3    88  LYS88       0.0311
    151  CG       -24.0110  -24.1680   29.7810 C.3    88  LYS88       0.0038
    152  CD       -22.5630  -24.6510   29.4020 C.3    88  LYS88       0.0206
    153  CE       -22.4320  -26.1600   29.5950 C.3    88  LYS88       0.1093
    154  NZ       -21.9920  -26.7800   28.3090 N.3    88  LYS88      -0.1314
    155  N        -26.7990  -21.6270   27.1410 N.am   89  ASN89      -0.1958
    156  CA       -27.2620  -20.2780   26.7660 C.3    89  ASN89       0.1819
    157  C        -28.7610  -20.0450   26.6240 C.2    89  ASN89       0.2622
    158  O        -29.1770  -18.9510   26.2790 O.2    89  ASN89      -0.2715
    159  CB       -26.4620  -19.7730   25.5750 C.3    89  ASN89       0.1195
    160  CG       -25.0710  -19.2860   25.9860 C.2    89  ASN89       0.2630
    161  OD1      -24.9490  -18.4590   26.8900 O.2    89  ASN89      -0.2716
    162  ND2      -24.0350  -19.8120   25.3520 N.am   89  ASN89      -0.0877
    163  N        -29.5700  -21.0530   26.9580 N.am   90  GLY90      -0.1940
    164  CA       -31.0170  -20.9450   26.8920 C.3    90  GLY90       0.2014
    165  C        -31.6490  -20.8160   25.4920 C.2    90  GLY90       0.2638
    166  O        -31.1110  -21.3200   24.5100 O.2    90  GLY90      -0.2714
    167  N        -32.7890  -20.1190   25.4430 N.am   91  GLU91      -0.1977
    168  CA       -33.6580  -19.9740   24.2890 C.3    91  GLU91       0.1602
    169  C        -33.1870  -18.9690   23.2860 C.2    91  GLU91       0.2287
    170  O        -32.8090  -17.8580   23.6410 O.2    91  GLU91      -0.2864
    171  CB       -35.0470  -19.5240   24.7290 C.3    91  GLU91       0.0415
    172  CG       -35.7860  -20.5840   25.5310 C.3    91  GLU91       0.1163
    173  CD       -37.0400  -20.0440   26.1840 C.2    91  GLU91       0.3649
    174  OE1      -37.4930  -18.9210   25.8190 O.co2  91  GLU91      -0.2457
    175  OE2      -37.5580  -20.7510   27.0660 O.co2  91  GLU91      -0.2457
    176  N        -34.6990  -15.6460   23.8920 N.3    94  LYS94      -0.1245
    177  CA       -33.9980  -14.7350   24.7990 C.3    94  LYS94       0.1561
    178  C        -33.1780  -13.7540   23.9990 C.2    94  LYS94       0.2260
    179  O        -33.2070  -12.5510   24.2850 O.2    94  LYS94      -0.2867
    180  CB       -33.1110  -15.4860   25.7930 C.3    94  LYS94       0.0271
    181  CG       -32.3410  -14.6110   26.7800 C.3    94  LYS94       0.0035
    182  CD       -31.3650  -15.4540   27.6660 C.3    94  LYS94       0.0206
    183  CE       -30.0780  -15.7750   26.9110 C.3    94  LYS94       0.1093
    184  NZ       -29.0940  -16.7150   27.6240 N.3    94  LYS94      -0.1314
    185  N        -38.1470  -23.3380   21.7260 N.3   135  ASN135     -0.1240
    186  CA       -37.6860  -24.7290   21.5130 C.3   135  ASN135      0.1653
    187  C        -36.3170  -24.8430   20.8000 C.2   135  ASN135      0.2266
    188  O        -35.8130  -25.9320   20.5940 O.2   135  ASN135     -0.2867
    189  CB       -38.7270  -25.4740   20.6310 C.3   135  ASN135      0.1155
    190  CG       -39.9040  -25.9600   21.4280 C.2   135  ASN135      0.2627
    191  OD1      -40.9200  -26.3950   20.8820 O.2   135  ASN135     -0.2716
    192  ND2      -39.7720  -25.9120   22.7370 N.am  135  ASN135     -0.0877
    193  N        -32.7720  -24.0720   21.3660 N.3   137  LEU137     -0.1245
    194  CA       -31.8970  -23.6890   22.4600 C.3   137  LEU137      0.1561
    195  C        -30.5200  -23.3630   21.9120 C.2   137  LEU137      0.2260
    196  O        -30.2050  -23.7560   20.7760 O.2   137  LEU137     -0.2867
    197  CB       -31.8290  -24.8300   23.4700 C.3   137  LEU137      0.0270
    198  CG       -33.1730  -25.2220   24.0540 C.3   137  LEU137      0.0019
    199  CD1      -32.9210  -26.1600   25.1540 C.3   137  LEU137      0.0001
    200  CD2      -34.0120  -24.0250   24.5290 C.3   137  LEU137      0.0001
    201  N        -35.1780  -28.7940   20.6650 N.3   147  THR147     -0.1203
    202  CA       -35.7660  -29.6590   21.6670 C.3   147  THR147      0.1994
    203  C        -37.2690  -29.7260   21.5480 C.2   147  THR147      0.2617
    204  O        -37.8390  -29.1630   20.5890 O.2   147  THR147     -0.2717
    205  CB       -35.3990  -29.1690   23.0730 C.3   147  THR147      0.1784
    206  OG1      -36.2750  -29.8230   24.0060 O.3   147  THR147     -0.2211
    207  CG2      -35.4800  -27.6210   23.2020 C.3   147  THR147      0.0376
    208  N        -37.8820  -30.4300   22.5060 N.am  148  ASP148     -0.1973
    209  CA       -39.3560  -30.5880   22.6760 C.3   148  ASP148      0.1709
    210  C        -39.9830  -31.4610   21.6090 C.2   148  ASP148      0.2293
    211  O        -40.6850  -30.9430   20.7090 O.2   148  ASP148     -0.2864
    212  CB       -40.0660  -29.2040   22.7590 C.3   148  ASP148      0.1436
    213  CG       -41.5630  -29.2870   23.1550 C.2   148  ASP148      0.3671
    214  OD1      -42.1010  -30.3760   23.4100 O.co2 148  ASP148     -0.2456
    215  OD2      -42.2140  -28.2160   23.2150 O.co2 148  ASP148     -0.2456
@<TRIPOS>BOND
     1   100   101    1
     2   103   102    2
     3   204   203    2
     4   188   187    2
     5   189   190    1
     6   189   186    1
     7   201   202    1
     8   102   101    1
     9   211   210    2
    10   101   104    1
    11   196   195    2
    12   108   109    1
    13   187   186    1
    14   191   190    2
    15   111   110    2
    16   193   194    1
    17   190   192   am
    18   186   185    1
    19   203   202    1
    20   203   208   am
    21   210   209    1
    22   202   205    1
    23   195   194    1
    24   110   109    1
    25   109   112    1
    26   104   105    1
    27   105   106    1
    28   194   197    1
    29    94    93    2
    30   208   209    1
    31    91    92    1
    32   209   212    1
    33   212   213    1
    34    92    93    1
    35    92    95    1
    36   205   207    1
    37   205   206    1
    38   112   114    1
    39   112   113    1
    40   213   215   ar
    41   213   214   ar
    42   169   170    2
    43   169   168    1
    44   197   198    1
    45   107   106    1
    46   176   177    1
    47   178   179    2
    48   178   177    1
    49   198   200    1
    50   198   199    1
    51    95    96    1
    52   168   171    1
    53   168   167    1
    54   166   165    2
    55    96    97    1
    56   128   127    1
    57   171   172    1
    58   177   180    1
    59   162   160   am
    60   145   142    1
    61   167   165   am
    62   127   124    1
    63   165   164    1
    64   172   173    1
    65   159   160    1
    66   159   156    1
    67    97    99   ar
    68    97    98   ar
    69   180   181    1
    70   174   173   ar
    71   160   161    2
    72   173   175   ar
    73   158   157    2
    74   142   141    1
    75   142   143    1
    76   157   156    1
    77   157   163   am
    78   156   155    1
    79   181   182    1
    80   122   120    1
    81   124   123    1
    82   124   125    1
    83   164   163    1
    84   183   184    1
    85   183   182    1
    86   123   117   am
    87   155   148   am
    88   141   131   am
    89   143   146   am
    90   143   144    2
    91   132   131    2
    92    82    81    1
    93   126   125    2
    94   125   129   am
    95   146   147    1
    96   131   130    1
    97   121   120    1
    98   119   120    1
    99   119   116    1
   100   129   130    1
   101   116   117    1
   102   116   115    1
   103   117   118    2
   104   154   153    1
   105   148   147    1
   106   148   149    2
   107    81    80    1
   108   130   133    1
   109   147   150    1
   110   150   151    1
   111   152   153    1
   112   152   151    1
   113    80    79    1
   114   133   134    1
   115    90    88    1
   116   134   135   ar
   117   134   136   ar
   118    73    70    1
   119   135   137   ar
   120    79    78    1
   121    78    75    1
   122    72    71    2
   123   136   138   ar
   124    67    66    1
   125   137   139   ar
   126    69    70    1
   127    89    88    1
   128   138   139   ar
   129    88    87    1
   130    68    66    1
   131   139   140    1
   132    70    71    1
   133    66    63    1
   134    21    20    2
   135    75    74    1
   136    75    76    1
   137    24    23    1
   138    54    53    1
   139    40    39    1
   140    40    41    1
   141    22    23    1
   142    22    19    1
   143    48    47    1
   144    33    32    2
   145    27    26    1
   146    27    28    1
   147    47    44    1
   148    20    26   am
   149    20    19    1
   150    87    84    1
   151    43    41   am
   152    43    44    1
   153    77    76    2
   154    39    32   am
   155    23    25    1
   156    32    31    1
   157    53    50    1
   158    63    62    1
   159    63    64    1
   160    19    18    1
   161    28    30   am
   162    28    29    2
   163    30    31    1
   164    41    42    2
   165    44    45    1
   166    62    57   am
   167    31    34    1
   168    84    83    1
   169    84    85    1
   170    58    57    2
   171    57    56    1
   172    64    65    2
   173     9     8    1
   174    50    51    1
   175    50    49    1
   176    18    12   am
   177    55    51   am
   178    55    56    1
   179    51    52    2
   180    45    46    2
   181    56    59    1
   182    34    35    1
   183    85    86    2
   184     8     7    1
   185    12    13    2
   186    12    11    1
   187    35    36    1
   188    59    61    1
   189    59    60    1
   190     7     6    1
   191    16    14    1
   192    11    14    1
   193    11    10    1
   194     4     3    2
   195     6     5    1
   196    36    37   ar
   197    36    38   ar
   198    14    15    1
   199     3    10   am
   200     3     2    1
   201     5     2    1
   202    15    17    1
   203     2     1    1
