@<TRIPOS>MOLECULE
tmp/2xclA00.pdb
 223 203 0 0 0
SMALL
GASTEIGER

@<TRIPOS>ATOM
      1  N         19.5570   44.6060   44.9370 N.3    69  GLU69      -0.1245
      2  CA        19.2660   46.0110   44.7220 C.3    69  GLU69       0.1567
      3  C         18.6140   46.6810   45.9240 C.2    69  GLU69       0.2260
      4  O         18.8250   47.8610   46.1750 O.2    69  GLU69      -0.2867
      5  CB        18.3640   46.1750   43.4830 C.3    69  GLU69       0.0388
      6  CG        17.0190   45.4600   43.5810 C.3    69  GLU69       0.1160
      7  CD        17.0430   44.0060   43.0790 C.2    69  GLU69       0.3649
      8  OE1       18.1230   43.3940   43.0070 O.co2  69  GLU69      -0.2457
      9  OE2       15.9640   43.4650   42.7450 O.co2  69  GLU69      -0.2457
     10  N         18.2900   52.9860   39.5990 N.3    98  GLU98      -0.1245
     11  CA        17.4280   51.7950   39.5090 C.3    98  GLU98       0.1567
     12  C         16.1270   51.9560   40.3170 C.2    98  GLU98       0.2260
     13  O         15.0590   51.5020   39.9100 O.2    98  GLU98      -0.2867
     14  CB        18.1650   50.5480   40.0320 C.3    98  GLU98       0.0388
     15  CG        17.3550   49.2330   39.8250 C.3    98  GLU98       0.1160
     16  CD        18.0720   47.9570   40.2910 C.2    98  GLU98       0.3649
     17  OE1       19.3120   47.9650   40.3960 O.co2  98  GLU98      -0.2457
     18  OE2       17.3880   46.9380   40.5450 O.co2  98  GLU98      -0.2457
     19  N         12.2690   54.5060   38.3340 N.3   101  LYS101     -0.1245
     20  CA        12.2350   54.4970   36.8940 C.3   101  LYS101      0.1561
     21  C         11.9740   55.9040   36.3310 C.2   101  LYS101      0.2260
     22  O         12.5650   56.2970   35.3400 O.2   101  LYS101     -0.2867
     23  CB        11.1770   53.5070   36.4190 C.3   101  LYS101      0.0271
     24  CG        11.5200   52.0750   36.7100 C.3   101  LYS101      0.0035
     25  CD        10.5320   51.1160   36.0470 C.3   101  LYS101      0.0206
     26  CE        10.7370   49.6980   36.5640 C.3   101  LYS101      0.1093
     27  NZ        10.1900   49.5120   37.9690 N.3   101  LYS101     -0.1314
     28  N         13.0650   54.6860   25.2300 N.3   115  ALA115     -0.1245
     29  CA        11.6890   54.7480   24.7490 C.3   115  ALA115      0.1562
     30  C         11.0860   56.1190   25.0640 C.2   115  ALA115      0.2260
     31  O         11.3690   56.7100   26.1020 O.2   115  ALA115     -0.2867
     32  CB        10.8660   53.6490   25.3980 C.3   115  ALA115      0.0290
     33  N          3.8710   50.4100   27.0890 N.3   138  VAL138     -0.1245
     34  CA         4.4760   49.7810   28.2560 C.3   138  VAL138      0.1561
     35  C          4.1990   50.6490   29.5040 C.2   138  VAL138      0.2260
     36  O          4.3840   51.8680   29.4920 O.2   138  VAL138     -0.2867
     37  CB         5.9830   49.6390   28.0480 C.3   138  VAL138      0.0252
     38  CG1        6.6120   48.9480   29.2310 C.3   138  VAL138      0.0019
     39  CG2        6.2470   48.8500   26.7520 C.3   138  VAL138      0.0019
     40  N          4.9980   51.0700   33.5480 N.3   140  LYS140     -0.1245
     41  CA         5.9390   50.7060   34.6020 C.3   140  LYS140      0.1561
     42  C          5.6890   51.4880   35.9040 C.2   140  LYS140      0.2260
     43  O          5.6740   52.7110   35.9110 O.2   140  LYS140     -0.2867
     44  CB         7.3630   50.9930   34.1510 C.3   140  LYS140      0.0271
     45  CG         7.6950   50.4350   32.7950 C.3   140  LYS140      0.0035
     46  CD         9.1660   50.5770   32.4860 C.3   140  LYS140      0.0206
     47  CE         9.4720   49.8700   31.1750 C.3   140  LYS140      0.1093
     48  NZ        10.9290   49.8170   30.8950 N.3   140  LYS140     -0.1314
     49  N         10.4490   49.6290   42.7520 N.3   144  LEU144     -0.1245
     50  CA        10.7750   48.2420   42.4120 C.3   144  LEU144      0.1561
     51  C          9.5940   47.2820   42.2590 C.2   144  LEU144      0.2260
     52  O          9.5400   46.4980   41.3120 O.2   144  LEU144     -0.2867
     53  CB        11.7560   47.6660   43.4350 C.3   144  LEU144      0.0270
     54  CG        13.2320   47.9480   43.1660 C.3   144  LEU144      0.0019
     55  CD1       14.0340   47.5750   44.3990 C.3   144  LEU144      0.0001
     56  CD2       13.7090   47.1560   41.9410 C.3   144  LEU144      0.0001
     57  N          9.8050   43.5340   41.4800 N.3   147  GLY147     -0.1225
     58  CA        10.2370   43.1100   40.1500 C.3   147  GLY147      0.1811
     59  C          9.0630   42.8160   39.2150 C.2   147  GLY147      0.2280
     60  O          9.2390   42.3060   38.1030 O.2   147  GLY147     -0.2866
     61  N          6.7510   45.2070   38.3180 N.3   149  GLY149     -0.1210
     62  CA         6.1800   46.5070   38.0270 C.3   149  GLY149      0.1956
     63  C          6.0030   46.8800   36.5610 C.2   149  GLY149      0.2611
     64  O          5.7450   48.0560   36.2590 O.2   149  GLY149     -0.2717
     65  N          6.1480   45.9130   35.6550 N.am  150  VAL150     -0.1979
     66  CA         6.1650   46.2150   34.2230 C.3   150  VAL150      0.1595
     67  C          5.1440   45.3940   33.4530 C.2   150  VAL150      0.2287
     68  O          5.0570   44.1780   33.5850 O.2   150  VAL150     -0.2864
     69  CB         7.5580   45.9630   33.5750 C.3   150  VAL150      0.0276
     70  CG1        7.4610   46.1750   32.0610 C.3   150  VAL150      0.0022
     71  CG2        8.5940   46.9110   34.1560 C.3   150  VAL150      0.0022
     72  N          3.8370   45.0220   29.4810 N.3   152  VAL152     -0.1245
     73  CA         3.8880   45.3960   28.0900 C.3   152  VAL152      0.1561
     74  C          2.4890   45.1540   27.5180 C.2   152  VAL152      0.2260
     75  O          2.1020   44.0210   27.3050 O.2   152  VAL152     -0.2867
     76  CB         4.9110   44.5370   27.3790 C.3   152  VAL152      0.0252
     77  CG1        5.0250   44.9600   25.9090 C.3   152  VAL152      0.0019
     78  CG2        6.2520   44.6310   28.1340 C.3   152  VAL152      0.0019
     79  N          5.5830   54.1710   28.5310 N.3   181  GLU181     -0.1231
     80  CA         6.5770   54.3450   27.4880 C.3   181  GLU181      0.1699
     81  C          6.3290   53.5050   26.2520 C.2   181  GLU181      0.2592
     82  O          5.5640   52.5320   26.2620 O.2   181  GLU181     -0.2718
     83  CB         8.0040   54.1020   28.0240 C.3   181  GLU181      0.0402
     84  CG         8.3320   52.6490   28.3120 C.3   181  GLU181      0.1161
     85  CD         9.7630   52.4490   28.7710 C.2   181  GLU181      0.3649
     86  OE1       10.3450   51.3850   28.4820 O.co2 181  GLU181     -0.2457
     87  OE2       10.3110   53.3630   29.4160 O.co2 181  GLU181     -0.2457
     88  N          6.9740   53.9450   25.1770 N.am  182  GLU182     -0.1966
     89  CA         6.9070   53.3130   23.8680 C.3   182  GLU182      0.1733
     90  C          7.3360   51.8450   23.9090 C.2   182  GLU182      0.2616
     91  O          8.3340   51.4800   24.5450 O.2   182  GLU182     -0.2715
     92  CB         7.8060   54.1140   22.9170 C.3   182  GLU182      0.0429
     93  CG         8.0540   53.5290   21.5360 C.3   182  GLU182      0.1163
     94  CD         9.1560   54.3010   20.8070 C.2   182  GLU182      0.3649
     95  OE1        9.8590   55.1060   21.4590 O.co2 182  GLU182     -0.2457
     96  OE2        9.3240   54.1130   19.5870 O.co2 182  GLU182     -0.2457
     97  N          6.5800   51.0040   23.2200 N.am  183  TYR183     -0.1960
     98  CA         6.9610   49.6110   23.0690 C.3   183  TYR183      0.1771
     99  C          8.1340   49.5560   22.0790 C.2   183  TYR183      0.2619
    100  O          8.0930   50.1690   21.0140 O.2   183  TYR183     -0.2715
    101  CB         5.7600   48.7940   22.5580 C.3   183  TYR183      0.0574
    102  CG         6.0720   47.3640   22.1910 C.ar  183  TYR183     -0.0198
    103  CD1        6.3240   46.4070   23.1750 C.ar  183  TYR183     -0.0009
    104  CD2        6.1170   46.9600   20.8600 C.ar  183  TYR183     -0.0009
    105  CE1        6.6080   45.0690   22.8440 C.ar  183  TYR183      0.0417
    106  CE2        6.4080   45.6370   20.5170 C.ar  183  TYR183      0.0417
    107  CZ         6.6460   44.6960   21.5080 C.ar  183  TYR183      0.1957
    108  OH         6.8810   43.3700   21.1690 O.3   183  TYR183     -0.2866
    109  N          9.1900   48.8310   22.4410 N.am  184  LEU184     -0.1977
    110  CA        10.2880   48.6200   21.5190 C.3   184  LEU184      0.1596
    111  C         10.4860   47.1440   21.2450 C.2   184  LEU184      0.2287
    112  O         10.0200   46.2770   22.0050 O.2   184  LEU184     -0.2864
    113  CB        11.5710   49.1990   22.1010 C.3   184  LEU184      0.0297
    114  CG        11.5170   50.6380   22.6070 C.3   184  LEU184      0.0022
    115  CD1       12.8690   50.9960   23.2210 C.3   184  LEU184      0.0001
    116  CD2       11.1480   51.5640   21.4510 C.3   184  LEU184      0.0001
    117  N         17.4940   42.2950   22.6200 N.3   188  GLU188     -0.1245
    118  CA        17.6780   42.8050   23.9660 C.3   188  GLU188      0.1567
    119  C         18.9400   42.2060   24.6100 C.2   188  GLU188      0.2260
    120  O         19.0880   40.9830   24.6920 O.2   188  GLU188     -0.2867
    121  CB        16.4470   42.4710   24.8110 C.3   188  GLU188      0.0388
    122  CG        16.4920   43.0470   26.2120 C.3   188  GLU188      0.1160
    123  CD        15.2300   42.7440   27.0020 C.2   188  GLU188      0.3649
    124  OE1       14.7940   43.6140   27.7890 O.co2 188  GLU188     -0.2457
    125  OE2       14.6780   41.6360   26.8220 O.co2 188  GLU188     -0.2457
    126  N         19.5530   37.3020   27.9450 N.3   206  ASP206     -0.1239
    127  CA        18.8420   36.3050   28.7060 C.3   206  ASP206      0.1674
    128  C         17.4730   35.9590   28.1410 C.2   206  ASP206      0.2266
    129  O         16.9680   36.6280   27.2390 O.2   206  ASP206     -0.2867
    130  CB        18.7210   36.7380   30.1640 C.3   206  ASP206      0.1410
    131  CG        17.5610   37.6600   30.4050 C.2   206  ASP206      0.3668
    132  OD1       17.2410   38.4760   29.5290 O.co2 206  ASP206     -0.2456
    133  OD2       16.9660   37.5680   31.4910 O.co2 206  ASP206     -0.2456
    134  N         13.6830   35.5620   29.4460 N.3   208  LYS208     -0.1245
    135  CA        12.8430   35.8890   30.5890 C.3   208  LYS208      0.1561
    136  C         11.6010   35.0030   30.6190 C.2   208  LYS208      0.2260
    137  O         11.0450   34.7460   31.6840 O.2   208  LYS208     -0.2867
    138  CB        12.4470   37.3680   30.5380 C.3   208  LYS208      0.0271
    139  CG        11.5310   37.8240   31.6890 C.3   208  LYS208      0.0035
    140  CD        11.4930   39.3450   31.8130 C.3   208  LYS208      0.0206
    141  CE        11.7250   39.8110   33.2550 C.3   208  LYS208      0.1093
    142  NZ        12.9380   39.1980   33.8860 N.3   208  LYS208     -0.1314
    143  N          6.4380   35.5260   32.3560 N.3   218  ASN218     -0.1240
    144  CA         7.7970   35.9550   32.6260 C.3   218  ASN218      0.1653
    145  C          8.3310   35.3180   33.8880 C.2   218  ASN218      0.2266
    146  O          7.5630   34.8450   34.7320 O.2   218  ASN218     -0.2867
    147  CB         7.8540   37.4670   32.7520 C.3   218  ASN218      0.1155
    148  CG         7.5280   38.1550   31.4510 C.2   218  ASN218      0.2627
    149  OD1        6.7830   39.1380   31.4230 O.2   218  ASN218     -0.2716
    150  ND2        8.0780   37.6390   30.3580 N.am  218  ASN218     -0.0877
    151  N         12.1640   35.3230   36.6100 N.3   220  GLY220     -0.1225
    152  CA        13.3800   36.0520   36.9420 C.3   220  GLY220      0.1811
    153  C         14.5810   35.6070   36.1220 C.2   220  GLY220      0.2280
    154  O         15.7180   35.9510   36.4490 O.2   220  GLY220     -0.2866
    155  N         24.2500   48.7170   35.2800 N.3   261  TYR261     -0.1241
    156  CA        23.7550   47.7260   34.3700 C.3   261  TYR261      0.1605
    157  C         22.8130   48.4440   33.4440 C.2   261  TYR261      0.2264
    158  O         21.8380   49.0420   33.8840 O.2   261  TYR261     -0.2867
    159  CB        23.0370   46.6470   35.1580 C.3   261  TYR261      0.0534
    160  CG        22.2040   45.6750   34.3400 C.ar  261  TYR261     -0.0201
    161  CD1       22.5280   44.3250   34.3060 C.ar  261  TYR261     -0.0009
    162  CD2       21.0510   46.0940   33.6790 C.ar  261  TYR261     -0.0009
    163  CE1       21.7280   43.4130   33.6490 C.ar  261  TYR261      0.0417
    164  CE2       20.2360   45.1770   33.0000 C.ar  261  TYR261      0.0417
    165  CZ        20.5860   43.8330   33.0000 C.ar  261  TYR261      0.1957
    166  OH        19.7890   42.9000   32.3850 O.3   261  TYR261     -0.2866
    167  N         16.3060   50.2500   27.8430 N.3   273  ILE273     -0.1231
    168  CA        15.0880   49.7200   28.4050 C.3   273  ILE273      0.1692
    169  C         15.0460   49.9160   29.9190 C.2   273  ILE273      0.2591
    170  O         13.9920   50.2140   30.4880 O.2   273  ILE273     -0.2718
    171  CB        14.9410   48.2230   28.1260 C.3   273  ILE273      0.0266
    172  CG1       14.7180   47.9800   26.6380 C.3   273  ILE273      0.0019
    173  CG2       13.7650   47.6750   28.9370 C.3   273  ILE273      0.0020
    174  CD1       13.3000   48.3330   26.1740 C.3   273  ILE273      0.0001
    175  N         16.1810   49.7040   30.5750 N.am  274  GLU274     -0.1979
    176  CA        16.2550   49.9340   32.0160 C.3   274  GLU274      0.1602
    177  C         17.6850   50.1740   32.4430 C.2   274  GLU274      0.2287
    178  O         18.6070   49.7390   31.7610 O.2   274  GLU274     -0.2864
    179  CB        15.7180   48.7310   32.7820 C.3   274  GLU274      0.0415
    180  CG        16.5090   47.4650   32.5360 C.3   274  GLU274      0.1163
    181  CD        16.2240   46.3960   33.5800 C.2   274  GLU274      0.3649
    182  OE1       15.9620   46.7660   34.7470 O.co2 274  GLU274     -0.2457
    183  OE2       16.2630   45.1920   33.2320 O.co2 274  GLU274     -0.2457
    184  N         19.9360   49.1620   35.9170 N.3   276  ASN276     -0.1240
    185  CA        20.0680   48.5270   37.2110 C.3   276  ASN276      0.1653
    186  C         21.3750   49.0420   37.8220 C.2   276  ASN276      0.2266
    187  O         22.3210   49.4120   37.0940 O.2   276  ASN276     -0.2867
    188  CB        20.1110   47.0080   37.0770 C.3   276  ASN276      0.1155
    189  CG        18.7360   46.3840   36.7720 C.2   276  ASN276      0.2627
    190  OD1       17.6920   46.9650   37.0770 O.2   276  ASN276     -0.2716
    191  ND2       18.7440   45.1880   36.1870 N.am  276  ASN276     -0.0877
    192  N         23.3850   47.4330   39.9630 N.3   278  ARG278     -0.1245
    193  CA        24.1260   46.3250   40.5210 C.3   278  ARG278      0.1563
    194  C         24.2380   45.2150   39.4860 C.2   278  ARG278      0.2260
    195  O         23.6750   45.3160   38.3970 O.2   278  ARG278     -0.2867
    196  CB        23.4230   45.8160   41.7740 C.3   278  ARG278      0.0307
    197  CG        21.9140   45.9480   41.7190 C.3   278  ARG278      0.0489
    198  CD        21.3580   45.0600   40.6190 C.3   278  ARG278      0.2205
    199  NE        19.9260   45.2360   40.4020 N.pl3 278  ARG278     -0.0865
    200  CZ        19.1860   44.3480   39.7440 C.cat 278  ARG278      0.5346
    201  NH1       19.7590   43.2460   39.2650 N.pl3 278  ARG278      0.1354
    202  NH2       17.8980   44.5670   39.5250 N.pl3 278  ARG278      0.1354
    203  N         23.7240   42.0150   37.3220 N.3   280  GLY280     -0.1210
    204  CA        22.4650   41.4330   36.8930 C.3   280  GLY280      0.1956
    205  C         22.2870   39.9970   37.3390 C.2   280  GLY280      0.2611
    206  O         23.2560   39.2800   37.5850 O.2   280  GLY280     -0.2717
    207  N         21.0350   39.5770   37.4670 N.am  281  ASP281     -0.1973
    208  CA        20.7240   38.1560   37.6190 C.3   281  ASP281      0.1709
    209  C         19.7260   37.8180   36.5000 C.2   281  ASP281      0.2293
    210  O         18.6460   38.4200   36.4140 O.2   281  ASP281     -0.2864
    211  CB        20.1160   37.9180   39.0060 C.3   281  ASP281      0.1436
    212  CG        19.8430   36.4470   39.2920 C.2   281  ASP281      0.3671
    213  OD1       20.2740   35.5710   38.5200 O.co2 281  ASP281     -0.2456
    214  OD2       19.1790   36.1660   40.3060 O.co2 281  ASP281     -0.2456
    215  N         22.5920   37.4340   34.5220 N.3   283  GLU283     -0.1245
    216  CA        23.7040   37.7740   33.6450 C.3   283  GLU283      0.1567
    217  C         25.0760   37.5990   34.2850 C.2   283  GLU283      0.2260
    218  O         26.0280   37.2250   33.6200 O.2   283  GLU283     -0.2867
    219  CB        23.5530   39.2000   33.1330 C.3   283  GLU283      0.0388
    220  CG        22.3910   39.3720   32.1840 C.3   283  GLU283      0.1160
    221  CD        21.1050   39.7310   32.8990 C.2   283  GLU283      0.3649
    222  OE1       20.1610   40.1320   32.2130 O.co2 283  GLU283     -0.2457
    223  OE2       21.0440   39.6130   34.1430 O.co2 283  GLU283     -0.2457
@<TRIPOS>BOND
     1    96    94   ar
     2   106   104   ar
     3   106   107   ar
     4    94    95   ar
     5    94    93    1
     6   104   102   ar
     7   100    99    2
     8   108   107    1
     9   111   110    1
    10   111   112    2
    11   116   114    1
    12   107   105   ar
    13   110   113    1
    14   110   109    1
    15    93    92    1
    16    99   109   am
    17    99    98    1
    18   113   114    1
    19   102   101    1
    20   102   103   ar
    21   101    98    1
    22   114   115    1
    23   117   118    1
    24   105   103   ar
    25    92    89    1
    26    98    97    1
    27    97    90   am
    28    89    90    1
    29    89    88    1
    30    90    91    2
    31   118   119    1
    32   118   121    1
    33   119   120    2
    34    29    30    1
    35    29    28    1
    36    29    32    1
    37   121   122    1
    38    30    31    2
    39    88    81   am
    40    77    76    1
    41   174   172    1
    42   122   123    1
    43    81    82    2
    44    81    80    1
    45   172   171    1
    46    39    37    1
    47   125   123   ar
    48   123   124   ar
    49    33    34    1
    50   129   128    2
    51    75    74    2
    52    76    73    1
    53    76    78    1
    54    80    83    1
    55    80    79    1
    56    74    73    1
    57   167   168    1
    58   126   127    1
    59    83    84    1
    60    37    34    1
    61    37    38    1
    62    73    72    1
    63   171   168    1
    64   171   173    1
    65   128   127    1
    66    34    35    1
    67    84    85    1
    68   168   169    1
    69    86    85   ar
    70   127   130    1
    71    85    87   ar
    72   134   135    1
    73    36    35    2
    74   132   131   ar
    75   169   170    2
    76   169   175   am
    77   130   131    1
    78   150   148   am
    79   131   133   ar
    80   138   135    1
    81   138   139    1
    82   175   176    1
    83   135   136    1
    84   136   137    2
    85    48    47    1
    86    47    46    1
    87   149   148    2
    88   148   147    1
    89   139   140    1
    90   178   177    2
    91   140   141    1
    92   176   177    1
    93   176   179    1
    94    70    69    1
    95   220   221    1
    96   220   219    1
    97   222   221   ar
    98   143   144    1
    99   166   165    1
   100    46    45    1
   101   180   179    1
   102   180   181    1
   103   144   147    1
   104   144   145    1
   105    45    44    1
   106   221   223   ar
   107   164   165   ar
   108   164   162   ar
   109   165   163   ar
   110   219   216    1
   111   183   181   ar
   112   141   142    1
   113   157   158    2
   114   157   156    1
   115    67    68    2
   116    67    66    1
   117    40    41    1
   118    69    71    1
   119    69    66    1
   120   181   182   ar
   121   218   217    2
   122   216   217    1
   123   216   215    1
   124   163   161   ar
   125   162   160   ar
   126   145   146    2
   127    44    41    1
   128    66    65    1
   129   161   160   ar
   130   160   159    1
   131   156   159    1
   132   156   155    1
   133    41    42    1
   134    22    21    2
   135    65    63   am
   136    42    43    2
   137   184   185    1
   138    25    26    1
   139    25    24    1
   140   153   154    2
   141   153   152    1
   142   191   189   am
   143    64    63    2
   144    21    20    1
   145   210   209    2
   146    23    24    1
   147    23    20    1
   148   209   208    1
   149    63    62    1
   150    26    27    1
   151   151   152    1
   152   189   188    1
   153   189   190    2
   154   204   203    1
   155   204   205    1
   156    20    19    1
   157   188   185    1
   158   187   186    2
   159   185   186    1
   160   205   207   am
   161   205   206    2
   162   207   208    1
   163   208   211    1
   164    62    61    1
   165    60    59    2
   166   195   194    2
   167   213   212   ar
   168   211   212    1
   169    59    58    1
   170   201   200    1
   171   212   214   ar
   172   194   193    1
   173    11    10    1
   174    11    14    1
   175    11    12    1
   176   202   200    1
   177   200   199    2
   178    15    14    1
   179    15    16    1
   180    13    12    2
   181   192   193    1
   182    58    57    1
   183    16    17   ar
   184    16    18   ar
   185   199   198    1
   186   193   196    1
   187   198   197    1
   188    52    51    2
   189   197   196    1
   190    56    54    1
   191    51    50    1
   192    50    49    1
   193    50    53    1
   194     9     7   ar
   195     8     7   ar
   196     7     6    1
   197    54    53    1
   198    54    55    1
   199     5     6    1
   200     5     2    1
   201     2     1    1
   202     2     3    1
   203     3     4    2
