@<TRIPOS>MOLECULE
tmp/2xcnA00.pdb
 132 125 0 0 0
SMALL
GASTEIGER

@<TRIPOS>ATOM
      1  N          4.5080   26.0040   20.9710 N.3    57  HIS57      -0.1241
      2  CA         3.7610   25.8000   19.7380 C.3    57  HIS57       0.1621
      3  C          3.9470   24.3970   19.1790 C.2    57  HIS57       0.2264
      4  O          3.2480   23.9930   18.2520 O.2    57  HIS57      -0.2867
      5  CB         4.0760   26.8780   18.6970 C.3    57  HIS57       0.0745
      6  CG         5.3500   26.6720   17.9330 C.ar   57  HIS57       0.0817
      7  ND1        6.4600   27.4770   18.1100 N.ar   57  HIS57      -0.2268
      8  CD2        5.6710   25.8030   16.9410 C.ar   57  HIS57       0.1154
      9  CE1        7.4170   27.0960   17.2820 C.ar   57  HIS57       0.1986
     10  NE2        6.9680   26.0780   16.5670 N.ar   57  HIS57      -0.2212
     11  N          2.8950   30.6460   27.5470 N.3    78  VAL78      -0.1231
     12  CA         2.3520   30.7080   26.1940 C.3    78  VAL78       0.1692
     13  C          2.9330   31.8590   25.3980 C.2    78  VAL78       0.2592
     14  O          3.1470   31.7220   24.1960 O.2    78  VAL78      -0.2718
     15  CB         0.8170   30.8450   26.2000 C.3    78  VAL78       0.0266
     16  CG1        0.2760   31.0390   24.7810 C.3    78  VAL78       0.0020
     17  CG2        0.1720   29.6410   26.8740 C.3    78  VAL78       0.0020
     18  N          3.1940   32.9800   26.0720 N.am   79  ASP79      -0.1974
     19  CA         3.6680   34.1940   25.4010 C.3    79  ASP79       0.1709
     20  C          5.1260   34.1770   24.9690 C.2    79  ASP79       0.2293
     21  O          5.4620   34.7160   23.9190 O.2    79  ASP79      -0.2864
     22  CB         3.3400   35.4310   26.2260 C.3    79  ASP79       0.1436
     23  CG         1.9510   35.9500   25.9230 C.2    79  ASP79       0.3671
     24  OD1        1.8000   36.6630   24.8980 O.co2  79  ASP79      -0.2456
     25  OD2        1.0090   35.6100   26.6820 O.co2  79  ASP79      -0.2456
     26  N          6.2170   31.4330   24.1910 N.3    81  ASP81      -0.1239
     27  CA         6.0970   30.2450   23.3400 C.3    81  ASP81       0.1674
     28  C          7.0120   29.1400   23.8710 C.2    81  ASP81       0.2266
     29  O          7.6660   28.4250   23.1090 O.2    81  ASP81      -0.2867
     30  CB         6.3880   30.5770   21.8690 C.3    81  ASP81       0.1410
     31  CG         6.2360   29.3770   20.9560 C.2    81  ASP81       0.3668
     32  OD1        5.2810   28.5790   21.1550 O.co2  81  ASP81      -0.2456
     33  OD2        7.0860   29.2430   20.0440 O.co2  81  ASP81      -0.2456
     34  N         16.8770   37.8200   18.1210 N.3   123  ARG123     -0.1245
     35  CA        16.9510   37.8610   16.6710 C.3   123  ARG123      0.1563
     36  C         18.4110   37.8080   16.2900 C.2   123  ARG123      0.2260
     37  O         19.2450   38.4720   16.8880 O.2   123  ARG123     -0.2867
     38  CB        16.3100   39.1490   16.1550 C.3   123  ARG123      0.0307
     39  CG        16.3180   39.3540   14.6380 C.3   123  ARG123      0.0489
     40  CD        15.0570   38.8200   13.9490 C.3   123  ARG123      0.2205
     41  NE        13.8820   38.7980   14.8300 N.pl3 123  ARG123     -0.0865
     42  CZ        12.6370   39.0870   14.4420 C.cat 123  ARG123      0.5346
     43  NH1       12.3840   39.4470   13.1860 N.pl3 123  ARG123      0.1354
     44  NH2       11.6390   39.0310   15.3160 N.pl3 123  ARG123      0.1354
     45  N         13.7950   27.1480    3.8760 N.3   132  ILE132     -0.1245
     46  CA        13.0560   27.1490    5.1180 C.3   132  ILE132      0.1561
     47  C         12.7940   25.7230    5.5840 C.2   132  ILE132      0.2260
     48  O         12.7610   25.4580    6.7810 O.2   132  ILE132     -0.2867
     49  CB        11.7650   28.0090    5.0140 C.3   132  ILE132      0.0252
     50  CG1       11.2950   28.4690    6.4040 C.3   132  ILE132      0.0019
     51  CG2       10.6740   27.3040    4.1750 C.3   132  ILE132      0.0019
     52  CD1       10.3860   27.4720    7.1660 C.3   132  ILE132      0.0001
     53  N         14.9560   23.8610    8.1100 N.3   135  LEU135     -0.1231
     54  CA        14.8870   24.2250    9.5070 C.3   135  LEU135      0.1693
     55  C         13.6480   23.7020   10.1810 C.2   135  LEU135      0.2592
     56  O         13.5450   23.7240   11.3960 O.2   135  LEU135     -0.2718
     57  CB        14.9310   25.7390    9.6330 C.3   135  LEU135      0.0284
     58  CG        16.2050   26.3870    9.1180 C.3   135  LEU135      0.0019
     59  CD1       16.1560   27.8270    9.4430 C.3   135  LEU135      0.0001
     60  CD2       17.4050   25.7610    9.7630 C.3   135  LEU135      0.0001
     61  N         12.6950   23.2430    9.3890 N.am  136  LYS136     -0.1966
     62  CA        11.4800   22.6930    9.9480 C.3   136  LYS136      0.1728
     63  C         11.8280   21.4830   10.8290 C.2   136  LYS136      0.2616
     64  O         12.5330   20.5690   10.4010 O.2   136  LYS136     -0.2715
     65  CB        10.5010   22.3140    8.8310 C.3   136  LYS136      0.0311
     66  CG         9.0080   22.3460    9.2520 C.3   136  LYS136      0.0038
     67  CD         8.3800   23.7510    9.0850 C.3   136  LYS136      0.0206
     68  CE         7.9610   24.0260    7.6200 C.3   136  LYS136      0.1093
     69  NZ         7.5730   25.4550    7.3750 N.3   136  LYS136     -0.1314
     70  N         11.3550   21.5050   12.0720 N.am  137  GLY137     -0.1955
     71  CA        11.6440   20.4240   13.0120 C.3   137  GLY137      0.1869
     72  C         12.8570   20.6980   13.8770 C.2   137  GLY137      0.2309
     73  O         13.2300   19.8870   14.7180 O.2   137  GLY137     -0.2863
     74  N         12.8220   23.6400   15.5790 N.3   139  SER139     -0.1217
     75  CA        12.2990   24.5100   16.6330 C.3   139  SER139      0.1889
     76  C         12.4500   23.8540   18.0030 C.2   139  SER139      0.2288
     77  O         12.0690   22.6920   18.2160 O.2   139  SER139     -0.2866
     78  CB        10.8600   25.0270   16.3780 C.3   139  SER139      0.2089
     79  OG        10.0050   24.1280   15.6080 O.3   139  SER139     -0.2183
     80  N         15.6710   28.0740   19.5620 N.3   154  PHE154     -0.1227
     81  CA        15.1840   28.4460   18.2550 C.3   154  PHE154      0.1736
     82  C         13.6680   28.4010   18.2520 C.2   154  PHE154      0.2595
     83  O         13.0850   27.3910   18.5960 O.2   154  PHE154     -0.2718
     84  CB        15.7750   27.4690   17.2400 C.3   154  PHE154      0.0547
     85  CG        15.3330   27.6940   15.8280 C.ar  154  PHE154     -0.0202
     86  CD1       15.2910   28.9670   15.2810 C.ar  154  PHE154     -0.0042
     87  CD2       14.9890   26.6170   15.0310 C.ar  154  PHE154     -0.0042
     88  CE1       14.8840   29.1600   13.9660 C.ar  154  PHE154     -0.0003
     89  CE2       14.5870   26.7990   13.7280 C.ar  154  PHE154     -0.0003
     90  CZ        14.5350   28.0720   13.1910 C.ar  154  PHE154     -0.0000
     91  N         13.0420   29.5060   17.8600 N.am  155  ARG155     -0.1966
     92  CA        11.5890   29.6390   17.8840 C.3   155  ARG155      0.1729
     93  C         10.9790   29.6520   16.4830 C.2   155  ARG155      0.2616
     94  O         10.1270   28.8310   16.1700 O.2   155  ARG155     -0.2715
     95  CB        11.1860   30.9080   18.6460 C.3   155  ARG155      0.0348
     96  CG         9.7300   30.9270   19.0500 C.3   155  ARG155      0.0492
     97  CD         9.1910   32.3370   19.1700 C.3   155  ARG155      0.2205
     98  NE         9.3660   32.9550   20.4850 N.pl3 155  ARG155     -0.0865
     99  CZ        10.1330   34.0170   20.7220 C.cat 155  ARG155      0.5346
    100  NH1       10.8110   34.5990   19.7420 N.pl3 155  ARG155      0.1354
    101  NH2       10.2320   34.5050   21.9470 N.pl3 155  ARG155      0.1354
    102  N         11.4170   30.5910   15.6470 N.am  156  ALA156     -0.1963
    103  CA        10.8440   30.7880   14.3070 C.3   156  ALA156      0.1728
    104  C         11.8510   31.3500   13.2800 C.2   156  ALA156      0.2616
    105  O         12.8370   32.0020   13.6490 O.2   156  ALA156     -0.2715
    106  CB         9.6210   31.6820   14.3950 C.3   156  ALA156      0.0334
    107  N         11.5880   31.0950   11.9950 N.am  157  ALA157     -0.1963
    108  CA        12.4490   31.5540   10.8920 C.3   157  ALA157      0.1728
    109  C         11.9200   32.8050   10.1910 C.2   157  ALA157      0.2616
    110  O         10.7090   32.9590    9.9800 O.2   157  ALA157     -0.2715
    111  CB        12.6770   30.4360    9.8780 C.3   157  ALA157      0.0334
    112  N         12.8570   33.6840    9.8400 N.am  158  VAL158     -0.1963
    113  CA        12.5920   34.9330    9.1310 C.3   158  VAL158      0.1727
    114  C         12.8950   34.7290    7.6580 C.2   158  VAL158      0.2616
    115  O         14.0640   34.5990    7.2730 O.2   158  VAL158     -0.2715
    116  CB        13.5180   36.0540    9.6460 C.3   158  VAL158      0.0290
    117  CG1       13.3060   37.3550    8.8600 C.3   158  VAL158      0.0023
    118  CG2       13.3220   36.2640   11.1340 C.3   158  VAL158      0.0023
    119  N         11.8560   34.7080    6.8290 N.am  159  CYS159     -0.1968
    120  CA        12.0650   34.3380    5.4360 C.3   159  CYS159      0.1712
    121  C         11.1210   34.9440    4.3900 C.2   159  CYS159      0.2296
    122  O         10.0890   35.5290    4.7180 O.2   159  CYS159     -0.2864
    123  CB        12.1360   32.8080    5.2940 C.3   159  CYS159      0.0983
    124  SG        10.5860   31.9340    5.2030 S.3   159  CYS159     -0.0798
    125  N         14.6140   33.7270   14.7130 N.3   168  ASP168     -0.1239
    126  CA        14.0080   34.3640   15.8570 C.3   168  ASP168      0.1674
    127  C         14.0590   33.3380   16.9680 C.2   168  ASP168      0.2266
    128  O         13.7950   32.1630   16.7250 O.2   168  ASP168     -0.2867
    129  CB        12.5620   34.6980   15.5200 C.3   168  ASP168      0.1410
    130  CG        11.7940   35.2110   16.7090 C.2   168  ASP168      0.3668
    131  OD1       12.0320   36.3840   17.0970 O.co2 168  ASP168     -0.2456
    132  OD2       10.9560   34.4400   17.2450 O.co2 168  ASP168     -0.2456
@<TRIPOS>BOND
     1    45    46    1
     2    51    49    1
     3   121   122    2
     4   121   120    1
     5    49    46    1
     6    49    50    1
     7    46    47    1
     8   124   123    1
     9   123   120    1
    10   120   119    1
    11    47    48    2
    12    50    52    1
    13   119   114   am
    14   115   114    2
    15    69    68    1
    16    68    67    1
    17   114   113    1
    18    53    54    1
    19    65    66    1
    20    65    62    1
    21   117   116    1
    22    67    66    1
    23    58    59    1
    24    58    57    1
    25    58    60    1
    26   113   116    1
    27   113   112    1
    28    61    62    1
    29    61    55   am
    30    54    57    1
    31    54    55    1
    32   116   118    1
    33   112   109   am
    34   111   108    1
    35    62    63    1
    36   110   109    2
    37    55    56    2
    38   109   108    1
    39    64    63    2
    40    63    70   am
    41   108   107    1
    42   107   104   am
    43    70    71    1
    44    71    72    1
    45    43    42    1
    46    90    89   ar
    47    90    88   ar
    48   104   105    2
    49   104   103    1
    50    89    87   ar
    51    72    73    2
    52    40    39    1
    53    40    41    1
    54    88    86   ar
    55   103   106    1
    56   103   102    1
    57    42    41    2
    58    42    44    1
    59    39    38    1
    60   125   126    1
    61    87    85   ar
    62    86    85   ar
    63   129   126    1
    64   129   130    1
    65    74    75    1
    66    79    78    1
    67   102    93   am
    68    85    84    1
    69   126   127    1
    70    38    35    1
    71    94    93    2
    72    36    35    1
    73    36    37    2
    74    78    75    1
    75    93    92    1
    76    10     8   ar
    77    10     9   ar
    78    75    76    1
    79    35    34    1
    80   130   131   ar
    81   130   132   ar
    82   128   127    2
    83     8     6   ar
    84    84    81    1
    85     9     7   ar
    86    91    92    1
    87    91    82   am
    88    92    95    1
    89     6     7   ar
    90     6     5    1
    91    76    77    2
    92    82    81    1
    93    82    83    2
    94     4     3    2
    95    81    80    1
    96    95    96    1
    97     5     2    1
    98    96    97    1
    99    97    98    1
   100     3     2    1
   101     2     1    1
   102   100    99    1
   103    33    31   ar
   104    98    99    2
   105    99   101    1
   106    31    32   ar
   107    31    30    1
   108    30    27    1
   109    29    28    2
   110    27    28    1
   111    27    26    1
   112    21    20    2
   113    14    13    2
   114    16    15    1
   115    24    23   ar
   116    20    19    1
   117    13    18   am
   118    13    12    1
   119    19    18    1
   120    19    22    1
   121    23    22    1
   122    23    25   ar
   123    12    15    1
   124    12    11    1
   125    15    17    1
