@<TRIPOS>MOLECULE
tmp/2xcuC03.pdb
 117 114 0 0 0
SMALL
GASTEIGER

@<TRIPOS>ATOM
      1  N         44.3160   13.6720   50.3540 N.3   183  SER183     -0.1217
      2  CA        43.1450   13.1800   49.6470 C.3   183  SER183      0.1889
      3  C         42.4670   12.0000   50.3740 C.2   183  SER183      0.2288
      4  O         42.0090   11.0400   49.7550 O.2   183  SER183     -0.2866
      5  CB        43.5020   12.8600   48.1860 C.3   183  SER183      0.2089
      6  OG        43.3160   13.9980   47.3410 O.3   183  SER183     -0.2183
      7  N         44.9200   15.8530   55.1390 N.3   211  VAL211     -0.1231
      8  CA        44.2630   16.6010   54.0870 C.3   211  VAL211      0.1678
      9  C         43.1480   15.7790   53.4150 C.2   211  VAL211      0.2434
     10  O         43.4190   14.9580   52.5200 O.2   211  VAL211     -0.2733
     11  CB        45.2690   17.0300   53.0260 C.3   211  VAL211      0.0265
     12  CG1       44.7280   18.2200   52.2330 C.3   211  VAL211      0.0020
     13  CG2       46.5780   17.3960   53.6760 C.3   211  VAL211      0.0020
     14  N         41.8890   16.0100   53.8370 N.am  212  PRO212     -0.2718
     15  CA        40.7150   15.3220   53.2730 C.3   212  PRO212      0.1535
     16  C         40.5760   15.5530   51.7760 C.2   212  PRO212      0.2598
     17  O         40.9270   16.6370   51.2980 O.2   212  PRO212     -0.2715
     18  CB        39.5300   15.9890   53.9990 C.3   212  PRO212      0.0310
     19  CG        40.0750   17.2720   54.5980 C.3   212  PRO212      0.0237
     20  CD        41.5200   17.0050   54.8680 C.3   212  PRO212      0.0939
     21  N         40.0980   14.5440   51.0370 N.am  213  ARG213     -0.1978
     22  CA        39.7320   14.7190   49.6190 C.3   213  ARG213      0.1597
     23  C         38.8360   15.9580   49.5250 C.2   213  ARG213      0.2287
     24  O         39.1190   16.8870   48.7710 O.2   213  ARG213     -0.2864
     25  CB        38.9410   13.5070   49.1180 C.3   213  ARG213      0.0334
     26  CG        39.1240   13.0570   47.6410 C.3   213  ARG213      0.0492
     27  CD        39.1540   14.1200   46.5400 C.3   213  ARG213      0.2205
     28  NE        40.5070   14.2200   46.0410 N.pl3 213  ARG213     -0.0865
     29  CZ        40.9290   13.9960   44.7950 C.cat 213  ARG213      0.5346
     30  NH1       42.2280   14.1100   44.5750 N.pl3 213  ARG213      0.1354
     31  NH2       40.1070   13.6880   43.7800 N.pl3 213  ARG213      0.1354
     32  N         37.3670   19.1020   51.4830 N.3   215  ILE215     -0.1245
     33  CA        37.6100   19.9880   52.6090 C.3   215  ILE215      0.1561
     34  C         36.3850   20.2800   53.5020 C.2   215  ILE215      0.2260
     35  O         36.5560   20.5980   54.6890 O.2   215  ILE215     -0.2867
     36  CB        38.3430   21.2810   52.1750 C.3   215  ILE215      0.0252
     37  CG1       37.6420   21.9600   50.9990 C.3   215  ILE215      0.0019
     38  CG2       39.7940   20.9540   51.8130 C.3   215  ILE215      0.0019
     39  CD1       37.0620   23.2990   51.3330 C.3   215  ILE215      0.0001
     40  N         41.7740   24.0320   53.3330 N.3   247  ARG247     -0.1231
     41  CA        41.8840   24.7380   52.0540 C.3   247  ARG247      0.1694
     42  C         42.1710   23.7660   50.9140 C.2   247  ARG247      0.2592
     43  O         43.0540   22.9200   51.0400 O.2   247  ARG247     -0.2718
     44  CB        43.0290   25.7500   52.1160 C.3   247  ARG247      0.0321
     45  CG        42.6060   27.1990   52.0710 C.3   247  ARG247      0.0489
     46  CD        43.7410   28.0780   52.5500 C.3   247  ARG247      0.2205
     47  NE        43.5820   28.4440   53.9580 N.pl3 247  ARG247     -0.0865
     48  CZ        44.5740   28.4990   54.8450 C.cat 247  ARG247      0.5346
     49  NH1       45.8180   28.1880   54.4930 N.pl3 247  ARG247      0.1354
     50  NH2       44.3190   28.8530   56.0960 N.pl3 247  ARG247      0.1354
     51  N         41.4370   23.8910   49.8100 N.am  248  PHE248     -0.1962
     52  CA        41.7900   23.2060   48.5680 C.3   248  PHE248      0.1771
     53  C         42.9480   23.9230   47.8720 C.2   248  PHE248      0.2620
     54  O         43.0780   25.1420   47.9680 O.2   248  PHE248     -0.2715
     55  CB        40.5860   23.1030   47.6130 C.3   248  PHE248      0.0574
     56  CG        40.8550   22.2650   46.3810 C.ar  248  PHE248     -0.0200
     57  CD1       41.1290   22.8730   45.1510 C.ar  248  PHE248     -0.0042
     58  CD2       40.8440   20.8710   46.4540 C.ar  248  PHE248     -0.0042
     59  CE1       41.3880   22.0950   43.9930 C.ar  248  PHE248     -0.0003
     60  CE2       41.0980   20.0860   45.3230 C.ar  248  PHE248     -0.0003
     61  CZ        41.3740   20.6950   44.0870 C.ar  248  PHE248     -0.0000
     62  N         43.7890   23.1500   47.1880 N.am  249  GLY249     -0.1940
     63  CA        44.8420   23.7060   46.3410 C.3   249  GLY249      0.2014
     64  C         46.2000   23.8450   47.0020 C.2   249  GLY249      0.2639
     65  O         47.0770   24.5460   46.4960 O.2   249  GLY249     -0.2714
     66  N         46.3950   23.1560   48.1200 N.am  250  ILE250     -0.1963
     67  CA        47.6320   23.2920   48.8760 C.3   250  ILE250      0.1727
     68  C         48.4300   21.9730   48.9450 C.2   250  ILE250      0.2616
     69  O         49.6540   21.9930   48.9990 O.2   250  ILE250     -0.2715
     70  CB        47.3270   23.9680   50.2520 C.3   250  ILE250      0.0290
     71  CG1       47.2010   25.4820   50.0420 C.3   250  ILE250      0.0022
     72  CG2       48.3760   23.6770   51.2950 C.3   250  ILE250      0.0023
     73  CD1       46.4450   26.2300   51.1310 C.3   250  ILE250      0.0001
     74  N         47.7220   20.8470   48.8680 N.am  251  LEU251     -0.1963
     75  CA        48.2810   19.5220   49.0870 C.3   251  LEU251      0.1728
     76  C         49.5820   19.1880   48.3470 C.2   251  LEU251      0.2616
     77  O         50.4810   18.5930   48.9350 O.2   251  LEU251     -0.2715
     78  CB        47.2230   18.4480   48.8110 C.3   251  LEU251      0.0311
     79  CG        47.6850   16.9970   48.9770 C.3   251  LEU251      0.0022
     80  CD1       48.1810   16.7070   50.4150 C.3   251  LEU251      0.0001
     81  CD2       46.6230   15.9830   48.5300 C.3   251  LEU251      0.0001
     82  N         49.6860   19.5370   47.0720 N.am  252  LYS252     -0.1977
     83  CA        50.9090   19.2040   46.3300 C.3   252  LYS252      0.1596
     84  C         52.1140   20.0310   46.7810 C.2   252  LYS252      0.2287
     85  O         53.2510   19.5440   46.7340 O.2   252  LYS252     -0.2864
     86  CB        50.7180   19.2910   44.8010 C.3   252  LYS252      0.0298
     87  CG        50.7170   20.6930   44.2150 C.3   252  LYS252      0.0038
     88  CD        50.5460   20.6540   42.7080 C.3   252  LYS252      0.0206
     89  CE        51.6930   19.9150   42.0400 C.3   252  LYS252      0.1093
     90  NZ        51.5630   20.0570   40.5620 N.3   252  LYS252     -0.1314
     91  N         43.8680    8.3120   44.2810 N.3   273  HIS273     -0.1226
     92  CA        44.1250    9.6620   43.8340 C.3   273  HIS273      0.1752
     93  C         45.5520    9.7750   43.3720 C.2   273  HIS273      0.2596
     94  O         46.1650    8.7610   43.1070 O.2   273  HIS273     -0.2718
     95  CB        43.7370   10.6490   44.9400 C.3   273  HIS273      0.0759
     96  CG        42.2690   10.6520   45.1940 C.ar  273  HIS273      0.0818
     97  ND1       41.3480   10.7460   44.1670 N.ar  273  HIS273     -0.2268
     98  CD2       41.5540   10.4960   46.3300 C.ar  273  HIS273      0.1154
     99  CE1       40.1280   10.6860   44.6710 C.ar  273  HIS273      0.1986
    100  NE2       40.2240   10.5440   45.9810 N.ar  273  HIS273     -0.2212
    101  N         46.0870   10.9830   43.2680 N.am  274  ASN274     -0.1974
    102  CA        47.3890   11.1750   42.6380 C.3   274  ASN274      0.1688
    103  C         48.5850   10.6630   43.4920 C.2   274  ASN274      0.2292
    104  O         49.0790   11.3440   44.3750 O.2   274  ASN274     -0.2864
    105  CB        47.5440   12.6420   42.1990 C.3   274  ASN274      0.1181
    106  CG        48.7120   12.8430   41.2420 C.2   274  ASN274      0.2629
    107  OD1       49.7490   12.1540   41.3420 O.2   274  ASN274     -0.2716
    108  ND2       48.5660   13.7850   40.3150 N.am  274  ASN274     -0.0877
    109  N         52.5230   12.8950   43.0710 N.3   277  GLU277     -0.1245
    110  CA        52.9350   14.1410   43.7260 C.3   277  GLU277      0.1567
    111  C         53.9860   14.0180   44.8580 C.2   277  GLU277      0.2260
    112  O         55.0190   14.6780   44.8020 O.2   277  GLU277     -0.2867
    113  CB        51.7090   14.9150   44.2270 C.3   277  GLU277      0.0388
    114  CG        50.7800   15.3610   43.1250 C.3   277  GLU277      0.1160
    115  CD        49.4950   15.9870   43.6510 C.2   277  GLU277      0.3649
    116  OE1       48.9010   16.7670   42.8680 O.co2 277  GLU277     -0.2457
    117  OE2       49.0760   15.6910   44.8160 O.co2 277  GLU277     -0.2457
@<TRIPOS>BOND
     1   108   106   am
     2    90    89    1
     3   106   107    2
     4   106   105    1
     5    89    88    1
     6   105   102    1
     7   102   101    1
     8   102   103    1
     9    88    87    1
    10   116   115   ar
    11   109   110    1
    12    94    93    2
    13   114   115    1
    14   114   113    1
    15   101    93   am
    16    93    92    1
    17   103   104    2
    18   115   117   ar
    19   110   113    1
    20   110   111    1
    21    31    29    1
    22    92    91    1
    23    92    95    1
    24    59    61   ar
    25    59    57   ar
    26    61    60   ar
    27    97    99   ar
    28    97    96   ar
    29    87    86    1
    30    30    29    1
    31    99   100   ar
    32    29    28    2
    33    86    83    1
    34   112   111    2
    35    95    96    1
    36    57    56   ar
    37    96    98   ar
    38    60    58   ar
    39   100    98   ar
    40    28    27    1
    41    83    84    1
    42    83    82    1
    43    63    64    1
    44    63    62    1
    45    56    58   ar
    46    56    55    1
    47    65    64    2
    48    27    26    1
    49    85    84    2
    50    64    66   am
    51    82    76   am
    52    62    53   am
    53     6     5    1
    54    55    52    1
    55    26    25    1
    56    53    54    2
    57    53    52    1
    58    66    67    1
    59     5     2    1
    60    76    77    2
    61    76    75    1
    62    81    79    1
    63    52    51    1
    64    24    23    2
    65    78    79    1
    66    78    75    1
    67    74    68   am
    68    74    75    1
    69    67    68    1
    70    67    70    1
    71    68    69    2
    72    79    80    1
    73    25    22    1
    74    23    22    1
    75    22    21    1
    76     2     1    1
    77     2     3    1
    78     4     3    2
    79    51    42   am
    80    71    70    1
    81    71    73    1
    82    70    72    1
    83    42    43    2
    84    42    41    1
    85    37    39    1
    86    37    36    1
    87    21    16   am
    88    17    16    2
    89    32    33    1
    90    16    15    1
    91    38    36    1
    92    41    44    1
    93    41    40    1
    94    45    44    1
    95    45    46    1
    96    36    33    1
    97    12    11    1
    98    10     9    2
    99    46    47    1
   100    33    34    1
   101    11    13    1
   102    11     8    1
   103    15    14    1
   104    15    18    1
   105     9    14   am
   106     9     8    1
   107    34    35    2
   108    14    20    1
   109    47    48    2
   110    18    19    1
   111     8     7    1
   112    49    48    1
   113    19    20    1
   114    48    50    1
