@<TRIPOS>MOLECULE
tmp/2xd1A00.pdb
 151 144 0 0 0
SMALL
GASTEIGER

@<TRIPOS>ATOM
      1  N         45.8130   15.2390   55.2560 N.3   137  SER137     -0.1217
      2  CA        44.9810   14.4990   56.0690 C.3   137  SER137      0.1889
      3  C         43.4680   14.6380   55.7040 C.2   137  SER137      0.2288
      4  O         42.8690   15.7120   55.4070 O.2   137  SER137     -0.2866
      5  CB        45.3520   14.6780   57.5020 C.3   137  SER137      0.2089
      6  OG        44.2610   15.0030   58.2720 O.3   137  SER137     -0.2183
      7  N         41.2430   14.8070   57.6510 N.3   139  ALA139     -0.1231
      8  CA        40.5700   15.4570   58.8370 C.3   139  ALA139      0.1694
      9  C         39.3720   14.7200   59.4050 C.2   139  ALA139      0.2592
     10  O         39.0940   13.5650   59.0710 O.2   139  ALA139     -0.2718
     11  CB        40.1430   16.8980   58.5790 C.3   139  ALA139      0.0304
     12  N         37.9190   15.6000   59.4790 N.am  140  SER140     -0.1952
     13  CA        36.6700   15.2010   60.0650 C.3   140  SER140      0.1924
     14  C         35.9040   14.4140   59.0600 C.2   140  SER140      0.2314
     15  O         35.4590   13.3100   59.3260 O.2   140  SER140     -0.2863
     16  CB        35.9190   16.4950   60.2270 C.3   140  SER140      0.2116
     17  OG        36.3270   16.9120   61.5230 O.3   140  SER140     -0.2180
     18  N         35.8540   10.6590   60.1790 N.3   143  LYS143     -0.1245
     19  CA        34.8710   10.2520   61.1840 C.3   143  LYS143      0.1561
     20  C         33.9080    9.1520   60.6550 C.2   143  LYS143      0.2260
     21  O         33.8570    8.0510   61.2500 O.2   143  LYS143     -0.2867
     22  CB        34.2320   11.4680   61.8580 C.3   143  LYS143      0.0271
     23  CG        35.2040   12.2410   62.7270 C.3   143  LYS143      0.0035
     24  CD        34.6570   13.6530   62.9160 C.3   143  LYS143      0.0206
     25  CE        35.4240   14.4310   63.9680 C.3   143  LYS143      0.1093
     26  NZ        34.9400   15.8330   64.1060 N.3   143  LYS143     -0.1314
     27  N         37.6090   21.9630   69.4780 N.3   178  TYR178     -0.1227
     28  CA        36.8270   22.0910   68.2580 C.3   178  TYR178      0.1736
     29  C         36.8950   23.5520   67.9070 C.2   178  TYR178      0.2595
     30  O         36.2180   24.3330   68.5640 O.2   178  TYR178     -0.2718
     31  CB        35.3500   21.7530   68.5280 C.3   178  TYR178      0.0548
     32  CG        34.3610   22.0010   67.3650 C.ar  178  TYR178     -0.0200
     33  CD1       34.0820   21.0010   66.4090 C.ar  178  TYR178     -0.0009
     34  CD2       33.6820   23.2040   67.2410 C.ar  178  TYR178     -0.0009
     35  CE1       33.1560   21.2370   65.3630 C.ar  178  TYR178      0.0417
     36  CE2       32.7730   23.4460   66.1840 C.ar  178  TYR178      0.0417
     37  CZ        32.5020   22.4640   65.2760 C.ar  178  TYR178      0.1957
     38  OH        31.6000   22.7090   64.2830 O.3   178  TYR178     -0.2866
     39  N         37.7010   23.9450   66.9090 N.am  179  ALA179     -0.1980
     40  CA        37.7720   25.3760   66.4490 C.3   179  ALA179      0.1597
     41  C         38.1800   26.0600   67.6930 C.2   179  ALA179      0.2287
     42  O         39.2790   25.7560   68.2140 O.2   179  ALA179     -0.2864
     43  CB        36.4000   25.8990   66.0730 C.3   179  ALA179      0.0319
     44  N         27.9450   18.9890   62.7970 N.3   195  TYR195     -0.1227
     45  CA        28.8120   20.0110   63.2750 C.3   195  TYR195      0.1736
     46  C         30.2430   19.5740   63.3040 C.2   195  TYR195      0.2596
     47  O         31.1120   20.4130   63.4570 O.2   195  TYR195     -0.2718
     48  CB        28.4930   20.2440   64.7180 C.3   195  TYR195      0.0548
     49  CG        27.3540   21.2120   64.8620 C.ar  195  TYR195     -0.0200
     50  CD1       25.9700   20.7770   64.7170 C.ar  195  TYR195     -0.0009
     51  CD2       27.6250   22.5780   65.1180 C.ar  195  TYR195     -0.0009
     52  CE1       24.9470   21.7070   64.7880 C.ar  195  TYR195      0.0417
     53  CE2       26.6150   23.4450   65.2130 C.ar  195  TYR195      0.0417
     54  CZ        25.3440   23.0090   65.0420 C.ar  195  TYR195      0.1957
     55  OH        24.4740   23.9560   65.0900 O.3   195  TYR195     -0.2866
     56  N         30.4810   18.2740   63.2250 N.am  196  SER196     -0.1952
     57  CA        31.8020   17.6800   63.3580 C.3   196  SER196      0.1924
     58  C         32.5300   17.9880   64.6350 C.2   196  SER196      0.2314
     59  O         33.6810   18.3880   64.6330 O.2   196  SER196     -0.2863
     60  CB        32.6960   17.9600   62.1650 C.3   196  SER196      0.2116
     61  OG        33.1860   16.6660   61.7750 O.3   196  SER196     -0.2180
     62  N         34.6600   17.3350   67.8210 N.3   198  ASN198     -0.1240
     63  CA        35.7190   16.3660   67.9100 C.3   198  ASN198      0.1653
     64  C         35.5960   15.3420   69.0040 C.2   198  ASN198      0.2266
     65  O         35.8470   14.1690   68.7680 O.2   198  ASN198     -0.2867
     66  CB        37.0230   17.0740   67.9720 C.3   198  ASN198      0.1155
     67  CG        37.3680   17.6100   66.6750 C.2   198  ASN198      0.2627
     68  OD1       37.1950   16.9310   65.6740 O.2   198  ASN198     -0.2716
     69  ND2       37.8070   18.8510   66.6350 N.am  198  ASN198     -0.0877
     70  N         39.8250   11.8810   64.0490 N.3   236  MET236     -0.1230
     71  CA        39.8060   13.2330   63.5110 C.3   236  MET236      0.1702
     72  C         40.7100   13.3690   62.3480 C.2   236  MET236      0.2593
     73  O         40.8250   14.4450   61.8140 O.2   236  MET236     -0.2718
     74  CB        40.2610   14.2540   64.5110 C.3   236  MET236      0.0401
     75  CG        39.3080   14.4970   65.6380 C.3   236  MET236      0.0596
     76  SD        39.6400   13.4620   67.0990 S.3   236  MET236     -0.1393
     77  CE        40.2720   14.8750   67.9580 C.3   236  MET236      0.0692
     78  N         41.3580   12.2930   61.9370 N.am  237  GLY237     -0.1942
     79  CA        42.2360   12.3570   60.7710 C.3   237  GLY237      0.2014
     80  C         43.6650   12.7520   61.1410 C.2   237  GLY237      0.2639
     81  O         44.4470   13.1700   60.2930 O.2   237  GLY237     -0.2714
     82  N         44.0000   12.5900   62.4150 N.am  238  GLY238     -0.1954
     83  CA        45.3850   12.6630   62.8910 C.3   238  GLY238      0.1869
     84  C         46.1690   11.4020   62.5770 C.2   238  GLY238      0.2309
     85  O         45.6660   10.2880   62.7860 O.2   238  GLY238     -0.2863
     86  N         28.2400   22.8420   58.3620 N.3   309  THR309     -0.1274
     87  CA        29.6020   23.0630   57.9830 C.3   309  THR309      0.1548
     88  C         29.7930   23.1120   56.4050 C.3   309  THR309      0.2036
     89  O         30.9720   23.1410   55.8740 O.3   309  THR309     -0.2187
     90  CB        30.3590   21.9060   58.4550 C.3   309  THR309      0.1721
     91  OG1       29.9510   20.8030   57.6380 O.3   309  THR309     -0.2215
     92  CG2       30.0950   21.6210   59.9270 C.3   309  THR309      0.0371
     93  N         30.3340   14.8170   53.5610 N.3   331  LYS331     -0.1231
     94  CA        30.9530   15.1640   54.8120 C.3   331  LYS331      0.1693
     95  C         32.0840   16.1310   54.4760 C.2   331  LYS331      0.2593
     96  O         32.6030   16.1230   53.2890 O.2   331  LYS331     -0.2718
     97  CB        31.4430   13.9120   55.5470 C.3   331  LYS331      0.0285
     98  CG        31.9750   14.1040   57.0110 C.3   331  LYS331      0.0035
     99  CD        30.9020   14.4600   58.0020 C.3   331  LYS331      0.0206
    100  CE        31.4260   15.2430   59.2120 C.3   331  LYS331      0.1093
    101  NZ        32.3180   16.3110   58.7130 N.3   331  LYS331     -0.1314
    102  N         32.4720   16.9690   55.4500 N.am  332  THR332     -0.1939
    103  CA        33.5110   17.9750   55.1930 C.3   332  THR332      0.2028
    104  C         34.6250   17.6550   56.0920 C.2   332  THR332      0.2643
    105  O         34.3940   16.8220   57.0140 O.2   332  THR332     -0.2714
    106  CB        33.0540   19.3480   55.6270 C.3   332  THR332      0.1808
    107  OG1       32.3070   19.1990   56.8510 O.3   332  THR332     -0.2208
    108  CG2       32.1580   19.9850   54.5680 C.3   332  THR332      0.0379
    109  N         35.7750   18.2950   55.8510 N.am  333  GLY333     -0.1939
    110  CA        36.8710   18.3090   56.8200 C.3   333  GLY333      0.2014
    111  C         37.7160   19.5870   56.8520 C.2   333  GLY333      0.2640
    112  O         37.9390   20.1900   55.8400 O.2   333  GLY333     -0.2714
    113  N         38.2240   20.0300   57.9740 N.am  334  THR334     -0.1936
    114  CA        39.1410   21.1490   57.9100 C.3   334  THR334      0.2028
    115  C         40.3520   20.7890   58.7350 C.2   334  THR334      0.2643
    116  O         40.1880   20.2240   59.7700 O.2   334  THR334     -0.2714
    117  CB        38.5300   22.2810   58.6310 C.3   334  THR334      0.1808
    118  OG1       37.3150   22.6590   58.0060 O.3   334  THR334     -0.2208
    119  CG2       39.4130   23.4030   58.6230 C.3   334  THR334      0.0379
    120  N         41.5660   21.0720   58.2960 N.am  335  THR335     -0.1936
    121  CA        42.7500   20.6760   59.1010 C.3   335  THR335      0.2028
    122  C         43.2850   21.8630   59.9110 C.2   335  THR335      0.2642
    123  O         42.9620   23.0490   59.6070 O.2   335  THR335     -0.2714
    124  CB        43.9070   20.1330   58.2830 C.3   335  THR335      0.1808
    125  OG1       44.2860   21.0610   57.2480 O.3   335  THR335     -0.2208
    126  CG2       43.5000   18.8210   57.6890 C.3   335  THR335      0.0379
    127  N         44.0930   21.5720   60.9260 N.am  336  ASN336     -0.1957
    128  CA        44.6770   22.6230   61.6730 C.3   336  ASN336      0.1819
    129  C         45.1400   23.8290   60.8630 C.2   336  ASN336      0.2621
    130  O         45.7830   23.6550   59.7880 O.2   336  ASN336     -0.2715
    131  CB        45.8540   22.0710   62.4070 C.3   336  ASN336      0.1195
    132  CG        45.7280   22.3810   63.8620 C.2   336  ASN336      0.2630
    133  OD1       46.5740   21.9930   64.6910 O.2   336  ASN336     -0.2716
    134  ND2       44.6290   23.1110   64.2050 N.am  336  ASN336     -0.0877
    135  N         44.8080   25.0310   61.3780 N.am  337  GLN337     -0.1963
    136  CA        45.1700   26.3140   60.7040 C.3   337  GLN337      0.1733
    137  C         44.6490   26.3510   59.2740 C.2   337  GLN337      0.2616
    138  O         45.3390   26.8580   58.3890 O.2   337  GLN337     -0.2715
    139  CB        46.7170   26.6240   60.5490 C.3   337  GLN337      0.0408
    140  CG        47.7160   25.9760   61.5100 C.3   337  GLN337      0.0908
    141  CD        47.5210   26.5790   62.8620 C.2   337  GLN337      0.2608
    142  OE1       46.9260   25.9610   63.7650 O.2   337  GLN337     -0.2717
    143  NE2       47.9210   27.8560   62.9930 N.am  337  GLN337     -0.0878
    144  N         43.4840   25.7900   59.0110 N.am  338  ASP338     -0.1971
    145  CA        42.8700   26.0040   57.7310 C.3   338  ASP338      0.1709
    146  C         43.7780   25.6920   56.5830 C.2   338  ASP338      0.2293
    147  O         43.7720   26.3840   55.5980 O.2   338  ASP338     -0.2864
    148  CB        42.4110   27.4320   57.6550 C.3   338  ASP338      0.1436
    149  CG        41.2900   27.6950   58.5710 C.2   338  ASP338      0.3671
    150  OD1       40.6420   26.7230   58.9730 O.co2 338  ASP338     -0.2456
    151  OD2       41.0440   28.8650   58.9300 O.co2 338  ASP338     -0.2456
@<TRIPOS>BOND
     1    96    95    2
     2    93    94    1
     3    95    94    1
     4    95   102   am
     5   108   106    1
     6    94    97    1
     7   103   102    1
     8   103   106    1
     9   103   104    1
    10     1     2    1
    11     4     3    2
    12    97    98    1
    13   147   146    2
    14   106   107    1
    15     3     2    1
    16   112   111    2
    17   109   104   am
    18   109   110    1
    19    89    88    1
    20     2     5    1
    21   104   105    2
    22    88    87    1
    23   146   145    1
    24   110   111    1
    25   111   113   am
    26    98    99    1
    27   125   124    1
    28     5     6    1
    29    91    90    1
    30     7     8    1
    31   148   145    1
    32   148   149    1
    33   126   124    1
    34   145   144    1
    35   114   113    1
    36   114   117    1
    37   114   115    1
    38    87    86    1
    39    87    90    1
    40    99   100    1
    41   118   117    1
    42   124   121    1
    43   120   115   am
    44   120   121    1
    45   138   137    2
    46    90    92    1
    47   149   151   ar
    48   149   150   ar
    49    11     8    1
    50   119   117    1
    51   101   100    1
    52   115   116    2
    53     8     9    1
    54   144   137   am
    55    14    15    2
    56    14    13    1
    57    10     9    2
    58   121   122    1
    59   137   136    1
    60     9    12   am
    61    12    13    1
    62   123   122    2
    63   130   129    2
    64   122   127   am
    65    13    16    1
    66    18    19    1
    67    16    17    1
    68    81    80    2
    69   139   136    1
    70   139   140    1
    71    20    19    1
    72    20    21    2
    73   136   135    1
    74    79    80    1
    75    79    78    1
    76   129   135   am
    77   129   128    1
    78   127   128    1
    79    80    82   am
    80    19    22    1
    81   140   141    1
    82   128   131    1
    83    61    60    1
    84    73    72    2
    85    22    23    1
    86    78    72   am
    87    60    57    1
    88    72    71    1
    89   131   132    1
    90    82    83    1
    91    84    85    2
    92    84    83    1
    93    23    24    1
    94    44    45    1
    95   141   143   am
    96   141   142    2
    97    24    25    1
    98    56    46   am
    99    56    57    1
   100    45    46    1
   101    45    48    1
   102    46    47    2
   103    57    58    1
   104    71    70    1
   105    71    74    1
   106   132   134   am
   107   132   133    2
   108    25    26    1
   109    38    37    1
   110    74    75    1
   111    59    58    2
   112    50    52   ar
   113    50    49   ar
   114    48    49    1
   115    52    54   ar
   116    49    51   ar
   117    54    55    1
   118    54    53   ar
   119    51    53   ar
   120    37    35   ar
   121    37    36   ar
   122    35    33   ar
   123    75    76    1
   124    68    67    2
   125    43    40    1
   126    36    34   ar
   127    33    32   ar
   128    40    39    1
   129    40    41    1
   130    69    67   am
   131    67    66    1
   132    39    29   am
   133    76    77    1
   134    34    32   ar
   135    32    31    1
   136    41    42    2
   137    62    63    1
   138    29    28    1
   139    29    30    2
   140    63    66    1
   141    63    64    1
   142    28    31    1
   143    28    27    1
   144    65    64    2
