@<TRIPOS>MOLECULE
tmp/2xd4A00.pdb
 168 153 0 0 0
SMALL
GASTEIGER

@<TRIPOS>ATOM
      1  N         12.3130   54.8290   38.1690 N.3   103  LYS103     -0.1245
      2  CA        12.3810   54.8460   36.7090 C.3   103  LYS103      0.1561
      3  C         12.0280   56.2100   36.1470 C.2   103  LYS103      0.2260
      4  O         12.4840   56.5730   35.0670 O.2   103  LYS103     -0.2867
      5  CB        11.4400   53.8080   36.0850 C.3   103  LYS103      0.0271
      6  CG        11.7090   52.3780   36.4800 C.3   103  LYS103      0.0035
      7  CD        10.9850   51.4130   35.5490 C.3   103  LYS103      0.0206
      8  CE        11.1580   49.9690   36.0000 C.3   103  LYS103      0.1093
      9  NZ        12.5530   49.4840   35.8870 N.3   103  LYS103     -0.1314
     10  N         13.1540   54.9040   25.1730 N.3   118  ALA118     -0.1245
     11  CA        11.7960   55.0100   24.6620 C.3   118  ALA118      0.1562
     12  C         11.2000   56.3500   25.0690 C.2   118  ALA118      0.2260
     13  O         11.4540   56.8580   26.1600 O.2   118  ALA118     -0.2867
     14  CB        10.9350   53.8660   25.2020 C.3   118  ALA118      0.0290
     15  N          3.7980   50.6010   26.8940 N.3   141  VAL141     -0.1245
     16  CA         4.3860   49.9290   28.0460 C.3   141  VAL141      0.1561
     17  C          4.1150   50.7090   29.3300 C.2   141  VAL141      0.2260
     18  O          4.3780   51.9080   29.4130 O.2   141  VAL141     -0.2867
     19  CB         5.9110   49.7310   27.8520 C.3   141  VAL141      0.0252
     20  CG1        6.4900   48.9320   29.0100 C.3   141  VAL141      0.0019
     21  CG2        6.1730   49.0060   26.5330 C.3   141  VAL141      0.0019
     22  N          4.8910   51.1470   33.2290 N.3   143  LYS143     -0.1245
     23  CA         5.9250   50.8290   34.2060 C.3   143  LYS143      0.1561
     24  C          5.7170   51.4990   35.5600 C.2   143  LYS143      0.2260
     25  O          5.5910   52.7160   35.6510 O.2   143  LYS143     -0.2867
     26  CB         7.2940   51.2420   33.6680 C.3   143  LYS143      0.0271
     27  CG         7.7700   50.4770   32.4620 C.3   143  LYS143      0.0035
     28  CD         9.0620   51.0840   31.9650 C.3   143  LYS143      0.0206
     29  CE         9.9930   50.0420   31.3660 C.3   143  LYS143      0.1093
     30  NZ        11.2840   50.6800   30.9550 N.3   143  LYS143     -0.1314
     31  N         10.5410   49.9710   42.8390 N.3   147  LEU147     -0.1245
     32  CA        11.0470   48.6300   42.5690 C.3   147  LEU147      0.1561
     33  C          9.9730   47.6030   42.1990 C.2   147  LEU147      0.2260
     34  O         10.0330   46.9990   41.1170 O.2   147  LEU147     -0.2867
     35  CB        11.8840   48.1410   43.7530 C.3   147  LEU147      0.0270
     36  CG        13.3730   48.4810   43.6050 C.3   147  LEU147      0.0019
     37  CD1       13.5180   49.8640   42.9890 C.3   147  LEU147      0.0001
     38  CD2       14.0710   48.4090   44.9550 C.3   147  LEU147      0.0001
     39  N         10.1760   43.4320   40.2390 N.3   150  GLY150     -0.1225
     40  CA        10.4080   42.8740   38.9140 C.3   150  GLY150      0.1811
     41  C          9.1100   42.5470   38.1940 C.2   150  GLY150      0.2280
     42  O          9.0820   42.4320   36.9630 O.2   150  GLY150     -0.2866
     43  N          6.4690   44.4030   37.8880 N.3   152  GLY152     -0.1210
     44  CA         5.7450   45.6510   37.7350 C.3   152  GLY152      0.1956
     45  C          5.9220   46.3220   36.3820 C.2   152  GLY152      0.2611
     46  O          5.8290   47.5550   36.2660 O.2   152  GLY152     -0.2717
     47  N          6.1890   45.5170   35.3570 N.am  153  VAL153     -0.1979
     48  CA         6.2110   46.0160   33.9870 C.3   153  VAL153      0.1595
     49  C          5.2140   45.2470   33.1150 C.2   153  VAL153      0.2287
     50  O          5.2310   44.0120   33.0610 O.2   153  VAL153     -0.2864
     51  CB         7.6300   45.9080   33.3660 C.3   153  VAL153      0.0276
     52  CG1        7.6010   46.3290   31.9040 C.3   153  VAL153      0.0022
     53  CG2        8.5940   46.7810   34.1370 C.3   153  VAL153      0.0022
     54  N          3.7270   44.9560   29.2230 N.3   155  VAL155     -0.1245
     55  CA         3.6970   45.3370   27.8200 C.3   155  VAL155      0.1561
     56  C          2.2900   45.1070   27.2990 C.2   155  VAL155      0.2260
     57  O          1.8950   43.9720   27.0700 O.2   155  VAL155     -0.2867
     58  CB         4.6910   44.5080   26.9690 C.3   155  VAL155      0.0252
     59  CG1        4.6880   45.0230   25.5350 C.3   155  VAL155      0.0019
     60  CG2        6.1010   44.5760   27.5720 C.3   155  VAL155      0.0019
     61  N          5.6040   54.4260   28.4090 N.3   185  GLU185     -0.1231
     62  CA         6.5610   54.6720   27.3360 C.3   185  GLU185      0.1699
     63  C          6.2440   53.8480   26.0920 C.2   185  GLU185      0.2592
     64  O          5.4120   52.9340   26.1250 O.2   185  GLU185     -0.2718
     65  CB         7.9920   54.3730   27.8160 C.3   185  GLU185      0.0402
     66  CG         8.2760   52.9060   28.1120 C.3   185  GLU185      0.1161
     67  CD         9.6800   52.6830   28.6600 C.2   185  GLU185      0.3649
     68  OE1       10.2470   51.5810   28.4570 O.co2 185  GLU185     -0.2457
     69  OE2       10.2180   53.6140   29.2990 O.co2 185  GLU185     -0.2457
     70  N          6.9240   54.1750   24.9960 N.am  186  GLU186     -0.1966
     71  CA         6.6710   53.5330   23.7120 C.3   186  GLU186      0.1733
     72  C          7.1870   52.1010   23.6700 C.2   186  GLU186      0.2616
     73  O          8.1900   51.7650   24.2960 O.2   186  GLU186     -0.2715
     74  CB         7.3080   54.3440   22.5760 C.3   186  GLU186      0.0429
     75  CG         8.7670   54.0280   22.3250 C.3   186  GLU186      0.1163
     76  CD         9.3870   54.9170   21.2590 C.2   186  GLU186      0.3649
     77  OE1       10.5260   55.3900   21.4760 O.co2 186  GLU186     -0.2457
     78  OE2        8.7390   55.1380   20.2100 O.co2 186  GLU186     -0.2457
     79  N          6.4830   51.2580   22.9280 N.am  187  TYR187     -0.1960
     80  CA         6.9010   49.8790   22.7250 C.3   187  TYR187      0.1771
     81  C          8.0340   49.8150   21.6890 C.2   187  TYR187      0.2619
     82  O          7.8840   50.2820   20.5540 O.2   187  TYR187     -0.2715
     83  CB         5.6970   49.0400   22.2690 C.3   187  TYR187      0.0574
     84  CG         6.0170   47.5950   21.9590 C.ar  187  TYR187     -0.0198
     85  CD1        6.2010   46.6700   22.9760 C.ar  187  TYR187     -0.0009
     86  CD2        6.1340   47.1540   20.6460 C.ar  187  TYR187     -0.0009
     87  CE1        6.4920   45.3410   22.6940 C.ar  187  TYR187      0.0417
     88  CE2        6.4250   45.8310   20.3580 C.ar  187  TYR187      0.0417
     89  CZ         6.6010   44.9280   21.3850 C.ar  187  TYR187      0.1957
     90  OH         6.8530   43.6020   21.1040 O.3   187  TYR187     -0.2866
     91  N          9.1690   49.2530   22.0950 N.am  188  LEU188     -0.1977
     92  CA        10.3050   49.0850   21.2000 C.3   188  LEU188      0.1596
     93  C         10.5180   47.5840   20.9610 C.2   188  LEU188      0.2287
     94  O         10.0450   46.7510   21.7370 O.2   188  LEU188     -0.2864
     95  CB        11.5730   49.7020   21.8180 C.3   188  LEU188      0.0297
     96  CG        11.5210   51.1090   22.4230 C.3   188  LEU188      0.0022
     97  CD1       12.7960   51.3820   23.2160 C.3   188  LEU188      0.0001
     98  CD2       11.3420   52.1320   21.3380 C.3   188  LEU188      0.0001
     99  N         17.3970   42.2160   22.7770 N.3   192  GLU192     -0.1245
    100  CA        17.6230   42.7900   24.0910 C.3   192  GLU192      0.1567
    101  C         18.8980   42.1790   24.6880 C.2   192  GLU192      0.2260
    102  O         19.0990   40.9620   24.6230 O.2   192  GLU192     -0.2867
    103  CB        16.4230   42.4890   24.9800 C.3   192  GLU192      0.0388
    104  CG        16.1430   43.5480   26.0130 C.3   192  GLU192      0.1160
    105  CD        14.8520   43.2900   26.7580 C.2   192  GLU192      0.3649
    106  OE1       14.8020   43.6180   27.9590 O.co2 192  GLU192     -0.2457
    107  OE2       13.8960   42.7610   26.1410 O.co2 192  GLU192     -0.2457
    108  N         13.7770   36.1700   29.7150 N.3   214  LYS214     -0.1245
    109  CA        12.9510   36.7050   30.7830 C.3   214  LYS214      0.1561
    110  C         11.6700   35.8760   30.9050 C.2   214  LYS214      0.2260
    111  O         10.9620   35.9580   31.9090 O.2   214  LYS214     -0.2867
    112  CB        12.6090   38.1710   30.4730 C.3   214  LYS214      0.0271
    113  CG        12.7780   39.1460   31.6350 C.3   214  LYS214      0.0035
    114  CD        14.1210   39.8750   31.5810 C.3   214  LYS214      0.0206
    115  CE        14.1200   41.1170   32.4790 C.3   214  LYS214      0.1093
    116  NZ        13.3510   40.9290   33.7480 N.3   214  LYS214     -0.1314
    117  N          6.2250   36.0630   32.7870 N.3   224  ASN224     -0.1240
    118  CA         7.6080   36.4850   32.9350 C.3   224  ASN224      0.1653
    119  C          8.2760   35.6910   34.0450 C.2   224  ASN224      0.2266
    120  O          7.6010   35.0410   34.8470 O.2   224  ASN224     -0.2867
    121  CB         7.6870   37.9790   33.2570 C.3   224  ASN224      0.1155
    122  CG         7.9120   38.8290   32.0240 C.2   224  ASN224      0.2627
    123  OD1        8.5960   39.8540   32.0810 O.2   224  ASN224     -0.2716
    124  ND2        7.3380   38.4090   30.9010 N.am  224  ASN224     -0.0877
    125  N         17.8630   47.7000   24.2510 N.3   273  MET273     -0.1245
    126  CA        17.0990   47.1980   23.1140 C.3   273  MET273      0.1570
    127  C         17.7570   47.7000   21.8300 C.2   273  MET273      0.2261
    128  O         17.6780   48.8870   21.5230 O.2   273  MET273     -0.2867
    129  CB        15.6630   47.7340   23.1820 C.3   273  MET273      0.0387
    130  CG        14.7490   47.2580   22.0640 C.3   273  MET273      0.0595
    131  SD        14.0800   45.6530   22.4510 S.3   273  MET273     -0.1393
    132  CE        12.6890   46.1020   23.4180 C.3   273  MET273      0.0692
    133  N         16.1690   50.4790   27.8950 N.3   282  ILE282     -0.1231
    134  CA        14.9490   49.9800   28.5150 C.3   282  ILE282      0.1692
    135  C         14.9510   50.4020   29.9870 C.2   282  ILE282      0.2591
    136  O         13.9270   50.8470   30.5170 O.2   282  ILE282     -0.2718
    137  CB        14.8890   48.4300   28.4320 C.3   282  ILE282      0.0266
    138  CG1       14.8210   47.9910   26.9680 C.3   282  ILE282      0.0019
    139  CG2       13.6990   47.8940   29.2080 C.3   282  ILE282      0.0020
    140  CD1       13.5680   48.4710   26.2520 C.3   282  ILE282      0.0001
    141  N         16.1160   50.2660   30.6270 N.am  283  GLU283     -0.1979
    142  CA        16.2830   50.5740   32.0510 C.3   283  GLU283      0.1602
    143  C         17.7370   50.4960   32.5250 C.2   283  GLU283      0.2287
    144  O         18.5690   49.8100   31.9300 O.2   283  GLU283     -0.2864
    145  CB        15.4590   49.6090   32.9080 C.3   283  GLU283      0.0415
    146  CG        16.0690   48.2230   33.0070 C.3   283  GLU283      0.1163
    147  CD        15.6380   47.4820   34.2600 C.2   283  GLU283      0.3649
    148  OE1       15.2640   48.1530   35.2600 O.co2 283  GLU283     -0.2457
    149  OE2       15.6770   46.2260   34.2440 O.co2 283  GLU283     -0.2457
    150  N         19.9390   49.2450   35.9650 N.3   285  ASN285     -0.1240
    151  CA        20.0310   48.6940   37.3090 C.3   285  ASN285      0.1653
    152  C         21.3270   49.1710   37.9300 C.2   285  ASN285      0.2266
    153  O         22.2810   49.4970   37.2260 O.2   285  ASN285     -0.2867
    154  CB        20.0150   47.1640   37.2990 C.3   285  ASN285      0.1155
    155  CG        18.7330   46.5910   36.7180 C.2   285  ASN285      0.2627
    156  OD1       17.6610   47.1870   36.8290 O.2   285  ASN285     -0.2716
    157  ND2       18.8420   45.4220   36.0940 N.am  285  ASN285     -0.0877
    158  N         23.2790   47.4650   40.0740 N.3   287  ARG287     -0.1245
    159  CA        24.1280   46.3720   40.5590 C.3   287  ARG287      0.1563
    160  C         24.2950   45.2710   39.5130 C.2   287  ARG287      0.2260
    161  O         23.7120   45.3530   38.4370 O.2   287  ARG287     -0.2867
    162  CB        23.5420   45.7900   41.8530 C.3   287  ARG287      0.0307
    163  CG        22.0210   45.8220   41.9180 C.3   287  ARG287      0.0489
    164  CD        21.4130   44.9250   40.8580 C.3   287  ARG287      0.2205
    165  NE        20.0300   45.2880   40.5700 N.pl3 287  ARG287     -0.0865
    166  CZ        19.1950   44.5320   39.8650 C.cat 287  ARG287      0.5346
    167  NH1       19.6000   43.3670   39.3740 N.pl3 287  ARG287      0.1354
    168  NH2       17.9570   44.9400   39.6530 N.pl3 287  ARG287      0.1354
@<TRIPOS>BOND
     1    78    76   ar
     2    88    86   ar
     3    88    89   ar
     4    82    81    2
     5    86    84   ar
     6    93    92    1
     7    93    94    2
     8    90    89    1
     9    92    95    1
    10    92    91    1
    11    76    77   ar
    12    76    75    1
    13    98    96    1
    14    89    87   ar
    15   128   127    2
    16    81    91   am
    17    81    80    1
    18    95    96    1
    19   127   126    1
    20    84    83    1
    21    84    85   ar
    22   130   131    1
    23   130   129    1
    24    83    80    1
    25    75    74    1
    26    96    97    1
    27   131   132    1
    28    74    71    1
    29    87    85   ar
    30    80    79    1
    31    99   100    1
    32    79    72   am
    33   126   129    1
    34   126   125    1
    35    72    71    1
    36    72    73    2
    37    71    70    1
    38   100   101    1
    39   100   103    1
    40   102   101    2
    41    11    12    1
    42    11    10    1
    43    11    14    1
    44   103   104    1
    45    70    63   am
    46    12    13    2
    47    59    58    1
    48   104   105    1
    49    63    64    2
    50    63    62    1
    51   107   105   ar
    52   140   138    1
    53    21    19    1
    54   105   106   ar
    55    15    16    1
    56   138   137    1
    57    58    60    1
    58    58    55    1
    59    57    56    2
    60    56    55    1
    61    62    65    1
    62    62    61    1
    63    65    66    1
    64    55    54    1
    65    19    16    1
    66    19    20    1
    67   133   134    1
    68    16    17    1
    69    66    67    1
    70   137   134    1
    71   137   139    1
    72    68    67   ar
    73   134   135    1
    74    67    69   ar
    75    17    18    2
    76   108   109    1
    77   135   136    2
    78   135   141   am
    79   112   109    1
    80   112   113    1
    81   141   142    1
    82   109   110    1
    83   124   122   am
    84   110   111    2
    85    30    29    1
    86    29    28    1
    87   114   113    1
    88   114   115    1
    89    52    51    1
    90   144   143    2
    91    28    27    1
    92   122   123    2
    93   122   121    1
    94   142   143    1
    95   142   145    1
    96    27    26    1
    97   115   116    1
    98   117   118    1
    99   145   146    1
   100   118   121    1
   101   118   119    1
   102   146   147    1
   103    50    49    2
   104    49    48    1
   105    22    23    1
   106    51    48    1
   107    51    53    1
   108    26    23    1
   109    48    47    1
   110   119   120    2
   111    23    24    1
   112   149   147   ar
   113   147   148   ar
   114     4     3    2
   115    47    45   am
   116     7     8    1
   117     7     6    1
   118    24    25    2
   119     9     8    1
   120   150   151    1
   121     5     6    1
   122     5     2    1
   123   157   155   am
   124     3     2    1
   125    46    45    2
   126    45    44    1
   127     2     1    1
   128   155   156    2
   129   155   154    1
   130    42    41    2
   131   153   152    2
   132   154   151    1
   133   151   152    1
   134    44    43    1
   135    41    40    1
   136   161   160    2
   137    40    39    1
   138   167   166    1
   139   160   159    1
   140   168   166    1
   141   166   165    2
   142   158   159    1
   143   159   162    1
   144   165   164    1
   145   164   163    1
   146    34    33    2
   147   162   163    1
   148    33    32    1
   149    32    31    1
   150    32    35    1
   151    37    36    1
   152    36    35    1
   153    36    38    1
