@<TRIPOS>MOLECULE
tmp/2xd9B00.pdb
 144 137 0 0 0
SMALL
GASTEIGER

@<TRIPOS>ATOM
      1  N         -9.2720   34.2400   24.1600 N.3     9  PRO9       -0.2102
      2  CA        -8.9380   32.9090   23.7100 C.3     9  PRO9        0.1504
      3  C         -7.4970   32.5540   23.9620 C.2     9  PRO9        0.2576
      4  O         -6.6260   33.4250   23.9710 O.2     9  PRO9       -0.2718
      5  CB        -9.2350   32.9590   22.1900 C.3     9  PRO9        0.0282
      6  CG        -9.2320   34.3840   21.8190 C.3     9  PRO9        0.0208
      7  CD        -9.6810   35.1240   23.0480 C.3     9  PRO9        0.0893
      8  N         -7.2730   31.2660   24.1840 N.am   10  ASN10      -0.1961
      9  CA        -5.9660   30.6910   24.4910 C.3    10  ASN10       0.1819
     10  C         -5.3640   31.0060   25.8640 C.2    10  ASN10       0.2621
     11  O         -4.4180   30.3400   26.2450 O.2    10  ASN10      -0.2715
     12  CB        -4.9670   31.0260   23.3920 C.3    10  ASN10       0.1195
     13  CG        -5.4170   30.5000   22.0200 C.2    10  ASN10       0.2630
     14  OD1       -5.6030   29.3180   21.8630 O.2    10  ASN10      -0.2716
     15  ND2       -5.6520   31.3980   21.0600 N.am   10  ASN10      -0.0877
     16  N         -5.9010   31.9950   26.5630 N.am   11  LEU11      -0.1977
     17  CA        -5.4000   32.4300   27.8590 C.3    11  LEU11       0.1596
     18  C         -5.4500   31.3550   28.9660 C.2    11  LEU11       0.2287
     19  O         -4.6360   31.3700   29.9020 O.2    11  LEU11      -0.2864
     20  CB        -6.1590   33.6750   28.3150 C.3    11  LEU11       0.0297
     21  CG        -5.5400   35.0610   28.0670 C.3    11  LEU11       0.0022
     22  CD1       -4.0600   35.1430   28.5710 C.3    11  LEU11       0.0001
     23  CD2       -5.6350   35.4980   26.6270 C.3    11  LEU11       0.0001
     24  N         -4.6670   28.3660   28.5310 N.3    13  MET13      -0.1230
     25  CA        -3.4470   27.5770   28.3420 C.3    13  MET13       0.1702
     26  C         -2.1560   28.1980   28.9470 C.2    13  MET13       0.2592
     27  O         -1.0900   27.6190   28.8410 O.2    13  MET13      -0.2718
     28  CB        -3.2570   27.2770   26.8570 C.3    13  MET13       0.0401
     29  CG        -4.4080   26.4830   26.2420 C.3    13  MET13       0.0596
     30  SD        -4.7220   24.8550   26.9820 S.3    13  MET13      -0.1393
     31  CE        -3.0410   24.2580   27.0940 C.3    13  MET13       0.0692
     32  N         -2.2560   29.3500   29.5950 N.am   14  LEU14      -0.1980
     33  CA        -1.1170   29.9660   30.2790 C.3    14  LEU14       0.1596
     34  C         -0.3900   28.9980   31.1960 C.2    14  LEU14       0.2287
     35  O         -1.0300   28.2320   31.9190 O.2    14  LEU14      -0.2864
     36  CB        -1.5710   31.1490   31.1130 C.3    14  LEU14       0.0297
     37  CG        -1.4110   32.5120   30.4700 C.3    14  LEU14       0.0022
     38  CD1       -1.8730   33.5640   31.4260 C.3    14  LEU14       0.0001
     39  CD2        0.0480   32.7160   30.1070 C.3    14  LEU14       0.0001
     40  N          1.5300   25.8210   28.1620 N.3    17  ARG17      -0.1245
     41  CA         2.1430   25.8060   26.8480 C.3    17  ARG17       0.1563
     42  C          2.9150   27.0900   26.5770 C.2    17  ARG17       0.2260
     43  O          2.5690   28.1600   27.0740 O.2    17  ARG17      -0.2867
     44  CB         1.0790   25.5600   25.7760 C.3    17  ARG17       0.0307
     45  CG         0.3980   24.1740   25.8790 C.3    17  ARG17       0.0489
     46  CD         1.4040   23.0440   25.5760 C.3    17  ARG17       0.2205
     47  NE         0.7810   21.7230   25.4060 N.pl3  17  ARG17      -0.0865
     48  CZ         1.3980   20.6640   24.8670 C.cat  17  ARG17       0.5346
     49  NH1        2.6690   20.7480   24.4520 N.pl3  17  ARG17       0.1354
     50  NH2        0.7470   19.5060   24.7360 N.pl3  17  ARG17       0.1354
     51  N          4.9590   33.3220   27.0020 N.3    22  TYR22      -0.1241
     52  CA         3.8760   33.8060   27.8740 C.3    22  TYR22       0.1605
     53  C          4.0530   33.5220   29.3980 C.2    22  TYR22       0.2264
     54  O          3.1790   33.8430   30.2120 O.2    22  TYR22      -0.2867
     55  CB         2.5520   33.2360   27.3750 C.3    22  TYR22       0.0534
     56  CG         2.1500   33.7170   25.9760 C.ar   22  TYR22      -0.0201
     57  CD1        2.1120   32.8310   24.9000 C.ar   22  TYR22      -0.0009
     58  CD2        1.8220   35.0540   25.7320 C.ar   22  TYR22      -0.0009
     59  CE1        1.7370   33.2560   23.6090 C.ar   22  TYR22       0.0417
     60  CE2        1.4520   35.4920   24.4350 C.ar   22  TYR22       0.0417
     61  CZ         1.4090   34.5960   23.3920 C.ar   22  TYR22       0.1957
     62  OH         1.0410   35.0110   22.1240 O.3    22  TYR22      -0.2866
     63  N         -8.3180   41.1410   28.6020 N.3    76  ASN76      -0.1240
     64  CA        -7.2850   40.7130   27.6870 C.3    76  ASN76       0.1653
     65  C         -7.9690   39.8990   26.5880 C.2    76  ASN76       0.2266
     66  O         -8.1930   38.6990   26.7620 O.2    76  ASN76      -0.2867
     67  CB        -6.2610   39.8400   28.4040 C.3    76  ASN76       0.1155
     68  CG        -5.1450   39.3710   27.4980 C.2    76  ASN76       0.2627
     69  OD1       -5.2590   39.3700   26.2310 O.2    76  ASN76      -0.2716
     70  ND2       -4.0380   38.9550   28.1310 N.am   76  ASN76      -0.0877
     71  N         -6.8970   38.6460   23.8830 N.3    78  GLY78      -0.1210
     72  CA        -6.1090   37.6800   23.1650 C.3    78  GLY78       0.1956
     73  C         -6.0210   38.1650   21.7190 C.2    78  GLY78       0.2611
     74  O         -6.0270   39.3710   21.4710 O.2    78  GLY78      -0.2717
     75  N         -6.0180   37.2160   20.7990 N.am   79  ALA79      -0.1979
     76  CA        -5.9360   37.4780   19.3640 C.3    79  ALA79       0.1597
     77  C         -7.1520   38.2150   18.7760 C.2    79  ALA79       0.2287
     78  O         -7.0670   38.7890   17.6720 O.2    79  ALA79      -0.2864
     79  CB        -5.6650   36.1270   18.6120 C.3    79  ALA79       0.0319
     80  N         -6.9230   41.9450   17.6780 N.3    82  HIS82      -0.1241
     81  CA        -6.4300   42.3540   16.3570 C.3    82  HIS82       0.1621
     82  C         -7.4670   42.2410   15.2700 C.2    82  HIS82       0.2264
     83  O         -7.3040   42.8500   14.2050 O.2    82  HIS82      -0.2867
     84  CB        -5.1650   41.5470   16.0010 C.3    82  HIS82       0.0745
     85  CG        -4.2510   41.3680   17.1800 C.ar   82  HIS82       0.0817
     86  ND1       -3.6680   42.4300   17.8290 N.ar   82  HIS82      -0.2268
     87  CD2       -3.8830   40.2590   17.8640 C.ar   82  HIS82       0.1154
     88  CE1       -2.9870   41.9880   18.8750 C.ar   82  HIS82       0.1986
     89  NE2       -3.0880   40.6720   18.9110 N.ar   82  HIS82      -0.2212
     90  N         -2.3830   43.2550   27.8690 N.3   102  HIS102     -0.1226
     91  CA        -1.6660   42.1940   27.1940 C.3   102  HIS102      0.1752
     92  C         -0.4480   41.8240   28.0060 C.2   102  HIS102      0.2596
     93  O          0.2670   42.6810   28.5040 O.2   102  HIS102     -0.2718
     94  CB        -1.2000   42.6500   25.7770 C.3   102  HIS102      0.0759
     95  CG        -2.3280   43.1020   24.9050 C.ar  102  HIS102      0.0818
     96  ND1       -3.1860   42.2180   24.2820 N.ar  102  HIS102     -0.2268
     97  CD2       -2.7680   44.3430   24.5950 C.ar  102  HIS102      0.1154
     98  CE1       -4.1150   42.9020   23.6390 C.ar  102  HIS102      0.1986
     99  NE2       -3.8820   44.1920   23.8130 N.ar  102  HIS102     -0.2212
    100  N         -0.1930   40.5360   28.0760 N.am  103  LEU103     -0.1966
    101  CA         0.9890   40.0220   28.7070 C.3   103  LEU103      0.1728
    102  C          2.2540   40.4480   27.9790 C.2   103  LEU103      0.2616
    103  O          3.2310   40.8270   28.6360 O.2   103  LEU103     -0.2715
    104  CB         0.9510   38.5040   28.7880 C.3   103  LEU103      0.0311
    105  CG        -0.1940   37.8750   29.5670 C.3   103  LEU103      0.0022
    106  CD1       -0.2460   36.4040   29.2450 C.3   103  LEU103      0.0001
    107  CD2       -0.0280   38.0700   31.0960 C.3   103  LEU103      0.0001
    108  N          2.2290   40.3930   26.6470 N.am  104  THR104     -0.1951
    109  CA         3.3760   40.7170   25.8350 C.3   104  THR104      0.1897
    110  C          3.2650   42.1160   25.2560 C.2   104  THR104      0.2313
    111  O          2.1990   42.7350   25.2970 O.2   104  THR104     -0.2863
    112  CB         3.5720   39.6960   24.7030 C.3   104  THR104      0.1794
    113  OG1        2.4310   39.7070   23.7980 O.3   104  THR104     -0.2208
    114  CG2        3.7850   38.2940   25.3100 C.3   104  THR104      0.0378
    115  N          2.7400   43.9670   22.3080 N.3   106  ILE106     -0.1245
    116  CA         2.1990   43.7870   20.9530 C.3   106  ILE106      0.1561
    117  C          2.6430   44.8290   19.9180 C.2   106  ILE106      0.2260
    118  O          2.2170   44.7580   18.7610 O.2   106  ILE106     -0.2867
    119  CB         0.6460   43.6810   20.9410 C.3   106  ILE106      0.0252
    120  CG1       -0.0080   45.0150   21.3300 C.3   106  ILE106      0.0019
    121  CG2        0.1820   42.4820   21.8010 C.3   106  ILE106      0.0019
    122  CD1       -1.4780   45.0640   21.1030 C.3   106  ILE106      0.0001
    123  N          6.0960   42.3760   18.3660 N.3   109  ARG109     -0.1245
    124  CA         5.9720   41.0380   17.8080 C.3   109  ARG109      0.1563
    125  C          5.6330   41.1150   16.3110 C.2   109  ARG109      0.2260
    126  O          6.0450   42.0680   15.6450 O.2   109  ARG109     -0.2867
    127  CB         4.9520   40.2420   18.6150 C.3   109  ARG109      0.0307
    128  CG         5.3380   40.1310   20.0970 C.3   109  ARG109      0.0489
    129  CD         4.3150   39.4000   20.8930 C.3   109  ARG109      0.2205
    130  NE         4.1910   38.0270   20.4360 N.pl3 109  ARG109     -0.0865
    131  CZ         3.2370   37.1870   20.7970 C.cat 109  ARG109      0.5346
    132  NH1        2.2980   37.5650   21.6290 N.pl3 109  ARG109      0.1354
    133  NH2        3.2350   35.9530   20.2940 N.pl3 109  ARG109      0.1354
    134  N         -0.0820   41.7380   14.9350 N.3   113  ARG113     -0.1245
    135  CA        -0.5050   42.0220   16.3290 C.3   113  ARG113      0.1563
    136  C         -0.5470   43.4970   16.6810 C.2   113  ARG113      0.2260
    137  O         -1.0160   43.8560   17.7520 O.2   113  ARG113     -0.2867
    138  CB         0.3740   41.2920   17.3500 C.3   113  ARG113      0.0307
    139  CG         0.2910   39.7640   17.2370 C.3   113  ARG113      0.0489
    140  CD         0.9990   39.0570   18.3750 C.3   113  ARG113      0.2205
    141  NE         1.3130   37.7060   17.9320 N.pl3 113  ARG113     -0.0865
    142  CZ         0.5050   36.6620   17.9990 C.cat 113  ARG113      0.5346
    143  NH1       -0.6910   36.7460   18.5670 N.pl3 113  ARG113      0.1354
    144  NH2        0.9310   35.5040   17.5170 N.pl3 113  ARG113      0.1354
@<TRIPOS>BOND
     1    83    82    2
     2   134   135    1
     3    82    81    1
     4   126   125    2
     5    84    81    1
     6    84    85    1
     7   125   124    1
     8   135   136    1
     9   135   138    1
    10    81    80    1
    11   136   137    2
    12    85    86   ar
    13    85    87   ar
    14   139   138    1
    15   139   140    1
    16   144   142    1
    17    78    77    2
    18   124   123    1
    19   124   127    1
    20    86    88   ar
    21    87    89   ar
    22   141   142    2
    23   141   140    1
    24   142   143    1
    25    79    76    1
    26   127   128    1
    27   118   117    2
    28    77    76    1
    29    88    89   ar
    30    76    75    1
    31   117   116    1
    32   128   129    1
    33   133   131    1
    34   130   131    2
    35   130   129    1
    36   131   132    1
    37    75    73   am
    38   119   116    1
    39   119   120    1
    40   119   121    1
    41   116   115    1
    42    15    13   am
    43   122   120    1
    44    74    73    2
    45    73    72    1
    46     6     5    1
    47     6     7    1
    48    14    13    2
    49    13    12    1
    50    62    61    1
    51     5     2    1
    52     7     1    1
    53    72    71    1
    54    12     9    1
    55    61    59   ar
    56    61    60   ar
    57    59    57   ar
    58    98    99   ar
    59    98    96   ar
    60     2     3    1
    61     2     1    1
    62   113   112    1
    63    99    97   ar
    64     3     4    2
    65     3     8   am
    66     8     9    1
    67    96    95   ar
    68    60    58   ar
    69    49    48    1
    70     9    10    1
    71    97    95   ar
    72   112   114    1
    73   112   109    1
    74    50    48    1
    75    48    47    2
    76    57    56   ar
    77    95    94    1
    78   110   111    2
    79   110   109    1
    80    47    46    1
    81    46    45    1
    82    58    56   ar
    83    44    45    1
    84    44    41    1
    85    94    91    1
    86   109   108    1
    87    10    11    2
    88    10    16   am
    89    56    55    1
    90    69    68    2
    91    29    28    1
    92    29    30    1
    93    16    17    1
    94    42    41    1
    95    42    43    2
    96    65    66    2
    97    65    64    1
    98    23    21    1
    99   108   102   am
   100    41    40    1
   101    28    25    1
   102    30    31    1
   103    51    52    1
   104    91    90    1
   105    91    92    1
   106    55    52    1
   107    68    70   am
   108    68    67    1
   109    64    67    1
   110    64    63    1
   111    17    20    1
   112    17    18    1
   113    52    53    1
   114   102   103    2
   115   102   101    1
   116    92   100   am
   117    92    93    2
   118    21    20    1
   119    21    22    1
   120   100   101    1
   121    25    24    1
   122    25    26    1
   123   101   104    1
   124   104   105    1
   125    27    26    2
   126    26    32   am
   127    18    19    2
   128   106   105    1
   129    53    54    2
   130   105   107    1
   131    32    33    1
   132    39    37    1
   133    33    36    1
   134    33    34    1
   135    37    36    1
   136    37    38    1
   137    34    35    2
