@<TRIPOS>MOLECULE
tmp/2xdaA00.pdb
 152 145 0 0 0
SMALL
GASTEIGER

@<TRIPOS>ATOM
      1  N          9.2660   15.8900   24.0160 N.3     9  PRO9       -0.2102
      2  CA         8.8680   17.1750   23.4780 C.3     9  PRO9        0.1504
      3  C          7.4400   17.5180   23.8350 C.2     9  PRO9        0.2576
      4  O          6.5590   16.6820   23.8130 O.2     9  PRO9       -0.2718
      5  CB         9.0750   17.0340   21.9680 C.3     9  PRO9        0.0282
      6  CG         9.0880   15.5760   21.7140 C.3     9  PRO9        0.0208
      7  CD         9.6970   14.9670   22.9580 C.3     9  PRO9        0.0893
      8  N          7.2720   18.7800   24.2060 N.am   10  ASN10      -0.1961
      9  CA         5.9950   19.3920   24.5350 C.3    10  ASN10       0.1819
     10  C          5.4240   19.0330   25.8990 C.2    10  ASN10       0.2621
     11  O          4.5000   19.7090   26.3170 O.2    10  ASN10      -0.2715
     12  CB         4.9410   19.1280   23.4480 C.3    10  ASN10       0.1195
     13  CG         5.3650   19.6760   22.1060 C.2    10  ASN10       0.2630
     14  OD1        5.5990   20.8850   21.9890 O.2    10  ASN10      -0.2716
     15  ND2        5.5610   18.7840   21.1120 N.am   10  ASN10      -0.0877
     16  N          5.9750   18.0270   26.5950 N.am   11  LEU11      -0.1977
     17  CA         5.4220   17.6150   27.9100 C.3    11  LEU11       0.1596
     18  C          5.4510   18.7480   28.9460 C.2    11  LEU11       0.2287
     19  O          4.6080   18.7790   29.8690 O.2    11  LEU11      -0.2864
     20  CB         6.1510   16.4300   28.4760 C.3    11  LEU11       0.0297
     21  CG         5.6470   15.0200   28.1630 C.3    11  LEU11       0.0022
     22  CD1        4.2360   14.8220   28.8430 C.3    11  LEU11       0.0001
     23  CD2        5.6820   14.7150   26.6640 C.3    11  LEU11       0.0001
     24  N          4.5220   21.6530   28.5870 N.3    13  MET13      -0.1230
     25  CA         3.3080   22.4510   28.4250 C.3    13  MET13       0.1702
     26  C          2.0550   21.8310   29.0340 C.2    13  MET13       0.2592
     27  O          0.9880   22.4130   28.9440 O.2    13  MET13      -0.2718
     28  CB         3.0680   22.7780   26.9460 C.3    13  MET13       0.0401
     29  CG         4.2570   23.4220   26.2580 C.3    13  MET13       0.0596
     30  SD         4.9790   24.8590   27.0910 S.3    13  MET13      -0.1393
     31  CE         4.1430   26.2230   26.2880 C.3    13  MET13       0.0692
     32  N          2.1850   20.6620   29.6480 N.am   14  LEU14      -0.1980
     33  CA         1.0680   19.9440   30.2170 C.3    14  LEU14       0.1596
     34  C          0.3770   20.8110   31.2600 C.2    14  LEU14       0.2287
     35  O          1.0450   21.5130   32.0400 O.2    14  LEU14      -0.2864
     36  CB         1.5740   18.6400   30.8510 C.3    14  LEU14       0.0297
     37  CG         0.5550   17.6070   31.2760 C.3    14  LEU14       0.0022
     38  CD1       -0.3700   17.2060   30.1190 C.3    14  LEU14       0.0001
     39  CD2        1.3280   16.4280   31.8590 C.3    14  LEU14       0.0001
     40  N         -1.7590   23.8940   28.1850 N.3    17  ARG17      -0.1231
     41  CA        -2.3180   23.8730   26.8360 C.3    17  ARG17       0.1694
     42  C         -3.1590   22.6220   26.5970 C.2    17  ARG17       0.2592
     43  O         -2.8990   21.5770   27.1770 O.2    17  ARG17      -0.2718
     44  CB        -1.1870   23.9510   25.7980 C.3    17  ARG17       0.0321
     45  CG        -0.4070   25.2780   25.7900 C.3    17  ARG17       0.0489
     46  CD        -1.3450   26.4450   25.5310 C.3    17  ARG17       0.2205
     47  NE        -0.6850   27.6410   25.0090 N.pl3  17  ARG17      -0.0865
     48  CZ        -1.3220   28.7740   24.6900 C.cat  17  ARG17       0.5346
     49  NH1       -2.6400   28.8760   24.8560 N.pl3  17  ARG17       0.1354
     50  NH2       -0.6420   29.8180   24.2110 N.pl3  17  ARG17       0.1354
     51  N         -4.1750   22.7660   25.7390 N.am   18  ASP18      -0.1974
     52  CA        -5.1180   21.7040   25.3650 C.3    18  ASP18       0.1709
     53  C         -5.5910   20.8210   26.5250 C.2    18  ASP18       0.2293
     54  O         -5.4530   19.5910   26.4780 O.2    18  ASP18      -0.2864
     55  CB        -4.5340   20.8370   24.2500 C.3    18  ASP18       0.1436
     56  CG        -5.6060   20.0220   23.5170 C.2    18  ASP18       0.3671
     57  OD1       -6.7970   20.0290   23.9380 O.co2  18  ASP18      -0.2456
     58  OD2       -5.2440   19.3620   22.5100 O.co2  18  ASP18      -0.2456
     59  N         -5.3960   16.6950   27.2380 N.3    22  TYR22      -0.1241
     60  CA        -4.2680   16.2870   28.0860 C.3    22  TYR22       0.1605
     61  C         -4.4500   16.6110   29.5720 C.2    22  TYR22       0.2264
     62  O         -3.6050   16.2610   30.3930 O.2    22  TYR22      -0.2867
     63  CB        -2.9890   16.9190   27.5770 C.3    22  TYR22       0.0534
     64  CG        -2.5330   16.4110   26.2310 C.ar   22  TYR22      -0.0201
     65  CD1       -2.6060   17.2160   25.0990 C.ar   22  TYR22      -0.0009
     66  CD2       -2.0030   15.1350   26.0910 C.ar   22  TYR22      -0.0009
     67  CE1       -2.1780   16.7510   23.8550 C.ar   22  TYR22       0.0417
     68  CE2       -1.5750   14.6700   24.8560 C.ar   22  TYR22       0.0417
     69  CZ        -1.6600   15.4630   23.7520 C.ar   22  TYR22       0.1957
     70  OH        -1.2200   15.0060   22.5160 O.3    22  TYR22      -0.2866
     71  N          8.2650    9.0480   28.5180 N.3    76  ASN76      -0.1240
     72  CA         7.2120    9.4530   27.6080 C.3    76  ASN76       0.1653
     73  C          7.9150   10.2260   26.5240 C.2    76  ASN76       0.2266
     74  O          8.1550   11.3990   26.6940 O.2    76  ASN76      -0.2867
     75  CB         6.1650   10.3280   28.3010 C.3    76  ASN76       0.1155
     76  CG         5.0290   10.7190   27.3830 C.2    76  ASN76       0.2627
     77  OD1        5.1280   10.6510   26.1270 O.2    76  ASN76      -0.2716
     78  ND2        3.9280   11.1060   27.9790 N.am   76  ASN76      -0.0877
     79  N          6.8750   11.5080   23.8930 N.3    78  GLY78      -0.1210
     80  CA         6.0210   12.4090   23.1470 C.3    78  GLY78       0.1956
     81  C          5.9720   11.9830   21.6720 C.2    78  GLY78       0.2611
     82  O          5.9960   10.7880   21.3390 O.2    78  GLY78      -0.2717
     83  N          5.9880   12.9630   20.7940 N.am   79  ALA79      -0.1979
     84  CA         5.8730   12.7240   19.3750 C.3    79  ALA79       0.1597
     85  C          7.0600   11.9320   18.8010 C.2    79  ALA79       0.2287
     86  O          6.9360   11.2560   17.7700 O.2    79  ALA79      -0.2864
     87  CB         5.7130   14.0710   18.6400 C.3    79  ALA79       0.0319
     88  N          6.8560    8.1600   17.6440 N.3    82  HIS82      -0.1241
     89  CA         6.3880    7.7130   16.3360 C.3    82  HIS82       0.1621
     90  C          7.4460    7.8610   15.2590 C.2    82  HIS82       0.2264
     91  O          7.2920    7.2880   14.1770 O.2    82  HIS82      -0.2867
     92  CB         5.1470    8.5060   15.9310 C.3    82  HIS82       0.0745
     93  CG         4.2150    8.7310   17.0760 C.ar   82  HIS82       0.0817
     94  ND1        3.6030    7.6930   17.7420 N.ar   82  HIS82      -0.2268
     95  CD2        3.8290    9.8690   17.6980 C.ar   82  HIS82       0.1154
     96  CE1        2.8850    8.1890   18.7430 C.ar   82  HIS82       0.1986
     97  NE2        2.9940    9.5080   18.7240 N.ar   82  HIS82      -0.2212
     98  N          2.3290    6.8480   27.7940 N.3   102  HIS102     -0.1226
     99  CA         1.6110    7.9180   27.1060 C.3   102  HIS102      0.1752
    100  C          0.3990    8.2870   27.9070 C.2   102  HIS102      0.2596
    101  O         -0.2900    7.4150   28.4510 O.2   102  HIS102     -0.2718
    102  CB         1.1330    7.4790   25.7150 C.3   102  HIS102      0.0759
    103  CG         2.2500    7.0750   24.8440 C.ar  102  HIS102      0.0818
    104  ND1        3.0840    7.9960   24.2540 N.ar  102  HIS102     -0.2268
    105  CD2        2.7490    5.8570   24.5510 C.ar  102  HIS102      0.1154
    106  CE1        4.0170    7.3520   23.5810 C.ar  102  HIS102      0.1986
    107  NE2        3.8390    6.0570   23.7480 N.ar  102  HIS102     -0.2212
    108  N          0.1550    9.5870   27.9850 N.am  103  LEU103     -0.1966
    109  CA        -1.0400   10.1200   28.6400 C.3   103  LEU103      0.1728
    110  C         -2.2930    9.6450   27.9330 C.2   103  LEU103      0.2616
    111  O         -3.2700    9.2030   28.5830 O.2   103  LEU103     -0.2715
    112  CB        -1.0060   11.6600   28.6600 C.3   103  LEU103      0.0311
    113  CG         0.1160   12.3010   29.4640 C.3   103  LEU103      0.0022
    114  CD1        0.2460   13.7710   29.0720 C.3   103  LEU103      0.0001
    115  CD2       -0.1420   12.1790   30.9730 C.3   103  LEU103      0.0001
    116  N         -2.2520    9.7420   26.6110 N.am  104  THR104     -0.1951
    117  CA        -3.3550    9.3530   25.7650 C.3   104  THR104      0.1897
    118  C         -3.1900    7.9530   25.1960 C.2   104  THR104      0.2313
    119  O         -2.1100    7.3590   25.2460 O.2   104  THR104     -0.2863
    120  CB        -3.5890   10.3430   24.6110 C.3   104  THR104      0.1794
    121  OG1       -2.4520   10.3610   23.7140 O.3   104  THR104     -0.2208
    122  CG2       -3.8360   11.7640   25.1770 C.3   104  THR104      0.0378
    123  N         -2.7130    6.1000   22.2550 N.3   106  ILE106     -0.1245
    124  CA        -2.2000    6.3030   20.9170 C.3   106  ILE106      0.1561
    125  C         -2.6880    5.3130   19.8830 C.2   106  ILE106      0.2260
    126  O         -2.3310    5.4460   18.7220 O.2   106  ILE106     -0.2867
    127  CB        -0.6450    6.4230   20.8580 C.3   106  ILE106      0.0252
    128  CG1        0.0420    5.1290   21.3310 C.3   106  ILE106      0.0019
    129  CG2       -0.2480    7.6490   21.6300 C.3   106  ILE106      0.0019
    130  CD1        1.5440    5.0470   20.9150 C.3   106  ILE106      0.0001
    131  N         -6.1260    7.5580   18.2410 N.3   109  ARG109     -0.1245
    132  CA        -5.9910    8.8940   17.6850 C.3   109  ARG109      0.1563
    133  C         -5.6780    8.8580   16.1750 C.2   109  ARG109      0.2260
    134  O         -6.1450    7.9610   15.4520 O.2   109  ARG109     -0.2867
    135  CB        -4.9450    9.6720   18.5190 C.3   109  ARG109      0.0307
    136  CG        -5.3560    9.8090   19.9680 C.3   109  ARG109      0.0489
    137  CD        -4.3300   10.5870   20.7920 C.3   109  ARG109      0.2205
    138  NE        -4.1850   11.9560   20.3140 N.pl3 109  ARG109     -0.0865
    139  CZ        -3.2770   12.8180   20.7560 C.cat 109  ARG109      0.5346
    140  NH1       -2.4080   12.4660   21.6850 N.pl3 109  ARG109      0.1354
    141  NH2       -3.2350   14.0540   20.2490 N.pl3 109  ARG109      0.1354
    142  N         -0.0090    8.3500   14.8260 N.3   113  ARG113     -0.1245
    143  CA         0.4210    8.0770   16.2070 C.3   113  ARG113      0.1563
    144  C          0.4490    6.6190   16.5860 C.2   113  ARG113      0.2260
    145  O          0.9210    6.2690   17.6660 O.2   113  ARG113     -0.2867
    146  CB        -0.4320    8.8360   17.2260 C.3   113  ARG113      0.0307
    147  CG        -0.3910   10.3220   17.0360 C.3   113  ARG113      0.0489
    148  CD        -1.0490   11.0610   18.2000 C.3   113  ARG113      0.2205
    149  NE        -1.3620   12.4210   17.7580 N.pl3 113  ARG113     -0.0865
    150  CZ        -0.5460   13.4680   17.8490 C.cat 113  ARG113      0.5346
    151  NH1        0.6520   13.3780   18.4160 N.pl3 113  ARG113      0.1354
    152  NH2       -0.9590   14.6200   17.3640 N.pl3 113  ARG113      0.1354
@<TRIPOS>BOND
     1    91    90    2
     2   142   143    1
     3    90    89    1
     4   134   133    2
     5    92    89    1
     6    92    93    1
     7   133   132    1
     8   143   144    1
     9   143   146    1
    10    89    88    1
    11   144   145    2
    12   147   146    1
    13   147   148    1
    14    93    95   ar
    15    93    94   ar
    16   152   150    1
    17   132   131    1
    18   132   135    1
    19    95    97   ar
    20    94    96   ar
    21   149   150    2
    22   149   148    1
    23    86    85    2
    24   150   151    1
    25   135   136    1
    26    87    84    1
    27   126   125    2
    28    97    96   ar
    29    85    84    1
    30    84    83    1
    31   125   124    1
    32   136   137    1
    33   141   139    1
    34   138   139    2
    35   138   137    1
    36   139   140    1
    37    83    81   am
    38   127   124    1
    39   127   128    1
    40   127   129    1
    41   130   128    1
    42   124   123    1
    43    15    13   am
    44    82    81    2
    45    81    80    1
    46     6     5    1
    47     6     7    1
    48     5     2    1
    49    14    13    2
    50    13    12    1
    51    58    56   ar
    52    70    69    1
    53     7     1    1
    54    80    79    1
    55    12     9    1
    56     2     3    1
    57     2     1    1
    58    56    57   ar
    59    56    55    1
    60   106   107   ar
    61   106   104   ar
    62   121   120    1
    63   107   105   ar
    64    69    67   ar
    65    69    68   ar
    66     4     3    2
    67     3     8   am
    68    67    65   ar
    69     8     9    1
    70    50    48    1
    71    55    52    1
    72   104   103   ar
    73     9    10    1
    74   105   103   ar
    75   120   122    1
    76   120   117    1
    77    48    49    1
    78    48    47    2
    79   103   102    1
    80    68    66   ar
    81    47    46    1
    82    65    64   ar
    83   118   119    2
    84   118   117    1
    85    52    51    1
    86    52    53    1
    87    46    45    1
    88   102    99    1
    89    51    42   am
    90   117   116    1
    91    45    44    1
    92    44    41    1
    93    10    11    2
    94    10    16   am
    95    66    64   ar
    96    77    76    2
    97    64    63    1
    98    29    28    1
    99    29    30    1
   100    31    30    1
   101    54    53    2
   102    73    74    2
   103    73    72    1
   104    16    17    1
   105    42    41    1
   106    42    43    2
   107   116   110   am
   108    23    21    1
   109    41    40    1
   110    28    25    1
   111    99    98    1
   112    99   100    1
   113    59    60    1
   114    76    78   am
   115    76    75    1
   116    63    60    1
   117    72    75    1
   118    72    71    1
   119   100   108   am
   120   100   101    2
   121    17    20    1
   122    17    18    1
   123   110   111    2
   124   110   109    1
   125   108   109    1
   126    60    61    1
   127    21    20    1
   128    21    22    1
   129    25    24    1
   130    25    26    1
   131   109   112    1
   132   112   113    1
   133    27    26    2
   134    18    19    2
   135    26    32   am
   136   114   113    1
   137   113   115    1
   138    61    62    2
   139    32    33    1
   140    38    37    1
   141    33    36    1
   142    33    34    1
   143    36    37    1
   144    34    35    2
   145    37    39    1
