@<TRIPOS>MOLECULE
tmp/2xdkA00.pdb
 112 102 0 0 0
SMALL
GASTEIGER

@<TRIPOS>ATOM
      1  N         -0.3800    1.3310   14.2650 N.3    38  LEU38      -0.1245
      2  CA         0.9770    0.8270   14.5440 C.3    38  LEU38       0.1561
      3  C          1.0570   -0.6960   14.3960 C.2    38  LEU38       0.2260
      4  O          2.0290   -1.2240   13.8950 O.2    38  LEU38      -0.2867
      5  CB         1.4060    1.2330   15.9730 C.3    38  LEU38       0.0270
      6  CG         1.3650    2.7460   16.1710 C.3    38  LEU38       0.0019
      7  CD1        1.8940    3.0500   17.5770 C.3    38  LEU38       0.0001
      8  CD2        2.2330    3.4040   15.0640 C.3    38  LEU38       0.0001
      9  N          1.1580   -1.7100   10.7250 N.3    41  ASN41      -0.1225
     10  CA         2.5120   -1.5470   10.1580 C.3    41  ASN41       0.1785
     11  C          3.4050   -2.7290   10.5520 C.2    41  ASN41       0.2597
     12  O          4.2010   -3.2350    9.7450 O.2    41  ASN41      -0.2718
     13  CB         3.1460   -0.2360   10.6130 C.3    41  ASN41       0.1169
     14  CG         2.5680    0.9770    9.8920 C.2    41  ASN41       0.2627
     15  OD1        1.7500    0.8460    8.9800 O.2    41  ASN41      -0.2716
     16  ND2        2.9660    2.1590   10.3260 N.am   41  ASN41      -0.0877
     17  N          3.3140   -3.1460   11.8080 N.am   42  SER42      -0.1952
     18  CA         4.1130   -4.2920   12.2740 C.3    42  SER42       0.1924
     19  C          3.6640   -5.5430   11.4680 C.2    42  SER42       0.2314
     20  O          4.4750   -6.3130   10.9670 O.2    42  SER42      -0.2863
     21  CB         3.8450   -4.5530   13.7630 C.3    42  SER42       0.2116
     22  OG         4.2730   -3.5020   14.6220 O.3    42  SER42      -0.2180
     23  N          5.1230   -5.4630    8.0700 N.3    45  ALA45      -0.1245
     24  CA         6.5680   -5.7090    8.1500 C.3    45  ALA45       0.1562
     25  C          6.8880   -7.1960    8.4020 C.2    45  ALA45       0.2260
     26  O          7.9110   -7.7120    7.9550 O.2    45  ALA45      -0.2867
     27  CB         7.1860   -4.8140    9.2540 C.3    45  ALA45       0.0290
     28  N          6.4380   -9.0390    5.1200 N.3    48  LYS48      -0.1245
     29  CA         7.5950   -8.8520    4.2580 C.3    48  LYS48       0.1561
     30  C          8.7390   -9.7920    4.5550 C.2    48  LYS48       0.2260
     31  O          9.2800  -10.4250    3.6240 O.2    48  LYS48      -0.2867
     32  CB         8.0630   -7.3960    4.2060 C.3    48  LYS48       0.0271
     33  CG         7.0100   -6.4840    3.5600 C.3    48  LYS48       0.0035
     34  CD         7.4320   -5.0130    3.5290 C.3    48  LYS48       0.0206
     35  CE         6.2750   -4.1060    3.0120 C.3    48  LYS48       0.1093
     36  NZ         6.5430   -2.6480    3.2270 N.3    48  LYS48      -0.1314
     37  N          7.9620   -5.1850   17.1530 N.3    83  ASP83      -0.1239
     38  CA         7.8240   -6.3130   16.2320 C.3    83  ASP83       0.1674
     39  C          9.1620   -6.9230   15.8070 C.2    83  ASP83       0.2266
     40  O         10.2250   -6.3140   15.9750 O.2    83  ASP83      -0.2867
     41  CB         6.9260   -5.9980   14.9930 C.3    83  ASP83       0.1410
     42  CG         7.5550   -4.9740   14.0170 C.2    83  ASP83       0.3668
     43  OD1        8.6140   -5.2420   13.3870 O.co2  83  ASP83      -0.2456
     44  OD2        6.9930   -3.8680   13.9020 O.co2  83  ASP83      -0.2456
     45  N         10.3170   -6.9390    9.1390 N.3    86  ILE86      -0.1231
     46  CA        11.4240   -6.6670    8.2030 C.3    86  ILE86       0.1692
     47  C         12.3600   -5.5390    8.6400 C.2    86  ILE86       0.2593
     48  O         13.5390   -5.5210    8.2550 O.2    86  ILE86      -0.2718
     49  CB        10.8750   -6.4120    6.7650 C.3    86  ILE86       0.0266
     50  CG1       11.9740   -6.6100    5.7010 C.3    86  ILE86       0.0019
     51  CG2       10.2950   -4.9910    6.6760 C.3    86  ILE86       0.0020
     52  CD1       12.5140   -8.0120    5.6400 C.3    86  ILE86       0.0001
     53  N         11.8560   -4.6110    9.4600 N.am   87  GLY87      -0.1942
     54  CA        12.6760   -3.4830    9.8860 C.3    87  GLY87       0.2014
     55  C         12.8670   -2.4830    8.7430 C.2    87  GLY87       0.2638
     56  O         12.3150   -2.6500    7.6540 O.2    87  GLY87      -0.2714
     57  N         13.6280   -1.4240    8.9980 N.am   88  MET88      -0.1976
     58  CA        13.7990   -0.3690    8.0070 C.3    88  MET88       0.1605
     59  C         15.2300   -0.0120    7.8130 C.2    88  MET88       0.2287
     60  O         15.9600    0.2170    8.8010 O.2    88  MET88      -0.2864
     61  CB        13.0810    0.9290    8.4790 C.3    88  MET88       0.0413
     62  CG        11.5740    0.8400    8.3210 C.3    88  MET88       0.0598
     63  SD        10.7360    2.3880    8.8090 S.3    88  MET88      -0.1393
     64  CE        10.5970    2.0310   10.5240 C.3    88  MET88       0.0692
     65  N         10.0300    6.7400    4.4290 N.3    96  ASN96      -0.1225
     66  CA         8.7590    6.4060    5.0710 C.3    96  ASN96       0.1785
     67  C          8.4110    7.3080    6.2500 C.2    96  ASN96       0.2597
     68  O          7.2430    7.4490    6.6140 O.2    96  ASN96      -0.2718
     69  CB         8.7760    4.9790    5.6620 C.3    96  ASN96       0.1169
     70  CG         8.9110    3.8680    4.6100 C.2    96  ASN96       0.2627
     71  OD1        8.7600    4.0900    3.4090 O.2    96  ASN96      -0.2716
     72  ND2        9.1860    2.6450    5.0900 N.am   96  ASN96      -0.0877
     73  N          9.4180    7.8390    6.9200 N.am   97  LEU97      -0.1980
     74  CA         9.1580    8.6480    8.1050 C.3    97  LEU97       0.1596
     75  C          9.4420   10.1410    8.0140 C.2    97  LEU97       0.2287
     76  O          9.9740   10.7360    8.9650 O.2    97  LEU97      -0.2864
     77  CB         9.8070    8.0420    9.3520 C.3    97  LEU97       0.0297
     78  CG         9.2190    6.7150    9.8510 C.3    97  LEU97       0.0022
     79  CD1       10.0730    6.1750   10.9960 C.3    97  LEU97       0.0001
     80  CD2        7.7690    6.9020   10.3110 C.3    97  LEU97       0.0001
     81  N          0.9060    6.0370   10.5260 N.3   128  PHE128     -0.1241
     82  CA         1.9160    6.1670   11.5410 C.3   128  PHE128      0.1605
     83  C          1.7590    7.4740   12.3240 C.2   128  PHE128      0.2264
     84  O          1.8880    7.4890   13.5430 O.2   128  PHE128     -0.2867
     85  CB         3.3170    6.1160   10.9150 C.3   128  PHE128      0.0534
     86  CG         4.3980    6.5140   11.8650 C.ar  128  PHE128     -0.0203
     87  CD1        4.9470    5.5860   12.7340 C.ar  128  PHE128     -0.0042
     88  CD2        4.8180    7.8340   11.9320 C.ar  128  PHE128     -0.0042
     89  CE1        5.9240    5.9680   13.6480 C.ar  128  PHE128     -0.0003
     90  CE2        5.7900    8.2340   12.8600 C.ar  128  PHE128     -0.0003
     91  CZ         6.3210    7.3110   13.7150 C.ar  128  PHE128     -0.0000
     92  N         11.4280    5.7570   17.3060 N.3   140  VAL140     -0.1245
     93  CA        11.3770    4.5100   16.5240 C.3   140  VAL140      0.1561
     94  C         12.7750    3.9130   16.4490 C.2   140  VAL140      0.2260
     95  O         13.6920    4.5440   15.9060 O.2   140  VAL140     -0.2867
     96  CB        10.8090    4.7590   15.1170 C.3   140  VAL140      0.0252
     97  CG1       10.8430    3.4730   14.2770 C.3   140  VAL140      0.0019
     98  CG2        9.3810    5.2970   15.2320 C.3   140  VAL140      0.0019
     99  N         11.1090   -3.6190   14.4290 N.3   174  THR174     -0.1218
    100  CA        10.8980   -2.2050   14.7090 C.3   174  THR174      0.1862
    101  C         10.2460   -2.0650   16.0720 C.2   174  THR174      0.2287
    102  O          9.3900   -2.8680   16.4500 O.2   174  THR174     -0.2866
    103  CB        10.0350   -1.5800   13.5850 C.3   174  THR174      0.1770
    104  OG1       10.7640   -1.6530   12.3610 O.3   174  THR174     -0.2211
    105  CG2        9.6710   -0.0970   13.8910 C.3   174  THR174      0.0375
    106  N          8.4250    0.9090   18.4110 N.3   176  VAL176     -0.1245
    107  CA         7.8980    2.2570   18.4610 C.3   176  VAL176      0.1561
    108  C          7.6000    2.5800   19.9200 C.2   176  VAL176      0.2260
    109  O          6.7100    1.9530   20.5000 O.2   176  VAL176     -0.2867
    110  CB         6.6040    2.4050   17.6090 C.3   176  VAL176      0.0252
    111  CG1        6.0820    3.8580   17.7010 C.3   176  VAL176      0.0019
    112  CG2        6.8660    2.0320   16.1310 C.3   176  VAL176      0.0019
@<TRIPOS>BOND
     1    35    36    1
     2    35    34    1
     3    71    70    2
     4    34    33    1
     5    33    32    1
     6    31    30    2
     7    32    29    1
     8    29    30    1
     9    29    28    1
    10    65    66    1
    11    70    72   am
    12    70    69    1
    13    66    69    1
    14    66    67    1
    15    52    50    1
    16    50    49    1
    17    67    68    2
    18    67    73   am
    19    51    49    1
    20    49    46    1
    21    73    74    1
    22    56    55    2
    23    59    58    1
    24    59    60    2
    25    26    25    2
    26    58    61    1
    27    58    57    1
    28    75    74    1
    29    75    76    2
    30    23    24    1
    31    74    77    1
    32    24    25    1
    33    24    27    1
    34    46    47    1
    35    46    45    1
    36    48    47    2
    37    62    61    1
    38    62    63    1
    39    47    53   am
    40    55    57   am
    41    55    54    1
    42    63    64    1
    43    15    14    2
    44    77    78    1
    45    53    54    1
    46    12    11    2
    47    78    80    1
    48    78    79    1
    49    14    16   am
    50    14    13    1
    51    10    11    1
    52    10    13    1
    53    10     9    1
    54    81    82    1
    55    11    17   am
    56    85    82    1
    57    85    86    1
    58    20    19    2
    59    19    18    1
    60    82    83    1
    61    17    18    1
    62    86    88   ar
    63    86    87   ar
    64    88    90   ar
    65    18    21    1
    66    83    84    2
    67   104   103    1
    68    87    89   ar
    69    90    91   ar
    70    43    42   ar
    71   103   105    1
    72   103   100    1
    73    89    91   ar
    74    21    22    1
    75     4     3    2
    76    44    42   ar
    77    42    41    1
    78     1     2    1
    79    97    96    1
    80     3     2    1
    81    99   100    1
    82     2     5    1
    83   100   101    1
    84    41    38    1
    85     8     6    1
    86    96    98    1
    87    96    93    1
    88    39    40    2
    89    39    38    1
    90    95    94    2
    91     5     6    1
    92   101   102    2
    93   112   110    1
    94     6     7    1
    95    38    37    1
    96    94    93    1
    97    93    92    1
    98   110   111    1
    99   110   107    1
   100   106   107    1
   101   107   108    1
   102   108   109    2
