@<TRIPOS>MOLECULE
tmp/2xdlA00.pdb
 131 120 0 0 0
SMALL
GASTEIGER

@<TRIPOS>ATOM
      1  N         64.7570   33.3090   34.4240 N.3    32  LEU32      -0.1245
      2  CA        64.1700   32.8330   33.1600 C.3    32  LEU32       0.1561
      3  C         62.8660   33.5820   32.8570 C.2    32  LEU32       0.2260
      4  O         62.6400   33.9560   31.7200 O.2    32  LEU32      -0.2867
      5  CB        63.9250   31.3100   33.1730 C.3    32  LEU32       0.0270
      6  CG        65.1670   30.4450   33.3990 C.3    32  LEU32       0.0019
      7  CD1       64.7250   28.9680   33.4710 C.3    32  LEU32       0.0001
      8  CD2       66.1060   30.7390   32.1910 C.3    32  LEU32       0.0001
      9  N         63.7410   36.9340   31.5230 N.3    35  ASN35      -0.1225
     10  CA        64.1880   36.9480   30.1330 C.3    35  ASN35       0.1785
     11  C         62.9330   36.8470   29.2560 C.2    35  ASN35       0.2597
     12  O         62.8510   37.4820   28.2040 O.2    35  ASN35      -0.2718
     13  CB        65.0760   35.7170   29.8160 C.3    35  ASN35       0.1169
     14  CG        66.4290   35.7980   30.4630 C.2    35  ASN35       0.2627
     15  OD1       66.8080   36.8440   30.9840 O.2    35  ASN35      -0.2716
     16  ND2       67.1970   34.7170   30.3720 N.am   35  ASN35      -0.0877
     17  N         62.0040   35.9690   29.6360 N.am   36  SER36      -0.1952
     18  CA        60.7770   35.8410   28.8390 C.3    36  SER36       0.1924
     19  C         60.0500   37.1920   28.7860 C.2    36  SER36       0.2314
     20  O         59.5760   37.6070   27.7260 O.2    36  SER36      -0.2863
     21  CB        59.8130   34.8080   29.4600 C.3    36  SER36       0.2116
     22  OG        60.3040   33.4960   29.3270 O.3    36  SER36      -0.2180
     23  N         61.2930   40.1680   28.9560 N.3    38  ASP38      -0.1225
     24  CA        62.0500   41.0430   28.0640 C.3    38  ASP38       0.1805
     25  C         61.7820   40.7100   26.5960 C.2    38  ASP38       0.2597
     26  O         61.6470   41.6190   25.7760 O.2    38  ASP38      -0.2718
     27  CB        63.5480   40.9110   28.3530 C.3    38  ASP38       0.1424
     28  CG        63.9340   41.5150   29.7060 C.2    38  ASP38       0.3668
     29  OD1       63.0640   42.1640   30.3490 O.co2  38  ASP38      -0.2456
     30  OD2       65.1020   41.3380   30.1100 O.co2  38  ASP38      -0.2456
     31  N         61.6930   39.4130   26.2670 N.am   39  ALA39      -0.1979
     32  CA        61.3900   39.0010   24.8750 C.3    39  ALA39       0.1597
     33  C         59.9700   39.4000   24.4390 C.2    39  ALA39       0.2287
     34  O         59.7160   39.7030   23.2820 O.2    39  ALA39      -0.2864
     35  CB        61.6000   37.5020   24.7040 C.3    39  ALA39       0.0319
     36  N         59.8390   43.0720   23.7190 N.3    42  LYS42      -0.1245
     37  CA        60.3530   43.2860   22.3860 C.3    42  LYS42       0.1561
     38  C         59.3450   43.0770   21.2560 C.2    42  LYS42       0.2260
     39  O         59.2460   43.9100   20.3650 O.2    42  LYS42      -0.2867
     40  CB        61.6140   42.4460   22.1660 C.3    42  LYS42       0.0271
     41  CG        62.7980   42.9860   22.9390 C.3    42  LYS42       0.0035
     42  CD        64.0410   42.1540   22.6540 C.3    42  LYS42       0.0206
     43  CE        65.2760   42.7450   23.3380 C.3    42  LYS42       0.1093
     44  NZ        66.4810   41.8790   23.1020 N.3    42  LYS42      -0.1314
     45  N         57.4330   31.0210   26.4640 N.3    77  ASP77      -0.1239
     46  CA        56.8900   32.3580   26.2530 C.3    77  ASP77       0.1674
     47  C         56.5520   32.5230   24.7800 C.2    77  ASP77       0.2266
     48  O         57.0380   31.7710   23.9270 O.2    77  ASP77      -0.2867
     49  CB        57.8940   33.4390   26.7140 C.3    77  ASP77       0.1410
     50  CG        59.1790   33.4410   25.8990 C.2    77  ASP77       0.3668
     51  OD1       59.1290   33.8240   24.7110 O.co2  77  ASP77      -0.2456
     52  OD2       60.2610   33.1900   26.4940 O.co2  77  ASP77      -0.2456
     53  N         59.6060   37.5720   21.3270 N.3    80  ILE80      -0.1231
     54  CA        60.1840   37.7710   19.9840 C.3    80  ILE80       0.1692
     55  C         60.9170   36.5370   19.4220 C.2    80  ILE80       0.2593
     56  O         61.0300   36.3800   18.2030 O.2    80  ILE80      -0.2718
     57  CB        61.0830   39.0530   19.9530 C.3    80  ILE80       0.0266
     58  CG1       61.2400   39.5970   18.5190 C.3    80  ILE80       0.0019
     59  CG2       62.3990   38.8030   20.6770 C.3    80  ILE80       0.0020
     60  CD1       61.6260   41.0470   18.4580 C.3    80  ILE80       0.0001
     61  N         61.3660   35.6360   20.2950 N.am   81  GLY81      -0.1942
     62  CA        62.1100   34.4620   19.8470 C.3    81  GLY81       0.2014
     63  C         63.5390   34.8150   19.4090 C.2    81  GLY81       0.2638
     64  O         63.9260   35.9870   19.4020 O.2    81  GLY81      -0.2714
     65  N         64.3140   33.8120   19.0020 N.am   82  MET82      -0.1976
     66  CA        65.7000   34.0440   18.6050 C.3    82  MET82       0.1605
     67  C         66.0250   33.4180   17.2440 C.2    82  MET82       0.2287
     68  O         65.4690   32.3790   16.8940 O.2    82  MET82      -0.2864
     69  CB        66.6660   33.4660   19.6610 C.3    82  MET82       0.0413
     70  CG        66.7220   34.2580   20.9760 C.3    82  MET82       0.0598
     71  SD        67.7110   33.4060   22.2280 S.3    82  MET82      -0.1393
     72  CE        66.6180   32.0470   22.7070 C.3    82  MET82       0.0692
     73  N         71.3610   34.5600   17.0290 N.3    86  ASP86      -0.1239
     74  CA        71.1730   34.9280   18.4330 C.3    86  ASP86       0.1674
     75  C         71.5520   33.7320   19.2960 C.2    86  ASP86       0.2266
     76  O         72.1860   33.8720   20.3510 O.2    86  ASP86      -0.2867
     77  CB        69.6900   35.2520   18.7470 C.3    86  ASP86       0.1410
     78  CG        69.2210   36.5720   18.1720 C.2    86  ASP86       0.3668
     79  OD1       70.0040   37.5470   18.1030 O.co2  86  ASP86      -0.2456
     80  OD2       68.0090   36.6500   17.8360 O.co2  86  ASP86      -0.2456
     81  N         72.7400   33.0360   23.2340 N.3    91  LEU91      -0.1231
     82  CA        71.3010   33.2940   23.3890 C.3    91  LEU91       0.1693
     83  C         70.8820   34.7640   23.5260 C.2    91  LEU91       0.2593
     84  O         70.1010   35.1530   24.4130 O.2    91  LEU91      -0.2718
     85  CB        70.6960   32.4140   24.4860 C.3    91  LEU91       0.0284
     86  CG        71.1540   30.9560   24.3280 C.3    91  LEU91       0.0019
     87  CD1       72.3730   30.6830   25.1970 C.3    91  LEU91       0.0001
     88  CD2       70.0480   29.9430   24.6040 C.3    91  LEU91       0.0001
     89  N         71.4140   35.5770   22.6250 N.am   92  GLY92      -0.1942
     90  CA        71.0640   36.9710   22.5460 C.3    92  GLY92       0.2014
     91  C         71.6230   37.8320   23.6570 C.2    92  GLY92       0.2639
     92  O         71.1530   38.9400   23.8470 O.2    92  GLY92      -0.2714
     93  N         72.6200   37.3360   24.3890 N.am   93  THR93      -0.1950
     94  CA        73.1970   38.1230   25.4800 C.3    93  THR93       0.1897
     95  C         74.5560   38.6690   25.0620 C.2    93  THR93       0.2313
     96  O         75.1380   38.1930   24.0870 O.2    93  THR93      -0.2863
     97  CB        73.3680   37.2750   26.7690 C.3    93  THR93       0.1794
     98  OG1       74.3610   36.2420   26.5520 O.3    93  THR93      -0.2208
     99  CG2       72.0290   36.6470   27.2050 C.3    93  THR93       0.0378
    100  N         70.2090   33.7350   32.1660 N.3   122  PHE122     -0.1241
    101  CA        69.8670   32.4380   31.5560 C.3   122  PHE122      0.1605
    102  C         70.6900   31.2890   32.1510 C.2   122  PHE122      0.2264
    103  O         70.1680   30.2340   32.4490 O.2   122  PHE122     -0.2867
    104  CB        70.0780   32.4390   30.0300 C.3   122  PHE122      0.0534
    105  CG        70.1140   31.0430   29.4240 C.ar  122  PHE122     -0.0203
    106  CD1       68.9220   30.3330   29.1990 C.ar  122  PHE122     -0.0042
    107  CD2       71.3430   30.4220   29.1120 C.ar  122  PHE122     -0.0042
    108  CE1       68.9520   29.0050   28.6630 C.ar  122  PHE122     -0.0003
    109  CE2       71.3870   29.1240   28.5770 C.ar  122  PHE122     -0.0003
    110  CZ        70.1880   28.4070   28.3590 C.ar  122  PHE122     -0.0000
    111  N         66.7480   24.5210   24.5570 N.3   134  VAL134     -0.1245
    112  CA        66.0370   25.7610   24.2290 C.3   134  VAL134      0.1561
    113  C         65.4990   25.6290   22.8270 C.2   134  VAL134      0.2260
    114  O         66.2870   25.5720   21.8830 O.2   134  VAL134     -0.2867
    115  CB        66.9630   27.0420   24.3110 C.3   134  VAL134      0.0252
    116  CG1       66.1360   28.3140   23.9490 C.3   134  VAL134      0.0019
    117  CG2       67.5700   27.1910   25.6990 C.3   134  VAL134      0.0019
    118  N         60.1050   31.4480   22.7080 N.3   168  THR168     -0.1218
    119  CA        61.2050   30.6830   23.2540 C.3   168  THR168      0.1862
    120  C         60.6930   29.7500   24.3220 C.2   168  THR168      0.2287
    121  O         59.7910   30.1060   25.1140 O.2   168  THR168     -0.2866
    122  CB        62.3520   31.6200   23.7750 C.3   168  THR168      0.1770
    123  OG1       62.9110   32.3200   22.6660 O.3   168  THR168     -0.2211
    124  CG2       63.4750   30.8290   24.5180 C.3   168  THR168      0.0375
    125  N         62.1840   27.0620   27.1640 N.3   170  VAL170     -0.1245
    126  CA        63.3340   26.5610   27.9070 C.3   170  VAL170      0.1561
    127  C         62.9240   25.2990   28.6450 C.2   170  VAL170      0.2260
    128  O         62.0490   25.3140   29.5470 O.2   170  VAL170     -0.2867
    129  CB        63.9300   27.6210   28.8610 C.3   170  VAL170      0.0252
    130  CG1       65.1110   27.0120   29.6420 C.3   170  VAL170      0.0019
    131  CG2       64.3560   28.8630   28.0740 C.3   170  VAL170      0.0019
@<TRIPOS>BOND
     1    68    67    2
     2    73    74    1
     3    67    66    1
     4    80    78   ar
     5    79    78   ar
     6    78    77    1
     7    56    55    2
     8    74    77    1
     9    74    75    1
    10    60    58    1
    11    58    57    1
    12    66    65    1
    13    66    69    1
    14    65    63   am
    15    75    76    2
    16    64    63    2
    17    63    62    1
    18    55    54    1
    19    55    61   am
    20    69    70    1
    21    62    61    1
    22    57    54    1
    23    57    59    1
    24    54    53    1
    25    39    38    2
    26    70    71    1
    27    38    37    1
    28   114   113    2
    29    40    37    1
    30    40    41    1
    31    71    72    1
    32    37    36    1
    33    90    89    1
    34    90    91    1
    35    89    83   am
    36    42    41    1
    37    42    43    1
    38   123   122    1
    39   118   119    1
    40   113   112    1
    41    44    43    1
    42    81    82    1
    43   119   122    1
    44   119   120    1
    45    34    33    2
    46    82    83    1
    47    82    85    1
    48    83    84    2
    49    91    92    2
    50    91    93   am
    51   122   124    1
    52    48    47    2
    53   116   115    1
    54    96    95    2
    55   112   115    1
    56   112   111    1
    57   115   117    1
    58   120   121    2
    59    86    85    1
    60    86    88    1
    61    86    87    1
    62    93    94    1
    63    33    32    1
    64    35    32    1
    65    51    50   ar
    66    47    46    1
    67    32    31    1
    68    95    94    1
    69    94    97    1
    70    26    25    2
    71    50    52   ar
    72    50    49    1
    73    46    45    1
    74    46    49    1
    75    31    25   am
    76    98    97    1
    77    25    24    1
    78    97    99    1
    79   125   126    1
    80    20    19    2
    81   126   127    1
    82   126   129    1
    83    24    27    1
    84    24    23    1
    85   131   129    1
    86    12    11    2
    87    27    28    1
    88   110   109   ar
    89   110   108   ar
    90   109   107   ar
    91   127   128    2
    92   108   106   ar
    93    19    18    1
    94    18    21    1
    95    18    17    1
    96   129   130    1
    97   107   105   ar
    98   106   105   ar
    99    11    17   am
   100    11    10    1
   101    22    21    1
   102   105   104    1
   103    28    30   ar
   104    28    29   ar
   105    13    10    1
   106    13    14    1
   107   104   101    1
   108    10     9    1
   109    16    14   am
   110    14    15    2
   111   101   102    1
   112   101   100    1
   113     4     3    2
   114   102   103    2
   115     8     6    1
   116     3     2    1
   117     2     5    1
   118     2     1    1
   119     5     6    1
   120     6     7    1
