@<TRIPOS>MOLECULE
tmp/2xdmC00.pdb
 118 111 0 0 0
SMALL
GASTEIGER

@<TRIPOS>ATOM
      1  N         11.1930   70.1410  -19.6340 N.3    48  ALA48      -0.1231
      2  CA        12.3460   69.4590  -19.0340 C.3    48  ALA48       0.1694
      3  C         12.4830   69.9020  -17.5730 C.2    48  ALA48       0.2592
      4  O         11.4860   69.9720  -16.8700 O.2    48  ALA48      -0.2718
      5  CB        13.6330   69.7100  -19.8500 C.3    48  ALA48       0.0304
      6  N         13.6800   70.2370  -17.1090 N.am   49  SER49      -0.1952
      7  CA        13.8330   70.6900  -15.7120 C.3    49  SER49       0.1924
      8  C         13.2520   72.0650  -15.3530 C.2    49  SER49       0.2314
      9  O         13.2830   72.4810  -14.1960 O.2    49  SER49      -0.2863
     10  CB        15.2860   70.6390  -15.3000 C.3    49  SER49       0.2116
     11  OG        15.6730   69.3080  -15.1040 O.3    49  SER49      -0.2180
     12  N         10.8510   71.9520  -12.4800 N.3    52  LYS52      -0.1245
     13  CA        11.2550   72.0890  -11.0850 C.3    52  LYS52       0.1561
     14  C         10.8660   73.4590  -10.5370 C.2    52  LYS52       0.2260
     15  O         10.6610   73.6120   -9.3310 O.2    52  LYS52      -0.2867
     16  CB        12.7470   71.8200  -10.9030 C.3    52  LYS52       0.0271
     17  CG        13.1400   70.3710  -11.1550 C.3    52  LYS52       0.0035
     18  CD        14.6120   70.1750  -10.8540 C.3    52  LYS52       0.0206
     19  CE        15.0680   68.7770  -11.1650 C.3    52  LYS52       0.1093
     20  NZ        15.0850   68.5480  -12.6310 N.3    52  LYS52      -0.1314
     21  N         12.1090   56.5040  -19.3710 N.3   139  TRP139     -0.1241
     22  CA        12.7360   55.4720  -20.2090 C.3   139  TRP139      0.1605
     23  C         13.5610   54.4410  -19.4380 C.2   139  TRP139      0.2264
     24  O         14.4910   54.7920  -18.7270 O.2   139  TRP139     -0.2867
     25  CB        13.6050   56.1000  -21.3070 C.3   139  TRP139      0.0550
     26  CG        12.8850   57.0080  -22.2550 C.ar  139  TRP139      0.0003
     27  CD1       11.5400   57.2740  -22.2890 C.ar  139  TRP139      0.0946
     28  CD2       13.4670   57.7630  -23.3250 C.ar  139  TRP139      0.0152
     29  NE1       11.2520   58.1570  -23.3080 N.ar  139  TRP139     -0.2442
     30  CE2       12.4160   58.4780  -23.9580 C.ar  139  TRP139      0.0810
     31  CE3       14.7750   57.9190  -23.8030 C.ar  139  TRP139      0.0012
     32  CZ2       12.6320   59.3220  -25.0570 C.ar  139  TRP139      0.0191
     33  CZ3       14.9900   58.7690  -24.9020 C.ar  139  TRP139      0.0001
     34  CH2       13.9200   59.4550  -25.5120 C.ar  139  TRP139      0.0015
     35  N         17.2820   54.7870  -19.3240 N.3   142  ASP142     -0.1239
     36  CA        17.8560   55.8610  -18.4900 C.3   142  ASP142      0.1674
     37  C         18.1390   55.4210  -17.0530 C.2   142  ASP142      0.2266
     38  O         18.7830   56.1630  -16.2880 O.2   142  ASP142     -0.2867
     39  CB        16.9030   57.0570  -18.4050 C.3   142  ASP142      0.1410
     40  CG        16.7960   57.8400  -19.6990 C.2   142  ASP142      0.3668
     41  OD1       17.6910   57.7450  -20.5720 O.co2 142  ASP142     -0.2456
     42  OD2       15.7980   58.5800  -19.8170 O.co2 142  ASP142     -0.2456
     43  N         20.2880   60.5860  -12.6420 N.3   147  TYR147     -0.1241
     44  CA        19.0850   61.4040  -12.8690 C.3   147  TYR147      0.1605
     45  C         17.7880   60.5490  -12.9110 C.2   147  TYR147      0.2264
     46  O         16.6800   61.0700  -12.7620 O.2   147  TYR147     -0.2867
     47  CB        19.2330   62.2960  -14.1250 C.3   147  TYR147      0.0534
     48  CG        19.3060   61.5560  -15.4550 C.ar  147  TYR147     -0.0201
     49  CD1       18.1630   61.0230  -16.0470 C.ar  147  TYR147     -0.0009
     50  CD2       20.5170   61.3910  -16.1180 C.ar  147  TYR147     -0.0009
     51  CE1       18.2280   60.3310  -17.2440 C.ar  147  TYR147      0.0417
     52  CE2       20.5910   60.7090  -17.3260 C.ar  147  TYR147      0.0417
     53  CZ        19.4410   60.1850  -17.8830 C.ar  147  TYR147      0.1957
     54  OH        19.5030   59.5140  -19.0920 O.3   147  TYR147     -0.2866
     55  N         19.9760   70.8100  -10.5250 N.3   298  SER298     -0.1217
     56  CA        18.8090   70.1680  -11.1270 C.3   298  SER298      0.1889
     57  C         18.6300   68.6930  -10.6690 C.2   298  SER298      0.2288
     58  O         18.6480   67.7730  -11.4860 O.2   298  SER298     -0.2866
     59  CB        18.9050   70.2920  -12.6500 C.3   298  SER298      0.2089
     60  OG        17.6380   70.2740  -13.2600 O.3   298  SER298     -0.2183
     61  N         16.7790   65.5480   -9.8590 N.3   300  ASN300     -0.1240
     62  CA        15.5030   64.9050  -10.1880 C.3   300  ASN300      0.1653
     63  C         14.8980   64.1530   -9.0100 C.2   300  ASN300      0.2266
     64  O         13.7140   64.3160   -8.7110 O.2   300  ASN300     -0.2867
     65  CB        15.6500   63.9860  -11.4140 C.3   300  ASN300      0.1155
     66  CG        15.8340   64.7700  -12.7180 C.2   300  ASN300      0.2627
     67  OD1       15.7520   66.0120  -12.7390 O.2   300  ASN300     -0.2716
     68  ND2       16.0670   64.0440  -13.8110 N.am  300  ASN300     -0.0877
     69  N         10.1500   66.4980  -11.5180 N.3   347  SER347     -0.1202
     70  CA        11.5040   66.7850  -11.9800 C.3   347  SER347      0.2020
     71  C         11.5940   67.3660  -13.3770 C.2   347  SER347      0.2619
     72  O         12.5090   68.1280  -13.6690 O.2   347  SER347     -0.2717
     73  CB        12.3700   65.5210  -11.8910 C.3   347  SER347      0.2103
     74  OG        11.9770   64.5230  -12.8220 O.3   347  SER347     -0.2182
     75  N         10.6540   66.9990  -14.2420 N.am  348  GLY348     -0.1942
     76  CA        10.6950   67.3900  -15.6430 C.3   348  GLY348      0.2014
     77  C         11.2120   66.2850  -16.5480 C.2   348  GLY348      0.2638
     78  O         11.1140   66.3910  -17.7780 O.2   348  GLY348     -0.2714
     79  N         11.7450   65.2180  -15.9470 N.am  349  LEU349     -0.1977
     80  CA        12.2460   64.0770  -16.6970 C.3   349  LEU349      0.1596
     81  C         11.1960   63.5360  -17.6610 C.2   349  LEU349      0.2287
     82  O         11.5190   63.1190  -18.7730 O.2   349  LEU349     -0.2864
     83  CB        12.6570   62.9280  -15.7510 C.3   349  LEU349      0.0297
     84  CG        13.9040   62.0740  -16.0610 C.3   349  LEU349      0.0022
     85  CD1       13.7640   60.6250  -15.5420 C.3   349  LEU349      0.0001
     86  CD2       14.3070   62.0800  -17.5280 C.3   349  LEU349      0.0001
     87  N          8.2550   62.9730  -20.2840 N.3   351  ARG351     -0.1245
     88  CA         7.8400   63.5980  -21.5380 C.3   351  ARG351      0.1563
     89  C          6.3150   63.7320  -21.6280 C.2   351  ARG351      0.2260
     90  O          5.7690   64.2240  -22.6260 O.2   351  ARG351     -0.2867
     91  CB         8.4460   62.8720  -22.7400 C.3   351  ARG351      0.0307
     92  CG         9.9580   63.1270  -22.8950 C.3   351  ARG351      0.0489
     93  CD        10.5830   62.2590  -23.9780 C.3   351  ARG351      0.2205
     94  NE        12.0280   62.4430  -24.0250 N.pl3 351  ARG351     -0.0865
     95  CZ        12.6640   63.3420  -24.7750 C.cat 351  ARG351      0.5346
     96  NH1       13.9880   63.4110  -24.7380 N.pl3 351  ARG351      0.1354
     97  NH2       11.9880   64.1750  -25.5640 N.pl3 351  ARG351      0.1354
     98  N         17.3840   70.5580  -19.9010 N.3   413  THR413     -0.1203
     99  CA        17.7320   69.9070  -21.1580 C.3   413  THR413      0.1994
    100  C         17.4400   68.4030  -21.1450 C.2   413  THR413      0.2618
    101  O         17.7560   67.6920  -20.1810 O.2   413  THR413     -0.2717
    102  CB        19.2260   70.1700  -21.5310 C.3   413  THR413      0.1784
    103  OG1       19.4030   71.5540  -21.8670 O.3   413  THR413     -0.2211
    104  CG2       19.6880   69.3190  -22.7150 C.3   413  THR413      0.0376
    105  N         16.7990   67.9500  -22.2190 N.am  414  MET414     -0.1965
    106  CA        16.7830   66.5500  -22.6320 C.3   414  MET414      0.1736
    107  C         16.9430   66.6680  -24.1300 C.2   414  MET414      0.2617
    108  O         17.0140   67.7920  -24.6440 O.2   414  MET414     -0.2715
    109  CB        15.4520   65.8700  -22.3380 C.3   414  MET414      0.0427
    110  CG        15.0700   65.7480  -20.8820 C.3   414  MET414      0.0599
    111  SD        13.5710   64.7560  -20.7170 S.3   414  MET414     -0.1393
    112  CE        12.4420   65.6650  -21.7710 C.3   414  MET414      0.0692
    113  N         16.9890   65.5370  -24.8310 N.am  415  SER415     -0.1950
    114  CA        17.1530   65.5540  -26.2830 C.3   415  SER415      0.1924
    115  C         15.9090   66.0880  -26.9980 C.2   415  SER415      0.2314
    116  O         14.8280   65.5000  -26.9140 O.2   415  SER415     -0.2863
    117  CB        17.4940   64.1580  -26.7940 C.3   415  SER415      0.2116
    118  OG        16.4950   63.2450  -26.4010 O.3   415  SER415     -0.2180
@<TRIPOS>BOND
     1   115   116    2
     2   115   114    1
     3   117   118    1
     4   117   114    1
     5   114   113    1
     6    97    95    1
     7    34    32   ar
     8    34    33   ar
     9    32    30   ar
    10    33    31   ar
    11   113   107   am
    12    95    96    1
    13    95    94    2
    14   108   107    2
    15   107   106    1
    16    94    93    1
    17    93    92    1
    18    30    28   ar
    19    30    29   ar
    20    31    28   ar
    21    28    26   ar
    22    29    27   ar
    23    92    91    1
    24    91    88    1
    25   104   102    1
    26   106   109    1
    27   106   105    1
    28    90    89    2
    29   109   110    1
    30    27    26   ar
    31    26    25    1
    32   105   100   am
    33   103   102    1
    34   112   111    1
    35    89    88    1
    36    88    87    1
    37   102    99    1
    38    25    22    1
    39    99   100    1
    40    99    98    1
    41   100   101    2
    42   110   111    1
    43    41    40   ar
    44    22    23    1
    45    22    21    1
    46     5     2    1
    47    42    40   ar
    48    40    39    1
    49     1     2    1
    50    23    24    2
    51    35    36    1
    52    54    53    1
    53     2     3    1
    54    82    81    2
    55    36    39    1
    56    36    37    1
    57    53    52   ar
    58    53    51   ar
    59    78    77    2
    60    81    80    1
    61     3     6   am
    62     3     4    2
    63    86    84    1
    64    52    50   ar
    65    51    49   ar
    66     6     7    1
    67    37    38    2
    68    80    79    1
    69    80    83    1
    70    77    79   am
    71    77    76    1
    72    50    48   ar
    73    84    83    1
    74    84    85    1
    75    49    48   ar
    76     7     8    1
    77     7    10    1
    78    76    75    1
    79    48    47    1
    80     8     9    2
    81    10    11    1
    82    75    71   am
    83    47    44    1
    84    68    66   am
    85    72    71    2
    86    71    70    1
    87    60    59    1
    88    45    44    1
    89    45    46    2
    90    44    43    1
    91    74    73    1
    92    67    66    2
    93    66    65    1
    94    59    56    1
    95    20    19    1
    96    12    13    1
    97    70    73    1
    98    70    69    1
    99    58    57    2
   100    65    62    1
   101    19    18    1
   102    17    16    1
   103    17    18    1
   104    56    57    1
   105    56    55    1
   106    13    16    1
   107    13    14    1
   108    14    15    2
   109    62    61    1
   110    62    63    1
   111    63    64    2
