@<TRIPOS>MOLECULE
tmp/2xdrC00.pdb
 169 164 0 0 0
SMALL
GASTEIGER

@<TRIPOS>ATOM
      1  N         47.0940  -58.9010   12.4790 N.3   148  ILE148     -0.1231
      2  CA        47.3330  -59.9450   11.4940 C.3   148  ILE148      0.1692
      3  C         47.3350  -61.2900   12.2040 C.2   148  ILE148      0.2593
      4  O         48.1890  -61.5520   13.0490 O.2   148  ILE148     -0.2718
      5  CB        48.6470  -59.7130   10.7420 C.3   148  ILE148      0.0266
      6  CG1       48.5700  -58.4090    9.9510 C.3   148  ILE148      0.0019
      7  CG2       48.9480  -60.8670    9.8030 C.3   148  ILE148      0.0020
      8  CD1       49.8880  -57.9920    9.3770 C.3   148  ILE148      0.0001
      9  N         46.3610  -62.1340   11.8740 N.am  149  GLY149     -0.1942
     10  CA        46.1380  -63.3600   12.6180 C.3   149  GLY149      0.2014
     11  C         46.9060  -64.5630   12.1120 C.2   149  GLY149      0.2639
     12  O         47.3930  -64.5770   10.9810 O.2   149  GLY149     -0.2714
     13  N         47.0230  -65.5760   12.9620 N.am  150  ALA150     -0.1963
     14  CA        47.6380  -66.8380   12.5670 C.3   150  ALA150      0.1728
     15  C         46.5430  -67.8860   12.3800 C.2   150  ALA150      0.2616
     16  O         45.3840  -67.6500   12.7200 O.2   150  ALA150     -0.2715
     17  CB        48.6560  -67.2890   13.6120 C.3   150  ALA150      0.0334
     18  N         46.9000  -69.0480   11.8530 N.am  151  TRP151     -0.1974
     19  CA        45.8770  -70.0220   11.4970 C.3   151  TRP151      0.1640
     20  C         45.5490  -71.0880   12.5500 C.2   151  TRP151      0.2290
     21  O         44.5570  -71.8000   12.4160 O.2   151  TRP151     -0.2864
     22  CB        46.2010  -70.6750   10.1560 C.3   151  TRP151      0.0576
     23  CG        47.5710  -71.2490   10.0570 C.ar  151  TRP151      0.0006
     24  CD1       48.6050  -70.7750    9.3010 C.ar  151  TRP151      0.0946
     25  CD2       48.0590  -72.4220   10.7140 C.ar  151  TRP151      0.0152
     26  NE1       49.7110  -71.5760    9.4560 N.ar  151  TRP151     -0.2442
     27  CE2       49.4000  -72.5960   10.3170 C.ar  151  TRP151      0.0810
     28  CE3       47.4940  -73.3430   11.5980 C.ar  151  TRP151      0.0012
     29  CZ2       50.1790  -73.6540   10.7740 C.ar  151  TRP151      0.0191
     30  CZ3       48.2690  -74.3890   12.0500 C.ar  151  TRP151      0.0001
     31  CH2       49.5950  -74.5390   11.6350 C.ar  151  TRP151      0.0015
     32  N         43.3520  -58.8490    9.5640 N.3   175  LYS175     -0.1231
     33  CA        43.5990  -59.7670    8.4540 C.3   175  LYS175      0.1678
     34  C         43.8610  -61.2070    8.8950 C.2   175  LYS175      0.2434
     35  O         44.9500  -61.5240    9.3870 O.2   175  LYS175     -0.2733
     36  CB        44.7720  -59.3160    7.5870 C.3   175  LYS175      0.0284
     37  CG        45.1110  -60.3770    6.5430 C.3   175  LYS175      0.0035
     38  CD        46.4130  -60.1110    5.8380 C.3   175  LYS175      0.0206
     39  CE        47.2590  -61.3730    5.7890 C.3   175  LYS175      0.1093
     40  NZ        46.4330  -62.6070    5.7350 N.3   175  LYS175     -0.1314
     41  N         42.8730  -62.0890    8.6840 N.am  176  PRO176     -0.2718
     42  CA        42.9880  -63.5150    9.0090 C.3   176  PRO176      0.1535
     43  C         44.0480  -64.1790    8.1430 C.2   176  PRO176      0.2599
     44  O         44.3880  -63.6570    7.0770 O.2   176  PRO176     -0.2715
     45  CB        41.6110  -64.0840    8.6250 C.3   176  PRO176      0.0310
     46  CG        40.7180  -62.9080    8.4280 C.3   176  PRO176      0.0237
     47  CD        41.5970  -61.7720    8.0210 C.3   176  PRO176      0.0939
     48  N         44.5610  -65.3180    8.5960 N.am  177  SER177     -0.1936
     49  CA        45.3830  -66.1640    7.7460 C.3   177  SER177      0.2055
     50  C         44.5910  -66.5890    6.5020 C.2   177  SER177      0.2643
     51  O         43.4040  -66.9350    6.5950 O.2   177  SER177     -0.2714
     52  CB        45.8320  -67.4030    8.5190 C.3   177  SER177      0.2130
     53  OG        46.5140  -68.3070    7.6730 O.3   177  SER177     -0.2179
     54  N         45.2430  -66.5460    5.3430 N.am  178  GLU178     -0.1963
     55  CA        44.6600  -67.0770    4.1200 C.3   178  GLU178      0.1733
     56  C         44.1910  -68.4800    4.4200 C.2   178  GLU178      0.2616
     57  O         43.1750  -68.9440    3.8980 O.2   178  GLU178     -0.2715
     58  CB        45.6990  -67.1440    3.0000 C.3   178  GLU178      0.0429
     59  CG        45.5180  -66.1340    1.8820 C.3   178  GLU178      0.1163
     60  CD        46.3270  -66.4930    0.6410 C.2   178  GLU178      0.3649
     61  OE1       47.1000  -65.6380    0.1610 O.co2 178  GLU178     -0.2457
     62  OE2       46.1970  -67.6350    0.1490 O.co2 178  GLU178     -0.2457
     63  N         44.9480  -69.1580    5.2720 N.am  179  VAL179     -0.1977
     64  CA        44.6320  -70.5280    5.6130 C.3   179  VAL179      0.1596
     65  C         43.3010  -70.6470    6.3410 C.2   179  VAL179      0.2287
     66  O         42.6120  -71.6140    6.1570 O.2   179  VAL179     -0.2864
     67  CB        45.7400  -71.1780    6.4470 C.3   179  VAL179      0.0276
     68  CG1       45.3990  -72.6300    6.7200 C.3   179  VAL179      0.0022
     69  CG2       47.0720  -71.0690    5.7180 C.3   179  VAL179      0.0022
     70  N         42.9810  -62.1920    2.2350 N.3   206  GLY206     -0.1210
     71  CA        44.0200  -62.2220    1.2270 C.3   206  GLY206      0.1956
     72  C         45.3530  -62.6570    1.7970 C.2   206  GLY206      0.2613
     73  O         45.4290  -63.1840    2.9100 O.2   206  GLY206     -0.2717
     74  N         46.4090  -62.4180    1.0290 N.am  207  SER207     -0.1938
     75  CA        47.7530  -62.8660    1.3740 C.3   207  SER207      0.2055
     76  C         48.4910  -61.9120    2.3210 C.2   207  SER207      0.2644
     77  O         48.2010  -60.7140    2.3790 O.2   207  SER207     -0.2714
     78  CB        48.5660  -63.0850    0.0880 C.3   207  SER207      0.2130
     79  OG        49.9270  -62.7340    0.2580 O.3   207  SER207     -0.2179
     80  N         49.4500  -62.4550    3.0630 N.am  208  GLY208     -0.1939
     81  CA        50.3150  -61.6320    3.8830 C.3   208  GLY208      0.2014
     82  C         51.2270  -60.7840    3.0130 C.2   208  GLY208      0.2638
     83  O         51.3890  -59.5830    3.2510 O.2   208  GLY208     -0.2714
     84  N         51.8160  -61.4120    1.9970 N.am  209  ARG209     -0.1977
     85  CA        52.7240  -60.7190    1.0950 C.3   209  ARG209      0.1597
     86  C         52.0900  -59.4270    0.6090 C.2   209  ARG209      0.2287
     87  O         52.7750  -58.4290    0.3980 O.2   209  ARG209     -0.2864
     88  CB        53.0550  -61.5900   -0.1170 C.3   209  ARG209      0.0334
     89  CG        53.2670  -63.0590    0.1870 C.3   209  ARG209      0.0492
     90  CD        53.3450  -63.8630   -1.1040 C.3   209  ARG209      0.2205
     91  NE        52.3730  -63.3910   -2.0890 N.pl3 209  ARG209     -0.0865
     92  CZ        52.1230  -63.9910   -3.2500 C.cat 209  ARG209      0.5346
     93  NH1       52.7700  -65.1020   -3.5800 N.pl3 209  ARG209      0.1354
     94  NH2       51.2220  -63.4830   -4.0800 N.pl3 209  ARG209      0.1354
     95  N         48.6170  -57.9550    3.8720 N.3   212  GLY212     -0.1210
     96  CA        49.3710  -57.8840    5.1060 C.3   212  GLY212      0.1956
     97  C         50.3800  -56.7600    5.0270 C.2   212  GLY212      0.2611
     98  O         50.4240  -55.8820    5.8890 O.2   212  GLY212     -0.2717
     99  N         51.1920  -56.7790    3.9790 N.am  213  GLN213     -0.1979
    100  CA        52.1910  -55.7410    3.7860 C.3   213  GLN213      0.1601
    101  C         51.5540  -54.3720    3.5660 C.2   213  GLN213      0.2287
    102  O         52.0830  -53.3560    4.0150 O.2   213  GLN213     -0.2864
    103  CB        53.1130  -56.0880    2.6210 C.3   213  GLN213      0.0394
    104  CG        54.1270  -55.0100    2.3060 C.3   213  GLN213      0.0908
    105  CD        55.2540  -55.5240    1.4410 C.2   213  GLN213      0.2608
    106  OE1       55.8770  -56.5410    1.7560 O.2   213  GLN213     -0.2717
    107  NE2       55.5240  -54.8260    0.3390 N.am  213  GLN213     -0.0878
    108  N         50.7540  -53.0310    6.9640 N.3   216  THR216     -0.1218
    109  CA        51.9230  -52.6110    7.7290 C.3   216  THR216      0.1862
    110  C         52.5560  -51.3460    7.1580 C.2   216  THR216      0.2287
    111  O         53.3120  -50.6630    7.8460 O.2   216  THR216     -0.2866
    112  CB        52.9900  -53.7210    7.8240 C.3   216  THR216      0.1770
    113  OG1       53.3690  -54.1460    6.5100 O.3   216  THR216     -0.2211
    114  CG2       52.4500  -54.9060    8.5850 C.3   216  THR216      0.0375
    115  N         50.8910  -58.5960   15.5080 N.3   226  PHE226     -0.1227
    116  CA        51.1150  -59.7120   14.6070 C.3   226  PHE226      0.1736
    117  C         51.2810  -61.0210   15.3630 C.2   226  PHE226      0.2596
    118  O         51.9120  -61.0660   16.4180 O.2   226  PHE226     -0.2718
    119  CB        52.3530  -59.4450   13.7420 C.3   226  PHE226      0.0547
    120  CG        52.7600  -60.6140   12.8860 C.ar  226  PHE226     -0.0202
    121  CD1       52.1930  -60.8050   11.6370 C.ar  226  PHE226     -0.0042
    122  CD2       53.7040  -61.5240   13.3340 C.ar  226  PHE226     -0.0042
    123  CE1       52.5620  -61.8790   10.8480 C.ar  226  PHE226     -0.0003
    124  CE2       54.0770  -62.6030   12.5500 C.ar  226  PHE226     -0.0003
    125  CZ        53.5040  -62.7830   11.3030 C.ar  226  PHE226     -0.0000
    126  N         50.7000  -62.0850   14.8280 N.am  227  THR227     -0.1939
    127  CA        50.9720  -63.4220   15.3380 C.3   227  THR227      0.2028
    128  C         51.3590  -64.3360   14.1780 C.2   227  THR227      0.2643
    129  O         50.6730  -64.3780   13.1600 O.2   227  THR227     -0.2714
    130  CB        49.7590  -64.0170   16.0790 C.3   227  THR227      0.1808
    131  OG1       49.4660  -63.2280   17.2360 O.3   227  THR227     -0.2208
    132  CG2       50.0460  -65.4460   16.5120 C.3   227  THR227      0.0379
    133  N         52.4600  -65.0580   14.3360 N.am  228  GLY228     -0.1939
    134  CA        52.9350  -65.9760   13.3150 C.3   228  GLY228      0.2014
    135  C         54.3680  -66.4030   13.5780 C.2   228  GLY228      0.2639
    136  O         54.8420  -66.3290   14.7070 O.2   228  GLY228     -0.2714
    137  N         55.0640  -66.8460   12.5360 N.am  229  GLY229     -0.1954
    138  CA        56.4430  -67.2840   12.6690 C.3   229  GLY229      0.1869
    139  C         57.4270  -66.1370   12.8350 C.2   229  GLY229      0.2309
    140  O         57.1530  -65.0070   12.4230 O.2   229  GLY229     -0.2863
    141  N         58.6550  -64.3960    9.4940 N.3   232  THR232     -0.1218
    142  CA        57.6930  -63.4520    8.9460 C.3   232  THR232      0.1862
    143  C         57.6080  -62.2200    9.8390 C.2   232  THR232      0.2287
    144  O         57.5430  -61.0860    9.3580 O.2   232  THR232     -0.2866
    145  CB        56.3090  -64.1080    8.8460 C.3   232  THR232      0.1770
    146  OG1       56.4200  -65.3060    8.0710 O.3   232  THR232     -0.2211
    147  CG2       55.2960  -63.1640    8.2090 C.3   232  THR232      0.0375
    148  N         60.0830  -59.4920    9.0120 N.3   235  LYS235     -0.1231
    149  CA        59.6630  -58.7180    7.8490 C.3   235  LYS235      0.1693
    150  C         58.5760  -57.7250    8.2390 C.2   235  LYS235      0.2591
    151  O         58.6270  -56.5520    7.8740 O.2   235  LYS235     -0.2718
    152  CB        59.1400  -59.6450    6.7460 C.3   235  LYS235      0.0285
    153  CG        60.1370  -60.6920    6.2760 C.3   235  LYS235      0.0035
    154  CD        59.4980  -61.6610    5.2860 C.3   235  LYS235      0.0206
    155  CE        60.4470  -62.8010    4.9270 C.3   235  LYS235      0.1093
    156  NZ        59.7850  -63.8580    4.1090 N.3   235  LYS235     -0.1314
    157  N         57.5900  -58.2090    8.9870 N.am  236  VAL236     -0.1980
    158  CA        56.4520  -57.3870    9.3790 C.3   236  VAL236      0.1595
    159  C         56.8810  -56.1760   10.2080 C.2   236  VAL236      0.2287
    160  O         56.4030  -55.0590    9.9930 O.2   236  VAL236     -0.2864
    161  CB        55.4210  -58.2100   10.1710 C.3   236  VAL236      0.0276
    162  CG1       54.3790  -57.2960   10.8000 C.3   236  VAL236      0.0022
    163  CG2       54.7680  -59.2470    9.2680 C.3   236  VAL236      0.0022
    164  N         58.8350  -53.4710    8.1900 N.3   239  SER239     -0.1217
    165  CA        57.8860  -52.7200    7.3760 C.3   239  SER239      0.1889
    166  C         57.0930  -51.7200    8.2200 C.2   239  SER239      0.2288
    167  O         56.9980  -50.5450    7.8770 O.2   239  SER239     -0.2866
    168  CB        56.9340  -53.6700    6.6440 C.3   239  SER239      0.2089
    169  OG        55.9120  -52.9500    5.9710 O.3   239  SER239     -0.2183
@<TRIPOS>BOND
     1    94    92    1
     2    93    92    1
     3    92    91    2
     4    91    90    1
     5    90    89    1
     6    88    89    1
     7    88    85    1
     8    78    79    1
     9    78    75    1
    10    62    60   ar
    11    61    60   ar
    12   107   105   am
    13    87    86    2
    14    86    85    1
    15    60    59    1
    16    74    75    1
    17    74    72   am
    18    85    84    1
    19    71    72    1
    20    71    70    1
    21    75    76    1
    22   105   106    2
    23   105   104    1
    24    72    73    2
    25    59    58    1
    26    84    82   am
    27   104   103    1
    28    76    77    2
    29    76    80   am
    30   103   100    1
    31    58    55    1
    32    82    83    2
    33    82    81    1
    34    80    81    1
    35   101   100    1
    36   101   102    2
    37   100    99    1
    38    95    96    1
    39    57    56    2
    40    99    97   am
    41   156   155    1
    42    55    56    1
    43    55    54    1
    44    56    63   am
    45   155   154    1
    46    97    96    1
    47    97    98    2
    48    63    64    1
    49   154   153    1
    50    54    50   am
    51    64    65    1
    52    64    67    1
    53    69    67    1
    54    40    39    1
    55    39    38    1
    56    38    37    1
    57   169   168    1
    58    66    65    2
    59   153   152    1
    60    67    68    1
    61    50    51    2
    62    50    49    1
    63   113   112    1
    64    37    36    1
    65   168   165    1
    66   152   149    1
    67   108   109    1
    68    44    43    2
    69   110   109    1
    70   110   111    2
    71   165   164    1
    72   165   166    1
    73    36    33    1
    74    53    52    1
    75   109   112    1
    76    49    52    1
    77    49    48    1
    78   112   114    1
    79   149   150    1
    80   149   148    1
    81   151   150    2
    82   167   166    2
    83    47    46    1
    84    47    41    1
    85   146   145    1
    86    43    48   am
    87    43    42    1
    88   147   145    1
    89   150   157   am
    90    46    45    1
    91    33    34    1
    92    33    32    1
    93    45    42    1
    94    41    34   am
    95    41    42    1
    96   145   142    1
    97    34    35    2
    98   142   141    1
    99   142   143    1
   100   157   158    1
   101   163   161    1
   102    24    26   ar
   103    24    23   ar
   104   144   143    2
   105     8     6    1
   106   158   161    1
   107   158   159    1
   108    26    27   ar
   109     7     5    1
   110     6     5    1
   111   160   159    2
   112    23    22    1
   113    23    25   ar
   114    22    19    1
   115   161   162    1
   116    27    25   ar
   117    27    29   ar
   118    25    28   ar
   119     5     2    1
   120    29    31   ar
   121   123   125   ar
   122   123   121   ar
   123    12    11    2
   124   125   124   ar
   125     2     3    1
   126     2     1    1
   127    19    18    1
   128    19    20    1
   129    28    30   ar
   130    31    30   ar
   131   121   120   ar
   132    18    15   am
   133     9     3   am
   134     9    10    1
   135    11    10    1
   136    11    13   am
   137     3     4    2
   138    15    14    1
   139    15    16    2
   140    21    20    2
   141   140   139    2
   142   137   138    1
   143   137   135   am
   144   124   122   ar
   145    14    13    1
   146    14    17    1
   147   138   139    1
   148   120   122   ar
   149   120   119    1
   150   129   128    2
   151   134   135    1
   152   134   133    1
   153   135   136    2
   154   119   116    1
   155   128   133   am
   156   128   127    1
   157   116   117    1
   158   116   115    1
   159   126   127    1
   160   126   117   am
   161   127   130    1
   162   117   118    2
   163   130   132    1
   164   130   131    1
