@<TRIPOS>MOLECULE
tmp/2xduA01.pdb
 121 114 0 0 0
SMALL
GASTEIGER

@<TRIPOS>ATOM
      1  N         16.2400   18.7400   25.8540 N.3     6  PHE6       -0.1241
      2  CA        15.9250   17.4280   25.2800 C.3     6  PHE6        0.1605
      3  C         17.2200   16.6050   25.2720 C.2     6  PHE6        0.2264
      4  O         18.3060   17.1360   25.2030 O.2     6  PHE6       -0.2867
      5  CB        15.4270   17.5290   23.8450 C.3     6  PHE6        0.0534
      6  CG        14.0330   18.0650   23.6830 C.ar    6  PHE6       -0.0203
      7  CD1       12.9270   17.2740   23.9480 C.ar    6  PHE6       -0.0042
      8  CD2       13.8270   19.3480   23.1880 C.ar    6  PHE6       -0.0042
      9  CE1       11.6420   17.7490   23.7450 C.ar    6  PHE6       -0.0003
     10  CE2       12.5390   19.8450   23.0000 C.ar    6  PHE6       -0.0003
     11  CZ        11.4380   19.0580   23.2860 C.ar    6  PHE6       -0.0000
     12  N         -1.9250    8.1560   19.0800 N.3    35  ASN35      -0.1240
     13  CA        -1.4860    8.3330   20.4590 C.3    35  ASN35       0.1653
     14  C         -2.6740    8.4730   21.3990 C.2    35  ASN35       0.2266
     15  O         -2.7010    7.8250   22.4390 O.2    35  ASN35      -0.2867
     16  CB        -0.5350    9.5310   20.6350 C.3    35  ASN35       0.1155
     17  CG         0.8640    9.2780   20.0600 C.2    35  ASN35       0.2627
     18  OD1        1.1890    8.1690   19.6170 O.2    35  ASN35      -0.2716
     19  ND2        1.7030   10.3230   20.0870 N.am   35  ASN35      -0.0877
     20  N         -0.7130   12.0250   31.2440 N.3    82  MET82      -0.1245
     21  CA         0.7090   11.8860   31.5400 C.3    82  MET82       0.1570
     22  C          1.0890   12.5050   32.8550 C.2    82  MET82       0.2261
     23  O          0.5950   13.5820   33.2060 O.2    82  MET82      -0.2867
     24  CB         1.5300   12.5380   30.4240 C.3    82  MET82       0.0387
     25  CG         1.5010   11.7670   29.1340 C.3    82  MET82       0.0595
     26  SD         2.1630   12.7220   27.7460 S.3    82  MET82      -0.1393
     27  CE         0.7710   13.7920   27.3770 C.3    82  MET82       0.0692
     28  N          6.3560   13.4170   31.2920 N.3    87  LEU87      -0.1245
     29  CA         6.6910   14.6230   30.5230 C.3    87  LEU87       0.1561
     30  C          8.1630   14.9570   30.5440 C.2    87  LEU87       0.2260
     31  O          8.7120   15.3450   29.5420 O.2    87  LEU87      -0.2867
     32  CB         5.9150   15.8510   31.0430 C.3    87  LEU87       0.0270
     33  CG         4.4100   15.8310   30.8200 C.3    87  LEU87       0.0019
     34  CD1        3.7220   16.9890   31.5880 C.3    87  LEU87       0.0001
     35  CD2        4.0140   15.8450   29.3470 C.3    87  LEU87       0.0001
     36  N          8.8580    9.4090   28.7430 N.3    91  LEU91      -0.1231
     37  CA         8.4560    9.2820   27.3390 C.3    91  LEU91       0.1693
     38  C          9.6380    9.5150   26.4010 C.2    91  LEU91       0.2592
     39  O          9.7930    8.8230   25.3810 O.2    91  LEU91      -0.2718
     40  CB         7.2810   10.2000   27.0120 C.3    91  LEU91       0.0284
     41  CG         5.9850    9.7660   27.7100 C.3    91  LEU91       0.0019
     42  CD1        4.8700   10.6910   27.3370 C.3    91  LEU91       0.0001
     43  CD2        5.6070    8.3340   27.3720 C.3    91  LEU91       0.0001
     44  N         10.4840   10.4710   26.7600 N.am   92  GLY92      -0.1957
     45  CA        11.6890   10.7340   25.9840 C.3    92  GLY92       0.1869
     46  C         12.6740    9.5860   26.0610 C.2    92  GLY92       0.2309
     47  O         13.3380    9.2730   25.0680 O.2    92  GLY92      -0.2863
     48  N         11.4740    6.9140   23.8390 N.3    95  ALA95      -0.1245
     49  CA        11.5700    7.3680   22.4370 C.3    95  ALA95       0.1562
     50  C         12.9840    7.2650   21.8560 C.2    95  ALA95       0.2260
     51  O         13.1440    7.2220   20.6360 O.2    95  ALA95      -0.2867
     52  CB        11.0690    8.8090   22.3000 C.3    95  ALA95       0.0290
     53  N          7.3850    4.4060   17.0900 N.3   119  GLY119     -0.1210
     54  CA         6.9030    4.8440   18.3980 C.3   119  GLY119      0.1956
     55  C          7.2120    6.2930   18.7760 C.2   119  GLY119      0.2611
     56  O          7.1250    6.6650   19.9550 O.2   119  GLY119     -0.2717
     57  N          7.5710    7.1240   17.7880 N.am  120  VAL120     -0.1979
     58  CA         7.9790    8.5010   18.0570 C.3   120  VAL120      0.1595
     59  C          7.1620    9.5040   17.2250 C.2   120  VAL120      0.2287
     60  O          7.6010   10.6440   16.9650 O.2   120  VAL120     -0.2864
     61  CB         9.5140    8.6930   17.8480 C.3   120  VAL120      0.0276
     62  CG1       10.2980    7.8370   18.8790 C.3   120  VAL120      0.0022
     63  CG2        9.9390    8.3590   16.4150 C.3   120  VAL120      0.0022
     64  N          4.6960   11.4030   17.9600 N.3   122  PHE122     -0.1227
     65  CA         4.3800   12.6820   18.6050 C.3   122  PHE122      0.1736
     66  C          5.2020   13.8300   17.9880 C.2   122  PHE122      0.2595
     67  O          4.6760   14.9230   17.7570 O.2   122  PHE122     -0.2718
     68  CB         4.5930   12.6430   20.1310 C.3   122  PHE122      0.0547
     69  CG         4.6180   14.0210   20.7800 C.ar  122  PHE122     -0.0202
     70  CD1        3.4560   14.7020   21.0430 C.ar  122  PHE122     -0.0042
     71  CD2        5.8330   14.6270   21.0930 C.ar  122  PHE122     -0.0042
     72  CE1        3.4810   15.9730   21.6060 C.ar  122  PHE122     -0.0003
     73  CE2        5.8670   15.9040   21.6690 C.ar  122  PHE122     -0.0003
     74  CZ         4.6860   16.5690   21.9240 C.ar  122  PHE122     -0.0000
     75  N          6.4730   13.5780   17.7260 N.am  123  TYR123     -0.1976
     76  CA         7.3780   14.6520   17.2590 C.3   123  TYR123      0.1639
     77  C          7.0420   15.0950   15.8190 C.2   123  TYR123      0.2290
     78  O          7.5120   16.1450   15.3770 O.2   123  TYR123     -0.2864
     79  CB         8.8370   14.2470   17.4120 C.3   123  TYR123      0.0560
     80  CG         9.2180   13.8910   18.8450 C.ar  123  TYR123     -0.0198
     81  CD1        9.5310   14.8780   19.7890 C.ar  123  TYR123     -0.0009
     82  CD2        9.2160   12.5640   19.2750 C.ar  123  TYR123     -0.0009
     83  CE1        9.8340   14.5530   21.1070 C.ar  123  TYR123      0.0417
     84  CE2        9.5380   12.2340   20.5940 C.ar  123  TYR123      0.0417
     85  CZ         9.8410   13.2330   21.5060 C.ar  123  TYR123      0.1957
     86  OH        10.1970   12.8850   22.8020 O.3   123  TYR123     -0.2866
     87  N          1.3180   21.1160   25.4820 N.3   134  VAL134     -0.1245
     88  CA         0.5970   19.8920   25.9010 C.3   134  VAL134      0.1561
     89  C          0.1220   20.0810   27.3350 C.2   134  VAL134      0.2260
     90  O          0.9430   20.2470   28.2480 O.2   134  VAL134     -0.2867
     91  CB         1.4690   18.6410   25.8340 C.3   134  VAL134      0.0252
     92  CG1        0.6910   17.4090   26.3080 C.3   134  VAL134      0.0019
     93  CG2        1.9870   18.3600   24.3980 C.3   134  VAL134      0.0019
     94  N          3.2990   21.2460   29.3400 N.3   146  TRP146     -0.1241
     95  CA         4.5880   21.0540   28.7050 C.3   146  TRP146      0.1605
     96  C          4.5470   21.9010   27.4710 C.2   146  TRP146      0.2264
     97  O          3.4960   22.0250   26.8240 O.2   146  TRP146     -0.2867
     98  CB         4.7420   19.5690   28.3380 C.3   146  TRP146      0.0550
     99  CG         5.9410   19.1180   27.4970 C.ar  146  TRP146      0.0003
    100  CD1        7.0350   18.4280   27.9570 C.ar  146  TRP146      0.0946
    101  CD2        6.1330   19.2640   26.0870 C.ar  146  TRP146      0.0152
    102  NE1        7.9010   18.1620   26.9210 N.ar  146  TRP146     -0.2442
    103  CE2        7.3640   18.6380   25.7610 C.ar  146  TRP146      0.0810
    104  CE3        5.3770   19.8380   25.0470 C.ar  146  TRP146      0.0012
    105  CZ2        7.8730   18.6130   24.4640 C.ar  146  TRP146      0.0191
    106  CZ3        5.8750   19.7660   23.7530 C.ar  146  TRP146      0.0001
    107  CH2        7.1040   19.1730   23.4760 C.ar  146  TRP146      0.0015
    108  N         -5.5110   14.5180   27.8890 N.3   168  THR168     -0.1218
    109  CA        -4.4150   15.2470   27.2790 C.3   168  THR168      0.1862
    110  C         -4.9260   16.1440   26.1830 C.2   168  THR168      0.2287
    111  O         -5.7960   15.7390   25.3910 O.2   168  THR168     -0.2866
    112  CB        -3.3520   14.2850   26.7040 C.3   168  THR168      0.1770
    113  OG1       -2.8230   13.4760   27.7540 O.3   168  THR168     -0.2211
    114  CG2       -2.2050   15.0770   25.9990 C.3   168  THR168      0.0375
    115  N         -3.1990   18.3890   23.1400 N.3   170  VAL170     -0.1245
    116  CA        -2.0620   18.8030   22.3670 C.3   170  VAL170      0.1561
    117  C         -2.4680   20.0020   21.5220 C.2   170  VAL170      0.2260
    118  O         -3.2960   19.8870   20.6000 O.2   170  VAL170     -0.2867
    119  CB        -1.5420   17.6740   21.5130 C.3   170  VAL170      0.0252
    120  CG1       -0.2980   18.1290   20.6640 C.3   170  VAL170      0.0019
    121  CG2       -1.2410   16.4080   22.3920 C.3   170  VAL170      0.0019
@<TRIPOS>BOND
     1    78    77    2
     2    77    76    1
     3    63    61    1
     4    60    59    2
     5    53    54    1
     6    59    58    1
     7    76    79    1
     8    76    75    1
     9    79    80    1
    10    75    66   am
    11    67    66    2
    12    57    58    1
    13    57    55   am
    14    61    58    1
    15    61    62    1
    16    64    65    1
    17    66    65    1
    18    54    55    1
    19    65    68    1
    20    55    56    2
    21    80    82   ar
    22    80    81   ar
    23    12    13    1
    24    82    84   ar
    25    18    17    2
    26    81    83   ar
    27    17    19   am
    28    17    16    1
    29    68    69    1
    30    13    16    1
    31    13    14    1
    32    84    85   ar
    33   118   117    2
    34    51    50    2
    35   120   119    1
    36    69    70   ar
    37    69    71   ar
    38    70    72   ar
    39    71    73   ar
    40    83    85   ar
    41    14    15    2
    42    85    86    1
    43   119   116    1
    44   119   121    1
    45   117   116    1
    46    72    74   ar
    47    73    74   ar
    48    50    49    1
    49    52    49    1
    50   116   115    1
    51    49    48    1
    52    10     8   ar
    53    10    11   ar
    54     8     6   ar
    55    11     9   ar
    56   107   106   ar
    57   107   105   ar
    58     6     5    1
    59     6     7   ar
    60     9     7   ar
    61   106   104   ar
    62     5     2    1
    63    93    91    1
    64   105   103   ar
    65   104   101   ar
    66    47    46    2
    67     4     3    2
    68     3     2    1
    69     2     1    1
    70    39    38    2
    71   111   110    2
    72    87    88    1
    73   103   101   ar
    74   103   102   ar
    75    91    88    1
    76    91    92    1
    77    88    89    1
    78    45    46    1
    79    45    44    1
    80   114   112    1
    81   101    99   ar
    82   110   109    1
    83    38    44   am
    84    38    37    1
    85   112   109    1
    86   112   113    1
    87    97    96    2
    88   102   100   ar
    89    40    37    1
    90    40    41    1
    91   109   108    1
    92    89    90    2
    93    42    41    1
    94    37    36    1
    95    43    41    1
    96    27    26    1
    97    96    95    1
    98    99   100   ar
    99    99    98    1
   100    26    25    1
   101    98    95    1
   102    95    94    1
   103    25    24    1
   104    35    33    1
   105    31    30    2
   106    24    21    1
   107    29    30    1
   108    29    32    1
   109    29    28    1
   110    33    32    1
   111    33    34    1
   112    20    21    1
   113    21    22    1
   114    22    23    2
