@<TRIPOS>MOLECULE
tmp/2xduA00.pdb
 88 80 0 0 0
SMALL
GASTEIGER

@<TRIPOS>ATOM
      1  N         -1.0310   11.7610   16.1250 N.3    32  LEU32      -0.1245
      2  CA        -1.5910   12.2820   17.3790 C.3    32  LEU32       0.1561
      3  C         -2.8870   11.6040   17.7680 C.2    32  LEU32       0.2260
      4  O         -3.0930   11.3130   18.9480 O.2    32  LEU32      -0.2867
      5  CB        -1.7500   13.8180   17.3500 C.3    32  LEU32       0.0270
      6  CG        -0.4380   14.6110   17.1610 C.3    32  LEU32       0.0019
      7  CD1       -0.7230   16.1140   17.0400 C.3    32  LEU32       0.0001
      8  CD2        0.5930   14.3270   18.3020 C.3    32  LEU32       0.0001
      9  N         -1.9250    8.1560   19.0800 N.3    35  ASN35      -0.1225
     10  CA        -1.4860    8.3330   20.4590 C.3    35  ASN35       0.1785
     11  C         -2.6740    8.4730   21.3990 C.2    35  ASN35       0.2597
     12  O         -2.7010    7.8250   22.4390 O.2    35  ASN35      -0.2718
     13  CB        -0.5350    9.5310   20.6350 C.3    35  ASN35       0.1169
     14  CG         0.8640    9.2780   20.0600 C.2    35  ASN35       0.2627
     15  OD1        1.1890    8.1690   19.6170 O.2    35  ASN35      -0.2716
     16  ND2        1.7030   10.3230   20.0870 N.am   35  ASN35      -0.0877
     17  N         -3.6550    9.2940   21.0260 N.am   36  SER36      -0.1952
     18  CA        -4.8740    9.4480   21.8390 C.3    36  SER36       0.1924
     19  C         -5.6140    8.1310   21.9930 C.2    36  SER36       0.2314
     20  O         -6.0290    7.7780   23.1080 O.2    36  SER36      -0.2863
     21  CB        -5.7940   10.5380   21.2470 C.3    36  SER36       0.2116
     22  OG        -5.2420   11.8470   21.4230 O.3    36  SER36      -0.2180
     23  N         -3.8680    5.9300   24.4400 N.3    39  ALA39      -0.1245
     24  CA        -4.0860    6.4420   25.8000 C.3    39  ALA39       0.1562
     25  C         -5.5010    6.1340   26.3050 C.2    39  ALA39       0.2260
     26  O         -5.6930    5.8570   27.4870 O.2    39  ALA39      -0.2867
     27  CB        -3.7790    7.9690   25.8560 C.3    39  ALA39       0.0290
     28  N         -7.9750   14.3680   24.1670 N.3    77  ASP77      -0.1239
     29  CA        -8.4970   13.0570   24.5150 C.3    77  ASP77       0.1674
     30  C         -8.7710   12.9790   26.0090 C.2    77  ASP77       0.2266
     31  O         -8.2230   13.7580   26.7960 O.2    77  ASP77      -0.2867
     32  CB        -7.5620   11.9580   24.0410 C.3    77  ASP77       0.1410
     33  CG        -6.2540   11.9170   24.7800 C.2    77  ASP77       0.3668
     34  OD1       -6.2830   11.5520   25.9790 O.co2  77  ASP77      -0.2456
     35  OD2       -5.2070   12.2400   24.1600 O.co2  77  ASP77      -0.2456
     36  N         -5.4710    8.2330   29.3890 N.3    80  ILE80      -0.1231
     37  CA        -4.8090    8.0110   30.6880 C.3    80  ILE80       0.1692
     38  C         -4.0720    9.2590   31.1960 C.2    80  ILE80       0.2593
     39  O         -3.8570    9.4160   32.4110 O.2    80  ILE80      -0.2718
     40  CB        -3.8510    6.8090   30.5840 C.3    80  ILE80       0.0266
     41  CG1       -3.3140    6.4170   31.9660 C.3    80  ILE80       0.0019
     42  CG2       -2.7350    7.0930   29.5680 C.3    80  ILE80       0.0020
     43  CD1       -3.8910    5.2060   32.4900 C.3    80  ILE80       0.0001
     44  N         -3.7070   10.1430   30.2750 N.am   81  GLY81      -0.1942
     45  CA        -2.9020   11.3150   30.5960 C.3    81  GLY81       0.2014
     46  C         -1.4620   10.9840   30.9190 C.2    81  GLY81       0.2638
     47  O         -1.0220    9.8070   30.8480 O.2    81  GLY81      -0.2714
     48  N         -0.7130   12.0250   31.2440 N.am   82  MET82      -0.1976
     49  CA         0.7090   11.8860   31.5400 C.3    82  MET82       0.1605
     50  C          1.0890   12.5050   32.8550 C.2    82  MET82       0.2287
     51  O          0.5950   13.5820   33.2060 O.2    82  MET82      -0.2864
     52  CB         1.5300   12.5380   30.4240 C.3    82  MET82       0.0413
     53  CG         1.5010   11.7670   29.1340 C.3    82  MET82       0.0598
     54  SD         2.1630   12.7220   27.7460 S.3    82  MET82      -0.1393
     55  CE         0.7710   13.7920   27.3770 C.3    82  MET82       0.0692
     56  N          8.8580    9.4090   28.7430 N.3    91  LEU91      -0.1245
     57  CA         8.4560    9.2820   27.3390 C.3    91  LEU91       0.1561
     58  C          9.6380    9.5150   26.4010 C.2    91  LEU91       0.2260
     59  O          9.7930    8.8230   25.3810 O.2    91  LEU91      -0.2867
     60  CB         7.2810   10.2000   27.0120 C.3    91  LEU91       0.0270
     61  CG         5.9850    9.7660   27.7100 C.3    91  LEU91       0.0019
     62  CD1        4.8700   10.6910   27.3370 C.3    91  LEU91       0.0001
     63  CD2        5.6070    8.3340   27.3720 C.3    91  LEU91       0.0001
     64  N          4.6960   11.4030   17.9600 N.3   122  PHE122     -0.1241
     65  CA         4.3800   12.6820   18.6050 C.3   122  PHE122      0.1605
     66  C          5.2020   13.8300   17.9880 C.2   122  PHE122      0.2264
     67  O          4.6760   14.9230   17.7570 O.2   122  PHE122     -0.2867
     68  CB         4.5930   12.6430   20.1310 C.3   122  PHE122      0.0534
     69  CG         4.6180   14.0210   20.7800 C.ar  122  PHE122     -0.0203
     70  CD1        3.4560   14.7020   21.0430 C.ar  122  PHE122     -0.0042
     71  CD2        5.8330   14.6270   21.0930 C.ar  122  PHE122     -0.0042
     72  CE1        3.4810   15.9730   21.6060 C.ar  122  PHE122     -0.0003
     73  CE2        5.8670   15.9040   21.6690 C.ar  122  PHE122     -0.0003
     74  CZ         4.6860   16.5690   21.9240 C.ar  122  PHE122     -0.0000
     75  N         -5.5110   14.5180   27.8890 N.3   168  THR168     -0.1218
     76  CA        -4.4150   15.2470   27.2790 C.3   168  THR168      0.1862
     77  C         -4.9260   16.1440   26.1830 C.2   168  THR168      0.2287
     78  O         -5.7960   15.7390   25.3910 O.2   168  THR168     -0.2866
     79  CB        -3.3520   14.2850   26.7040 C.3   168  THR168      0.1770
     80  OG1       -2.8230   13.4760   27.7540 O.3   168  THR168     -0.2211
     81  CG2       -2.2050   15.0770   25.9990 C.3   168  THR168      0.0375
     82  N         -3.1990   18.3890   23.1400 N.3   170  VAL170     -0.1245
     83  CA        -2.0620   18.8030   22.3670 C.3   170  VAL170      0.1561
     84  C         -2.4680   20.0020   21.5220 C.2   170  VAL170      0.2260
     85  O         -3.2960   19.8870   20.6000 O.2   170  VAL170     -0.2867
     86  CB        -1.5420   17.6740   21.5130 C.3   170  VAL170      0.0252
     87  CG1       -0.2980   18.1290   20.6640 C.3   170  VAL170      0.0019
     88  CG2       -1.2410   16.4080   22.3920 C.3   170  VAL170      0.0019
@<TRIPOS>BOND
     1     1     2    1
     2     7     6    1
     3     6     5    1
     4     6     8    1
     5     5     2    1
     6     2     3    1
     7    67    66    2
     8     3     4    2
     9    64    65    1
    10    66    65    1
    11    65    68    1
    12     9    10    1
    13    15    14    2
    14    14    16   am
    15    14    13    1
    16    68    69    1
    17    10    13    1
    18    10    11    1
    19    85    84    2
    20    87    86    1
    21    69    70   ar
    22    69    71   ar
    23    17    11   am
    24    17    18    1
    25    70    72   ar
    26    71    73   ar
    27    21    22    1
    28    21    18    1
    29    11    12    2
    30    86    83    1
    31    86    88    1
    32    84    83    1
    33    72    74   ar
    34    73    74   ar
    35    18    19    1
    36    19    20    2
    37    83    82    1
    38    32    29    1
    39    32    33    1
    40    35    33   ar
    41    28    29    1
    42    23    24    1
    43    29    30    1
    44    33    34   ar
    45    59    58    2
    46    78    77    2
    47    24    27    1
    48    24    25    1
    49    81    79    1
    50    30    31    2
    51    77    76    1
    52    25    26    2
    53    58    57    1
    54    79    76    1
    55    79    80    1
    56    60    57    1
    57    60    61    1
    58    76    75    1
    59    62    61    1
    60    57    56    1
    61    63    61    1
    62    55    54    1
    63    54    53    1
    64    53    52    1
    65    36    37    1
    66    42    40    1
    67    44    45    1
    68    44    38   am
    69    52    49    1
    70    40    37    1
    71    40    41    1
    72    45    46    1
    73    37    38    1
    74    47    46    2
    75    46    48   am
    76    38    39    2
    77    48    49    1
    78    49    50    1
    79    41    43    1
    80    50    51    2
