@<TRIPOS>MOLECULE
tmp/2xdvA00.pdb
 139 133 0 0 0
SMALL
GASTEIGER

@<TRIPOS>ATOM
      1  N         79.9890  128.2030  101.8720 N.3    70  THR70      -0.1218
      2  CA        80.6590  127.6150  100.7120 C.3    70  THR70       0.1862
      3  C         81.8260  126.7340  101.1310 C.2    70  THR70       0.2287
      4  O         82.6770  127.1790  101.8960 O.2    70  THR70      -0.2866
      5  CB        81.0910  128.7330   99.7280 C.3    70  THR70       0.1770
      6  OG1       79.9180  129.3380   99.1890 O.3    70  THR70      -0.2211
      7  CG2       81.9690  128.2170   98.5640 C.3    70  THR70       0.0375
      8  N         84.1900  124.3830   94.2170 N.3   103  TYR103     -0.1241
      9  CA        83.2940  125.2020   95.0460 C.3   103  TYR103      0.1605
     10  C         81.9580  124.5170   95.1280 C.2   103  TYR103      0.2264
     11  O         81.3500  124.2370   94.0920 O.2   103  TYR103     -0.2867
     12  CB        83.1190  126.6210   94.4720 C.3   103  TYR103      0.0534
     13  CG        84.3730  127.4640   94.4880 C.ar  103  TYR103     -0.0201
     14  CD1       84.5900  128.4040   95.4910 C.ar  103  TYR103     -0.0009
     15  CD2       85.3400  127.3370   93.4900 C.ar  103  TYR103     -0.0009
     16  CE1       85.7480  129.1850   95.5140 C.ar  103  TYR103      0.0417
     17  CE2       86.4910  128.1300   93.4890 C.ar  103  TYR103      0.0417
     18  CZ        86.6820  129.0640   94.4970 C.ar  103  TYR103      0.1957
     19  OH        87.8000  129.8640   94.5150 O.3   103  TYR103     -0.2866
     20  N         77.1980  132.7410   97.6450 N.3   111  GLY111     -0.1210
     21  CA        78.5800  132.2760   97.6530 C.3   111  GLY111      0.1956
     22  C         79.4590  133.2860   98.3700 C.2   111  GLY111      0.2611
     23  O         79.0540  133.8790   99.3840 O.2   111  GLY111     -0.2717
     24  N         80.6640  133.5100   97.8320 N.am  112  LEU112     -0.1979
     25  CA        81.6290  134.4750   98.3800 C.3   112  LEU112      0.1596
     26  C         81.1290  135.8840   98.0220 C.2   112  LEU112      0.2287
     27  O         80.4570  136.0260   96.9960 O.2   112  LEU112     -0.2864
     28  CB        82.9930  134.2480   97.7120 C.3   112  LEU112      0.0297
     29  CG        83.8970  133.1060   98.1780 C.3   112  LEU112      0.0022
     30  CD1       83.2170  131.7440   98.0990 C.3   112  LEU112      0.0001
     31  CD2       85.1520  133.0520   97.3100 C.3   112  LEU112      0.0001
     32  N         84.2270  140.0810   94.3900 N.3   115  HIS115     -0.1241
     33  CA        85.6860  140.1380   94.3890 C.3   115  HIS115      0.1621
     34  C         86.2280  139.9130   92.9820 C.2   115  HIS115      0.2264
     35  O         85.4710  139.5610   92.0700 O.2   115  HIS115     -0.2867
     36  CB        86.2750  139.0470   95.3350 C.3   115  HIS115      0.0745
     37  CG        85.9810  137.6540   94.8820 C.ar  115  HIS115      0.0817
     38  ND1       84.7150  137.0990   95.0280 N.ar  115  HIS115     -0.2268
     39  CD2       86.7650  136.7800   94.2160 C.ar  115  HIS115      0.1154
     40  CE1       84.7890  135.8930   94.4970 C.ar  115  HIS115      0.1986
     41  NE2       86.0020  135.6550   93.9870 N.ar  115  HIS115     -0.2212
     42  N         90.0580  138.0960   91.2040 N.3   117  ASP117     -0.1239
     43  CA        91.1770  137.2000   91.4610 C.3   117  ASP117      0.1674
     44  C         92.3990  137.6510   90.6160 C.2   117  ASP117      0.2266
     45  O         92.2640  138.5160   89.7570 O.2   117  ASP117     -0.2867
     46  CB        90.7510  135.7520   91.1180 C.3   117  ASP117      0.1410
     47  CG        89.4990  135.1760   91.8220 C.2   117  ASP117      0.3668
     48  OD1       89.5470  134.9700   93.0640 O.co2 117  ASP117     -0.2456
     49  OD2       88.5470  134.7690   91.1080 O.co2 117  ASP117     -0.2456
     50  N         90.8120  132.3210   84.6220 N.3   121  VAL121     -0.1245
     51  CA        90.0170  131.1560   85.0470 C.3   121  VAL121      0.1561
     52  C         89.1660  130.5270   83.9810 C.2   121  VAL121      0.2260
     53  O         88.6370  131.2290   83.1290 O.2   121  VAL121     -0.2867
     54  CB        89.1550  131.3870   86.3320 C.3   121  VAL121      0.0252
     55  CG1       89.9820  131.8610   87.5360 C.3   121  VAL121      0.0019
     56  CG2       87.9970  132.3160   86.0650 C.3   121  VAL121      0.0019
     57  N         85.9680  128.0690   84.4170 N.3   123  ILE123     -0.1245
     58  CA        84.9860  127.5110   85.3430 C.3   123  ILE123      0.1561
     59  C         84.1630  126.4610   84.5930 C.2   123  ILE123      0.2260
     60  O         83.5800  126.7570   83.5540 O.2   123  ILE123     -0.2867
     61  CB        84.0880  128.6230   85.9980 C.3   123  ILE123      0.0252
     62  CG1       84.8920  129.4150   87.0250 C.3   123  ILE123      0.0019
     63  CG2       82.8280  128.0320   86.6450 C.3   123  ILE123      0.0019
     64  CD1       84.7550  130.8090   86.9120 C.3   123  ILE123      0.0001
     65  N         74.1720  127.5510   89.0870 N.3   130  LYS130     -0.1245
     66  CA        74.6850  128.6620   89.8960 C.3   130  LYS130      0.1561
     67  C         74.4120  129.9300   89.1390 C.2   130  LYS130      0.2260
     68  O         74.5730  129.9700   87.9220 O.2   130  LYS130     -0.2867
     69  CB        76.1840  128.5310   90.2270 C.3   130  LYS130      0.0271
     70  CG        76.5910  129.3830   91.4240 C.3   130  LYS130      0.0035
     71  CD        77.8370  128.8960   92.1010 C.3   130  LYS130      0.0206
     72  CE        77.8680  129.2200   93.5870 C.3   130  LYS130      0.1093
     73  NZ        78.9530  128.4820   94.3080 N.3   130  LYS130     -0.1314
     74  N         75.3460  133.5410   88.2240 N.3   132  TRP132     -0.1241
     75  CA        76.5040  134.4370   88.1280 C.3   132  TRP132      0.1605
     76  C         76.1650  135.8760   87.7090 C.2   132  TRP132      0.2264
     77  O         75.3150  136.1090   86.8630 O.2   132  TRP132     -0.2867
     78  CB        77.5760  133.8720   87.1660 C.3   132  TRP132      0.0550
     79  CG        78.3430  132.6910   87.6900 C.ar  132  TRP132      0.0003
     80  CD1       77.9200  131.3970   87.7270 C.ar  132  TRP132      0.0946
     81  CD2       79.6730  132.6950   88.2480 C.ar  132  TRP132      0.0152
     82  NE1       78.8750  130.6050   88.3240 N.ar  132  TRP132     -0.2442
     83  CE2       79.9620  131.3750   88.6480 C.ar  132  TRP132      0.0810
     84  CE3       80.6540  133.6860   88.4360 C.ar  132  TRP132      0.0012
     85  CZ2       81.1910  131.0170   89.2160 C.ar  132  TRP132      0.0191
     86  CZ3       81.8540  133.3410   89.0450 C.ar  132  TRP132      0.0001
     87  CH2       82.1260  132.0180   89.4000 C.ar  132  TRP132      0.0015
     88  N         86.9500  133.9460   82.2570 N.3   170  PHE170     -0.1241
     89  CA        87.0840  135.3770   82.4930 C.3   170  PHE170      0.1605
     90  C         88.5050  135.7830   82.9040 C.2   170  PHE170      0.2264
     91  O         89.2090  134.9870   83.5480 O.2   170  PHE170     -0.2867
     92  CB        85.9680  135.9750   83.3680 C.3   170  PHE170      0.0534
     93  CG        85.7840  135.4370   84.7650 C.ar  170  PHE170     -0.0203
     94  CD1       86.7150  135.7170   85.7650 C.ar  170  PHE170     -0.0042
     95  CD2       84.6150  134.7710   85.1170 C.ar  170  PHE170     -0.0042
     96  CE1       86.4950  135.3050   87.0770 C.ar  170  PHE170     -0.0003
     97  CE2       84.4010  134.3460   86.4280 C.ar  170  PHE170     -0.0003
     98  CZ        85.3430  134.6100   87.3990 C.ar  170  PHE170     -0.0000
     99  N         83.2640  139.5440   90.1750 N.3   176  HIS176     -0.1226
    100  CA        82.2310  138.5450   90.0320 C.3   176  HIS176      0.1752
    101  C         81.6640  138.1440   91.3800 C.2   176  HIS176      0.2596
    102  O         82.2790  138.3640   92.4220 O.2   176  HIS176     -0.2718
    103  CB        82.7790  137.2880   89.3000 C.3   176  HIS176      0.0759
    104  CG        83.9730  136.6690   89.9450 C.ar  176  HIS176      0.0818
    105  ND1       85.2640  137.1760   89.7320 N.ar  176  HIS176     -0.2268
    106  CD2       84.0560  135.5710   90.7170 C.ar  176  HIS176      0.1154
    107  CE1       86.0760  136.3820   90.3980 C.ar  176  HIS176      0.1986
    108  NE2       85.4060  135.3920   90.9990 N.ar  176  HIS176     -0.2212
    109  N         80.4990  137.5200   91.3330 N.am  177  GLN177     -0.1965
    110  CA        79.7980  137.0050   92.4870 C.3   177  GLN177      0.1733
    111  C         78.7610  135.9860   92.0060 C.2   177  GLN177      0.2616
    112  O         78.1780  136.1780   90.9500 O.2   177  GLN177     -0.2715
    113  CB        79.1940  138.1720   93.3020 C.3   177  GLN177      0.0408
    114  CG        77.6990  138.2910   93.3160 C.3   177  GLN177      0.0908
    115  CD        77.3270  139.3580   94.2840 C.2   177  GLN177      0.2608
    116  OE1       77.0730  140.5170   93.9140 O.2   177  GLN177     -0.2717
    117  NE2       77.4070  139.0120   95.5490 N.am  177  GLN177     -0.0878
    118  N         78.5770  134.9030   92.7490 N.am  178  ALA178     -0.1977
    119  CA        77.6680  133.8100   92.3980 C.3   178  ALA178      0.1597
    120  C         76.8860  133.3260   93.6120 C.2   178  ALA178      0.2287
    121  O         77.3420  133.4680   94.7350 O.2   178  ALA178     -0.2864
    122  CB        78.4470  132.6610   91.7630 C.3   178  ALA178      0.0319
    123  N         81.1580  123.3780   91.1310 N.3   189  HIS189     -0.1241
    124  CA        81.9310  123.7980   89.9730 C.3   189  HIS189      0.1621
    125  C         83.3860  123.6870   90.2870 C.2   189  HIS189      0.2264
    126  O         83.7620  123.7080   91.4610 O.2   189  HIS189     -0.2867
    127  CB        81.5360  125.2000   89.4380 C.3   189  HIS189      0.0745
    128  CG        82.0680  126.3910   90.1920 C.ar  189  HIS189      0.0817
    129  ND1       81.2690  127.1050   91.0680 N.ar  189  HIS189     -0.2268
    130  CD2       83.2680  127.0050   90.1070 C.ar  189  HIS189      0.1154
    131  CE1       82.0070  128.1120   91.4970 C.ar  189  HIS189      0.1986
    132  NE2       83.2320  128.0760   90.9730 N.ar  189  HIS189     -0.2212
    133  N         87.0610  125.5580   89.2980 N.3   191  THR191     -0.1218
    134  CA        87.7260  126.7290   88.7670 C.3   191  THR191      0.1862
    135  C         89.1390  126.3700   88.4510 C.2   191  THR191      0.2287
    136  O         89.9640  126.3290   89.3580 O.2   191  THR191     -0.2866
    137  CB        87.6470  127.8960   89.7530 C.3   191  THR191      0.1770
    138  OG1       86.2680  128.1690   89.9970 O.3   191  THR191     -0.2211
    139  CG2       88.2720  129.1490   89.1890 C.3   191  THR191      0.0375
@<TRIPOS>BOND
     1    88    89    1
     2    89    90    1
     3    89    92    1
     4    90    91    2
     5    53    52    2
     6    92    93    1
     7    60    59    2
     8    52    51    1
     9    57    58    1
    10    59    58    1
    11    50    51    1
    12    93    95   ar
    13    93    94   ar
    14    51    54    1
    15    95    97   ar
    16    58    61    1
    17    94    96   ar
    18    61    63    1
    19    61    62    1
    20    56    54    1
    21    54    55    1
    22    97    98   ar
    23    77    76    2
    24    64    62    1
    25    96    98   ar
    26    78    79    1
    27    78    75    1
    28    79    80   ar
    29    79    81   ar
    30    76    75    1
    31    80    82   ar
    32    68    67    2
    33    75    74    1
    34    81    84   ar
    35    81    83   ar
    36    82    83   ar
    37    84    86   ar
    38   135   134    1
    39   135   136    2
    40    83    85   ar
    41   134   133    1
    42   134   137    1
    43    86    87   ar
    44    65    66    1
    45    67    66    1
    46   139   137    1
    47    85    87   ar
    48   103   104    1
    49   103   100    1
    50   127   124    1
    51   127   128    1
    52   105   104   ar
    53   105   107   ar
    54   137   138    1
    55    45    44    2
    56    66    69    1
    57   104   106   ar
    58   124   125    1
    59   124   123    1
    60   100    99    1
    61   100   101    1
    62   130   128   ar
    63   130   132   ar
    64   128   129   ar
    65    69    70    1
    66   125   126    2
    67   107   108   ar
    68    44    43    1
    69   106   108   ar
    70   112   111    2
    71   132   131   ar
    72   129   131   ar
    73    49    47   ar
    74    46    43    1
    75    46    47    1
    76    42    43    1
    77   109   101   am
    78   109   110    1
    79   101   102    2
    80    70    71    1
    81   122   119    1
    82    47    48   ar
    83   111   110    1
    84   111   118   am
    85    35    34    2
    86    71    72    1
    87   119   118    1
    88   119   120    1
    89   110   113    1
    90    34    33    1
    91   113   114    1
    92   114   115    1
    93    17    15   ar
    94    17    18   ar
    95    15    13   ar
    96    72    73    1
    97   120   121    2
    98   116   115    2
    99    41    39   ar
   100    41    40   ar
   101    11    10    2
   102    39    37   ar
   103     8     9    1
   104   115   117   am
   105    33    32    1
   106    33    36    1
   107    12    13    1
   108    12     9    1
   109    13    14   ar
   110    18    19    1
   111    18    16   ar
   112    40    38   ar
   113    37    38   ar
   114    37    36    1
   115     9    10    1
   116    14    16   ar
   117    27    26    2
   118    31    29    1
   119    20    21    1
   120    21    22    1
   121    28    29    1
   122    28    25    1
   123    24    22   am
   124    24    25    1
   125    26    25    1
   126    30    29    1
   127    22    23    2
   128     7     5    1
   129     6     5    1
   130     5     2    1
   131     2     3    1
   132     2     1    1
   133     3     4    2
