@<TRIPOS>MOLECULE
tmp/2xdwA00.pdb
 159 152 0 0 0
SMALL
GASTEIGER

@<TRIPOS>ATOM
      1  N         48.9330   42.5230   88.9670 N.3   173  PHE173     -0.1241
      2  CA        48.3620   41.3420   89.6100 C.3   173  PHE173      0.1605
      3  C         49.1050   41.0100   90.8900 C.2   173  PHE173      0.2264
      4  O         49.5430   39.8620   91.1020 O.2   173  PHE173     -0.2867
      5  CB        48.3150   40.1490   88.6300 C.3   173  PHE173      0.0534
      6  CG        47.6850   40.4820   87.2970 C.ar  173  PHE173     -0.0203
      7  CD1       46.4020   41.0610   87.2430 C.ar  173  PHE173     -0.0042
      8  CD2       48.3850   40.2310   86.1150 C.ar  173  PHE173     -0.0042
      9  CE1       45.8260   41.3940   85.9630 C.ar  173  PHE173     -0.0003
     10  CE2       47.8280   40.5780   84.8570 C.ar  173  PHE173     -0.0003
     11  CZ        46.5430   41.1400   84.8220 C.ar  173  PHE173     -0.0000
     12  N         52.3070   32.4620   89.4280 N.3   235  MET235     -0.1245
     13  CA        52.1850   33.7580   90.1040 C.3   235  MET235      0.1570
     14  C         52.0880   33.4600   91.5880 C.2   235  MET235      0.2261
     15  O         51.1250   32.7970   92.0250 O.2   235  MET235     -0.2867
     16  CB        50.9040   34.4600   89.6190 C.3   235  MET235      0.0387
     17  CG        50.9440   34.7130   88.1260 C.3   235  MET235      0.0595
     18  SD        49.3770   35.2240   87.3680 S.3   235  MET235     -0.1393
     19  CE        49.3100   36.8880   87.9990 C.3   235  MET235      0.0692
     20  N         49.4950   30.4850   91.9710 N.3   252  ARG252     -0.1245
     21  CA        48.4730   30.2090   90.9500 C.3   252  ARG252      0.1563
     22  C         49.0590   29.9950   89.5830 C.2   252  ARG252      0.2260
     23  O         50.0850   30.5890   89.2550 O.2   252  ARG252     -0.2867
     24  CB        47.4970   31.3770   90.8760 C.3   252  ARG252      0.0307
     25  CG        46.9570   31.7940   92.2270 C.3   252  ARG252      0.0489
     26  CD        45.6150   31.2450   92.5080 C.3   252  ARG252      0.2205
     27  NE        45.0720   31.7860   93.7600 N.pl3 252  ARG252     -0.0865
     28  CZ        44.0210   31.2680   94.3890 C.cat 252  ARG252      0.5346
     29  NH1       43.4050   30.1960   93.8950 N.pl3 252  ARG252      0.1354
     30  NH2       43.6000   31.8080   95.5290 N.pl3 252  ARG252      0.1354
     31  N         46.8870   30.1040   86.1430 N.3   254  GLY254     -0.1210
     32  CA        45.5880   30.1510   85.4770 C.3   254  GLY254      0.1956
     33  C         44.5510   30.6470   86.4520 C.2   254  GLY254      0.2612
     34  O         44.8620   31.1850   87.5320 O.2   254  GLY254     -0.2717
     35  N         43.3080   30.4770   86.0380 N.am  255  CYS255     -0.1970
     36  CA        42.1990   31.0830   86.7510 C.3   255  CYS255      0.1712
     37  C         41.3340   30.1390   87.5720 C.2   255  CYS255      0.2296
     38  O         40.3620   30.6140   88.1470 O.2   255  CYS255     -0.2864
     39  CB        41.2980   31.8320   85.7520 C.3   255  CYS255      0.0983
     40  SG        41.9990   33.3970   85.1590 S.3   255  CYS255     -0.0798
     41  N         26.8990   36.0840   82.4960 N.3   473  TYR473     -0.1241
     42  CA        28.3810   36.0040   82.4380 C.3   473  TYR473      0.1605
     43  C         28.7390   34.5480   82.0490 C.2   473  TYR473      0.2264
     44  O         28.9450   34.2620   80.8710 O.2   473  TYR473     -0.2867
     45  CB        29.0200   36.4630   83.7790 C.3   473  TYR473      0.0534
     46  CG        30.5150   36.5660   83.8040 C.ar  473  TYR473     -0.0201
     47  CD1       31.1600   37.6790   83.2470 C.ar  473  TYR473     -0.0009
     48  CD2       31.2790   35.5500   84.3830 C.ar  473  TYR473     -0.0009
     49  CE1       32.5390   37.7780   83.3110 C.ar  473  TYR473      0.0417
     50  CE2       32.6830   35.6600   84.4690 C.ar  473  TYR473      0.0417
     51  CZ        33.2760   36.7710   83.9310 C.ar  473  TYR473      0.1957
     52  OH        34.6670   36.8790   84.0040 O.3   473  TYR473     -0.2866
     53  N         34.4010   31.1950   85.1370 N.3   476  PHE476     -0.1241
     54  CA        35.4080   31.6600   86.0870 C.3   476  PHE476      0.1605
     55  C         34.9980   31.6040   87.5370 C.2   476  PHE476      0.2264
     56  O         35.5540   32.2920   88.3810 O.2   476  PHE476     -0.2867
     57  CB        36.0190   33.0380   85.6530 C.3   476  PHE476      0.0534
     58  CG        36.6970   32.9480   84.3230 C.ar  476  PHE476     -0.0203
     59  CD1       35.9810   33.1250   83.1300 C.ar  476  PHE476     -0.0042
     60  CD2       38.0290   32.5580   84.2420 C.ar  476  PHE476     -0.0042
     61  CE1       36.5630   32.9090   81.9130 C.ar  476  PHE476     -0.0003
     62  CE2       38.6410   32.4040   83.0090 C.ar  476  PHE476     -0.0003
     63  CZ        37.9110   32.5530   81.8480 C.ar  476  PHE476     -0.0000
     64  N         32.5570   32.7680   88.8730 N.3   478  ILE478     -0.1245
     65  CA        31.9980   34.0610   89.3260 C.3   478  ILE478      0.1561
     66  C         30.4650   33.9010   89.4850 C.2   478  ILE478      0.2260
     67  O         29.7830   33.4320   88.5700 O.2   478  ILE478     -0.2867
     68  CB        32.3970   35.2100   88.3930 C.3   478  ILE478      0.0252
     69  CG1       33.9340   35.3920   88.4270 C.3   478  ILE478      0.0019
     70  CG2       31.6470   36.5180   88.8040 C.3   478  ILE478      0.0019
     71  CD1       34.4680   35.9410   89.6890 C.3   478  ILE478      0.0001
     72  N         33.2140   41.0990   79.2100 N.3   554  SER554     -0.1202
     73  CA        34.3920   40.2370   79.3520 C.3   554  SER554      0.2020
     74  C         34.0510   38.8150   78.8680 C.2   554  SER554      0.2618
     75  O         33.7140   38.6440   77.6880 O.2   554  SER554     -0.2717
     76  CB        34.9330   40.3190   80.7590 C.3   554  SER554      0.2103
     77  OG        36.2680   39.8080   80.7270 O.3   554  SER554     -0.2182
     78  N         34.1010   37.8180   79.7470 N.am  555  ASN555     -0.1974
     79  CA        33.5590   36.5020   79.4050 C.3   555  ASN555      0.1688
     80  C         32.0470   36.5720   79.0780 C.2   555  ASN555      0.2292
     81  O         31.5560   35.7620   78.2730 O.2   555  ASN555     -0.2864
     82  CB        33.8500   35.5440   80.5740 C.3   555  ASN555      0.1181
     83  CG        33.1950   34.1850   80.3900 C.2   555  ASN555      0.2629
     84  OD1       33.5830   33.3790   79.5350 O.2   555  ASN555     -0.2716
     85  ND2       32.2300   33.9090   81.2460 N.am  555  ASN555     -0.0877
     86  N         35.9360   38.8970   74.9030 N.3   580  VAL580     -0.1245
     87  CA        36.9740   38.0720   74.2460 C.3   580  VAL580      0.1561
     88  C         36.3010   37.4350   73.0310 C.2   580  VAL580      0.2260
     89  O         35.3370   36.6610   73.1520 O.2   580  VAL580     -0.2867
     90  CB        37.5110   37.0360   75.1920 C.3   580  VAL580      0.0252
     91  CG1       38.7350   36.2980   74.6230 C.3   580  VAL580      0.0019
     92  CG2       37.8120   37.6170   76.4720 C.3   580  VAL580      0.0019
     93  N         47.4750   38.9440   79.8610 N.3   591  ILE591     -0.1245
     94  CA        47.2350   37.8860   80.8390 C.3   591  ILE591      0.1561
     95  C         46.3070   36.7920   80.2750 C.2   591  ILE591      0.2260
     96  O         45.8580   35.9150   81.0240 O.2   591  ILE591     -0.2867
     97  CB        46.6880   38.5210   82.1690 C.3   591  ILE591      0.0252
     98  CG1       46.7410   37.5900   83.3800 C.3   591  ILE591      0.0019
     99  CG2       45.2170   39.0220   82.0030 C.3   591  ILE591      0.0019
    100  CD1       48.1170   36.9490   83.6710 C.3   591  ILE591      0.0001
    101  N         46.1390   33.0010   81.1820 N.3   594  ALA594     -0.1231
    102  CA        45.5300   32.5000   82.4040 C.3   594  ALA594      0.1694
    103  C         44.1400   31.9400   82.1670 C.2   594  ALA594      0.2592
    104  O         43.6350   31.2140   83.0190 O.2   594  ALA594     -0.2718
    105  CB        45.5200   33.6090   83.4910 C.3   594  ALA594      0.0304
    106  N         43.5010   32.3010   81.0640 N.am  595  TRP595     -0.1976
    107  CA        42.0970   31.9100   80.8680 C.3   595  TRP595      0.1640
    108  C         41.9260   30.5260   80.2790 C.2   595  TRP595      0.2290
    109  O         40.7970   30.0240   80.1600 O.2   595  TRP595     -0.2864
    110  CB        41.3520   32.9070   79.9600 C.3   595  TRP595      0.0576
    111  CG        41.5740   34.3570   80.3470 C.ar  595  TRP595      0.0006
    112  CD1       41.8440   34.8670   81.6050 C.ar  595  TRP595      0.0946
    113  CD2       41.5770   35.4790   79.4420 C.ar  595  TRP595      0.0152
    114  NE1       42.0160   36.2450   81.5200 N.ar  595  TRP595     -0.2442
    115  CE2       41.8810   36.6350   80.2120 C.ar  595  TRP595      0.0810
    116  CE3       41.3900   35.6100   78.0560 C.ar  595  TRP595      0.0012
    117  CZ2       42.0270   37.8990   79.6370 C.ar  595  TRP595      0.0191
    118  CZ3       41.4780   36.8870   77.4840 C.ar  595  TRP595      0.0001
    119  CH2       41.8200   38.0020   78.2780 C.ar  595  TRP595      0.0015
    120  N         38.7610   27.9280   79.1030 N.3   599  TYR599     -0.1241
    121  CA        38.4840   27.7840   77.6650 C.3   599  TYR599      0.1605
    122  C         39.2020   26.6620   76.9350 C.2   599  TYR599      0.2264
    123  O         38.6820   26.1830   75.9100 O.2   599  TYR599     -0.2867
    124  CB        38.8450   29.0990   76.9610 C.3   599  TYR599      0.0534
    125  CG        38.1190   30.3350   77.4490 C.ar  599  TYR599     -0.0201
    126  CD1       36.7520   30.3100   77.7690 C.ar  599  TYR599     -0.0009
    127  CD2       38.7930   31.5390   77.5460 C.ar  599  TYR599     -0.0009
    128  CE1       36.0640   31.4770   78.1570 C.ar  599  TYR599      0.0417
    129  CE2       38.1190   32.7310   77.9070 C.ar  599  TYR599      0.0417
    130  CZ        36.7720   32.6760   78.2240 C.ar  599  TYR599      0.1957
    131  OH        36.0850   33.8150   78.5900 O.3   599  TYR599     -0.2866
    132  N         43.3700   44.0780   79.9210 N.3   643  ARG643     -0.1231
    133  CA        42.8450   42.7880   80.3590 C.3   643  ARG643      0.1694
    134  C         42.3900   41.9670   79.1420 C.2   643  ARG643      0.2591
    135  O         42.9320   40.8690   78.9150 O.2   643  ARG643     -0.2718
    136  CB        41.7380   42.9350   81.3910 C.3   643  ARG643      0.0321
    137  CG        41.2470   41.6030   81.9670 C.3   643  ARG643      0.0489
    138  CD        42.2200   40.9780   82.9570 C.3   643  ARG643      0.2205
    139  NE        42.4370   41.8710   84.0900 N.pl3 643  ARG643     -0.0865
    140  CZ        41.6280   41.9650   85.1230 C.cat 643  ARG643      0.5346
    141  NH1       40.5810   41.1340   85.2380 N.pl3 643  ARG643      0.1354
    142  NH2       41.8690   42.8830   86.0600 N.pl3 643  ARG643      0.1354
    143  N         41.4800   42.5390   78.3510 N.am  644  VAL644     -0.1980
    144  CA        41.0380   41.9490   77.0730 C.3   644  VAL644      0.1595
    145  C         41.4620   42.9540   76.0040 C.2   644  VAL644      0.2287
    146  O         40.7930   43.9490   75.7610 O.2   644  VAL644     -0.2864
    147  CB        39.4810   41.7090   77.0560 C.3   644  VAL644      0.0276
    148  CG1       39.0200   41.1880   75.6970 C.3   644  VAL644      0.0022
    149  CG2       39.0500   40.6990   78.1580 C.3   644  VAL644      0.0022
    150  N         39.5970   48.0050   81.0910 N.3   680  HIS680     -0.1241
    151  CA        38.6010   46.9450   81.2020 C.3   680  HIS680      0.1621
    152  C         37.3370   47.3130   81.9990 C.2   680  HIS680      0.2264
    153  O         36.2680   46.7690   81.7390 O.2   680  HIS680     -0.2867
    154  CB        39.2950   45.7050   81.7890 C.3   680  HIS680      0.0745
    155  CG        38.5290   44.4380   81.5600 C.ar  680  HIS680      0.0817
    156  ND1       38.2000   43.9790   80.3020 N.ar  680  HIS680     -0.2268
    157  CD2       38.0750   43.5120   82.4390 C.ar  680  HIS680      0.1154
    158  CE1       37.5520   42.8220   80.4170 C.ar  680  HIS680      0.1986
    159  NE2       37.4830   42.5120   81.6960 N.ar  680  HIS680     -0.2212
@<TRIPOS>BOND
     1    88    89    2
     2    88    87    1
     3    87    86    1
     4    87    90    1
     5    91    90    1
     6    90    92    1
     7   148   147    1
     8   146   145    2
     9   123   122    2
    10   145   144    1
    11   122   121    1
    12   124   125    1
    13   124   121    1
    14   147   144    1
    15   147   149    1
    16   144   143    1
    17   125   127   ar
    18   125   126   ar
    19   118   116   ar
    20   118   119   ar
    21   127   129   ar
    22   121   120    1
    23    75    74    2
    24   126   128   ar
    25   129   130   ar
    26   116   113   ar
    27   128   130   ar
    28   130   131    1
    29    81    80    2
    30   119   117   ar
    31   143   134   am
    32    74    73    1
    33    74    78   am
    34   135   134    2
    35    80    79    1
    36   134   133    1
    37    72    73    1
    38    73    76    1
    39    79    78    1
    40    79    82    1
    41   113   115   ar
    42   113   111   ar
    43    84    83    2
    44   117   115   ar
    45    93    94    1
    46   132   133    1
    47   110   111    1
    48   110   107    1
    49   109   108    2
    50   115   114   ar
    51    95    94    1
    52    95    96    2
    53   108   107    1
    54   156   158   ar
    55   156   155   ar
    56   111   112   ar
    57   133   136    1
    58    83    82    1
    59    83    85   am
    60   158   159   ar
    61    77    76    1
    62    94    97    1
    63   107   106    1
    64    44    43    2
    65   106   103   am
    66   150   151    1
    67   101   102    1
    68   151   154    1
    69   151   152    1
    70   136   137    1
    71   114   112   ar
    72   155   154    1
    73   155   157   ar
    74   159   157   ar
    75   153   152    2
    76    63    61   ar
    77    63    62   ar
    78    61    59   ar
    79   137   138    1
    80    99    97    1
    81    43    42    1
    82   103   102    1
    83   103   104    2
    84    97    98    1
    85   102   105    1
    86    42    41    1
    87    42    45    1
    88   138   139    1
    89    62    60   ar
    90    59    58   ar
    91    47    49   ar
    92    47    46   ar
    93    49    51   ar
    94    98   100    1
    95    45    46    1
    96    46    48   ar
    97    51    52    1
    98    51    50   ar
    99   139   140    2
   100    60    58   ar
   101    58    57    1
   102    48    50   ar
   103    11    10   ar
   104    11     9   ar
   105    10     8   ar
   106   140   141    1
   107   140   142    1
   108    53    54    1
   109    40    39    1
   110    32    31    1
   111    32    33    1
   112    57    54    1
   113    39    36    1
   114     9     7   ar
   115    35    33   am
   116    35    36    1
   117    54    55    1
   118     8     6   ar
   119    33    34    2
   120    36    37    1
   121     7     6   ar
   122     6     5    1
   123    18    19    1
   124    18    17    1
   125    55    56    2
   126    37    38    2
   127    17    16    1
   128    68    69    1
   129    68    70    1
   130    68    65    1
   131    69    71    1
   132    67    66    2
   133     5     2    1
   134    64    65    1
   135     1     2    1
   136    23    22    2
   137    65    66    1
   138    12    13    1
   139    22    21    1
   140     2     3    1
   141    16    13    1
   142    13    14    1
   143    24    21    1
   144    24    25    1
   145     3     4    2
   146    21    20    1
   147    14    15    2
   148    25    26    1
   149    26    27    1
   150    27    28    2
   151    29    28    1
   152    28    30    1
