@<TRIPOS>MOLECULE
tmp/2xdxA00.pdb
 112 102 0 0 0
SMALL
GASTEIGER

@<TRIPOS>ATOM
      1  N         -0.0340   -1.6160   14.1240 N.3    38  LEU38      -0.1245
      2  CA         1.3050   -2.0410   14.4770 C.3    38  LEU38       0.1561
      3  C          1.3600   -3.5470   14.3850 C.2    38  LEU38       0.2260
      4  O          2.2450   -4.0850   13.7630 O.2    38  LEU38      -0.2867
      5  CB         1.6490   -1.5240   15.8640 C.3    38  LEU38       0.0270
      6  CG         1.9590   -0.0320   15.8530 C.3    38  LEU38       0.0019
      7  CD1        2.4270    0.4280   17.2100 C.3    38  LEU38       0.0001
      8  CD2        3.0120    0.2950   14.7700 C.3    38  LEU38       0.0001
      9  N          1.5060   -4.4190   10.5050 N.3    41  ASN41      -0.1225
     10  CA         2.8400   -4.2750    9.9680 C.3    41  ASN41       0.1785
     11  C          3.6330   -5.5100   10.3040 C.2    41  ASN41       0.2597
     12  O          4.1910   -6.1190    9.4060 O.2    41  ASN41      -0.2718
     13  CB         3.5230   -3.0170   10.5070 C.3    41  ASN41       0.1169
     14  CG         2.9650   -1.7530    9.8940 C.2    41  ASN41       0.2627
     15  OD1        2.2060   -1.8070    8.9450 O.2    41  ASN41      -0.2716
     16  ND2        3.2510   -0.6220   10.5070 N.am   41  ASN41      -0.0877
     17  N          3.6940   -5.8900   11.5810 N.am   42  SER42      -0.1952
     18  CA         4.4220   -7.1090   11.9540 C.3    42  SER42       0.1924
     19  C          3.9310   -8.3240   11.1570 C.2    42  SER42       0.2314
     20  O          4.7450   -9.0670   10.6260 O.2    42  SER42      -0.2863
     21  CB         4.2980   -7.4180   13.4510 C.3    42  SER42       0.2116
     22  OG         4.4770   -6.2530   14.2200 O.3    42  SER42      -0.2180
     23  N          5.2690   -8.3640    8.0720 N.3    45  ALA45      -0.1245
     24  CA         6.7060   -8.5750    8.1770 C.3    45  ALA45       0.1562
     25  C          7.0740  -10.0380    8.3870 C.2    45  ALA45       0.2260
     26  O          8.1310  -10.4960    7.9600 O.2    45  ALA45      -0.2867
     27  CB         7.2900   -7.7500    9.2520 C.3    45  ALA45       0.0290
     28  N          6.4940  -11.7380    4.7150 N.3    48  LYS48      -0.1245
     29  CA         7.6440  -11.5190    3.8800 C.3    48  LYS48       0.1561
     30  C          8.7120  -12.5470    4.2930 C.2    48  LYS48       0.2260
     31  O          9.1220  -13.3600    3.4570 O.2    48  LYS48      -0.2867
     32  CB         8.1590  -10.0950    4.0750 C.3    48  LYS48       0.0271
     33  CG         7.2010   -9.0440    3.5330 C.3    48  LYS48       0.0035
     34  CD         7.5580   -7.6590    4.0250 C.3    48  LYS48       0.0206
     35  CE         7.2610   -6.6180    2.9490 C.3    48  LYS48       0.1093
     36  NZ         5.9060   -6.0050    2.9360 N.3    48  LYS48      -0.1314
     37  N          8.2460   -7.9900   16.9350 N.3    83  ASP83      -0.1239
     38  CA         7.9970   -9.0700   16.0440 C.3    83  ASP83       0.1674
     39  C          9.2880   -9.6120   15.4990 C.2    83  ASP83       0.2266
     40  O         10.2650   -8.8750   15.3720 O.2    83  ASP83      -0.2867
     41  CB         7.0440   -8.6700   14.9140 C.3    83  ASP83       0.1410
     42  CG         7.6290   -7.6620   13.9880 C.2    83  ASP83       0.3668
     43  OD1        8.7130   -7.8970   13.4220 O.co2  83  ASP83      -0.2456
     44  OD2        6.9360   -6.6620   13.7520 O.co2  83  ASP83      -0.2456
     45  N         10.4770   -9.6690    9.0470 N.3    86  ILE86      -0.1231
     46  CA        11.6300   -9.4960    8.1810 C.3    86  ILE86       0.1692
     47  C         12.5690   -8.3450    8.5420 C.2    86  ILE86       0.2593
     48  O         13.7440   -8.3740    8.2390 O.2    86  ILE86      -0.2718
     49  CB        11.1720   -9.4790    6.7150 C.3    86  ILE86       0.0266
     50  CG1       12.3100   -9.8830    5.7560 C.3    86  ILE86       0.0019
     51  CG2       10.4560   -8.1860    6.3910 C.3    86  ILE86       0.0020
     52  CD1       11.8810   -9.8700    4.3130 C.3    86  ILE86       0.0001
     53  N         12.0540   -7.3230    9.1950 N.am   87  GLY87      -0.1942
     54  CA        12.8990   -6.1920    9.5320 C.3    87  GLY87       0.2014
     55  C         13.0670   -5.2460    8.3670 C.2    87  GLY87       0.2638
     56  O         12.5490   -5.4570    7.2560 O.2    87  GLY87      -0.2714
     57  N         13.7440   -4.1460    8.6260 N.am   88  MET88      -0.1976
     58  CA        14.0040   -3.2440    7.5360 C.3    88  MET88       0.1605
     59  C         15.4760   -2.9970    7.4260 C.2    88  MET88       0.2287
     60  O         16.2110   -3.0170    8.4350 O.2    88  MET88      -0.2864
     61  CB        13.2310   -1.9300    7.6450 C.3    88  MET88       0.0413
     62  CG        11.9340   -2.0630    8.4200 C.3    88  MET88       0.0598
     63  SD        11.1840   -0.4630    8.8210 S.3    88  MET88      -0.1393
     64  CE        10.3490   -0.8430   10.3610 C.3    88  MET88       0.0692
     65  N         10.0080    3.5090    4.5790 N.3    96  ASN96      -0.1225
     66  CA         8.8730    3.1940    5.4400 C.3    96  ASN96       0.1785
     67  C          8.5300    4.3100    6.4340 C.2    96  ASN96       0.2597
     68  O          7.3590    4.5180    6.7910 O.2    96  ASN96      -0.2718
     69  CB         9.1810    1.9410    6.2710 C.3    96  ASN96       0.1169
     70  CG         8.9040    0.6420    5.5290 C.2    96  ASN96       0.2627
     71  OD1        8.7230    0.6240    4.3040 O.2    96  ASN96      -0.2716
     72  ND2        8.9420   -0.4680    6.2720 N.am   96  ASN96      -0.0877
     73  N          9.5720    4.9490    6.9560 N.am   97  LEU97      -0.1980
     74  CA         9.4250    5.9160    8.0160 C.3    97  LEU97       0.1596
     75  C          9.6720    7.4070    7.7610 C.2    97  LEU97       0.2287
     76  O         10.2930    8.0800    8.5810 O.2    97  LEU97      -0.2864
     77  CB        10.1990    5.4350    9.2390 C.3    97  LEU97       0.0297
     78  CG         9.6520    4.1280    9.8410 C.3    97  LEU97       0.0022
     79  CD1       10.6350    3.4940   10.7890 C.3    97  LEU97       0.0001
     80  CD2        8.3620    4.4120   10.5640 C.3    97  LEU97       0.0001
     81  N          1.2690    3.1780   10.4110 N.3   128  PHE128     -0.1241
     82  CA         2.2460    3.3840   11.4610 C.3   128  PHE128      0.1605
     83  C          2.0680    4.6910   12.2370 C.2   128  PHE128      0.2264
     84  O          2.3940    4.7190   13.3920 O.2   128  PHE128     -0.2867
     85  CB         3.6700    3.3980   10.8830 C.3   128  PHE128      0.0534
     86  CG         4.7190    3.8340   11.8910 C.ar  128  PHE128     -0.0203
     87  CD1        5.3440    2.9020   12.7200 C.ar  128  PHE128     -0.0042
     88  CD2        5.0400    5.1740   12.0550 C.ar  128  PHE128     -0.0042
     89  CE1        6.2540    3.3020   13.6980 C.ar  128  PHE128     -0.0003
     90  CE2        6.0160    5.5590   12.9990 C.ar  128  PHE128     -0.0003
     91  CZ         6.5990    4.6060   13.8270 C.ar  128  PHE128     -0.0000
     92  N         11.7100    2.9620   17.0130 N.3   140  VAL140     -0.1245
     93  CA        11.6030    1.7010   16.2680 C.3   140  VAL140      0.1561
     94  C         13.0040    1.1370   16.2530 C.2   140  VAL140      0.2260
     95  O         13.9250    1.8130   15.8100 O.2   140  VAL140     -0.2867
     96  CB        11.1540    1.8800   14.7600 C.3   140  VAL140      0.0252
     97  CG1       11.0740    0.5260   14.0840 C.3   140  VAL140      0.0019
     98  CG2        9.8990    2.7480   14.6180 C.3   140  VAL140      0.0019
     99  N         11.2340   -6.2660   13.9300 N.3   174  THR174     -0.1218
    100  CA        11.0520   -4.8540   14.2670 C.3   174  THR174      0.1862
    101  C         10.4640   -4.7220   15.6780 C.2   174  THR174      0.2287
    102  O          9.7160   -5.5710   16.1260 O.2   174  THR174     -0.2866
    103  CB        10.3120   -4.0710   13.1610 C.3   174  THR174      0.1770
    104  OG1       11.0210   -4.2340   11.9390 O.3   174  THR174     -0.2211
    105  CG2       10.2410   -2.5700   13.4430 C.3   174  THR174      0.0375
    106  N          8.6640   -1.7520   18.0540 N.3   176  VAL176     -0.1245
    107  CA         8.0830   -0.4100   18.1060 C.3   176  VAL176      0.1561
    108  C          7.9370   -0.1460   19.5840 C.2   176  VAL176      0.2260
    109  O          7.3010   -0.9260   20.3040 O.2   176  VAL176     -0.2867
    110  CB         6.7170   -0.2860   17.3540 C.3   176  VAL176      0.0252
    111  CG1        6.2350    1.1380   17.3610 C.3   176  VAL176      0.0019
    112  CG2        6.8220   -0.7700   15.9360 C.3   176  VAL176      0.0019
@<TRIPOS>BOND
     1    36    35    1
     2    35    34    1
     3    31    30    2
     4    33    34    1
     5    33    32    1
     6    29    32    1
     7    29    30    1
     8    29    28    1
     9    71    70    2
    10    52    50    1
    11    65    66    1
    12    66    69    1
    13    66    67    1
    14    70    69    1
    15    70    72   am
    16    50    49    1
    17    51    49    1
    18    67    68    2
    19    67    73   am
    20    49    46    1
    21    73    74    1
    22    56    55    2
    23    59    58    1
    24    59    60    2
    25    58    61    1
    26    58    57    1
    27    61    62    1
    28    75    74    1
    29    75    76    2
    30    26    25    2
    31    74    77    1
    32    23    24    1
    33    24    25    1
    34    24    27    1
    35    46    47    1
    36    46    45    1
    37    48    47    2
    38    55    57   am
    39    55    54    1
    40    62    63    1
    41    47    53   am
    42    63    64    1
    43    15    14    2
    44    53    54    1
    45    77    78    1
    46    12    11    2
    47    78    80    1
    48    78    79    1
    49    14    13    1
    50    14    16   am
    51    10    11    1
    52    10     9    1
    53    10    13    1
    54    11    17   am
    55    81    82    1
    56    20    19    2
    57    85    82    1
    58    85    86    1
    59    19    18    1
    60    82    83    1
    61    17    18    1
    62    86    88   ar
    63    86    87   ar
    64   104   103    1
    65    18    21    1
    66    88    90   ar
    67    83    84    2
    68    87    89   ar
    69    90    91   ar
    70   103   105    1
    71   103   100    1
    72    43    42   ar
    73    21    22    1
    74    89    91   ar
    75    44    42   ar
    76     4     3    2
    77    99   100    1
    78    42    41    1
    79    97    96    1
    80     1     2    1
    81   100   101    1
    82     3     2    1
    83     2     5    1
    84    98    96    1
    85    96    93    1
    86     8     6    1
    87    41    38    1
    88    40    39    2
    89    39    38    1
    90   101   102    2
    91    95    94    2
    92     6     5    1
    93     6     7    1
    94   112   110    1
    95    38    37    1
    96    94    93    1
    97    93    92    1
    98   110   111    1
    99   110   107    1
   100   106   107    1
   101   107   108    1
   102   108   109    2
