@<TRIPOS>MOLECULE
tmp/2xe3A00.pdb
 80 77 0 0 0
SMALL
GASTEIGER

@<TRIPOS>ATOM
      1  N        -52.9790  -11.9140    6.0910 N.3    19  GLY19      -0.1210
      2  CA       -53.9270  -11.1850    5.2590 C.3    19  GLY19       0.1956
      3  C        -53.1720  -10.0870    4.5400 C.2    19  GLY19       0.2612
      4  O        -52.8090   -9.0820    5.1480 O.2    19  GLY19      -0.2717
      5  N        -52.9350  -10.2740    3.2460 N.am   20  LEU20      -0.1965
      6  CA       -52.0050   -9.4330    2.5050 C.3    20  LEU20       0.1728
      7  C        -52.6140   -8.9400    1.1990 C.2    20  LEU20       0.2616
      8  O        -53.3420   -9.6720    0.5250 O.2    20  LEU20      -0.2715
      9  CB       -50.7270  -10.2240    2.2250 C.3    20  LEU20       0.0311
     10  CG       -49.5690   -9.4940    1.5370 C.3    20  LEU20       0.0022
     11  CD1      -49.1900   -8.2150    2.2840 C.3    20  LEU20       0.0001
     12  CD2      -48.3680  -10.4220    1.3950 C.3    20  LEU20       0.0001
     13  N        -52.3070   -7.6920    0.8500 N.am   21  HIS21      -0.1973
     14  CA       -52.8040   -7.0830   -0.3810 C.3    21  HIS21       0.1656
     15  C        -51.7810   -6.1470   -1.0160 C.2    21  HIS21       0.2291
     16  O        -51.2660   -5.2400   -0.3650 O.2    21  HIS21      -0.2864
     17  CB       -54.1070   -6.3290   -0.1210 C.3    21  HIS21       0.0771
     18  CG       -54.8310   -5.9660   -1.3690 C.ar   21  HIS21       0.0820
     19  ND1      -55.8560   -6.7280   -1.8810 N.ar   21  HIS21      -0.2267
     20  CD2      -54.6530   -4.9400   -2.2310 C.ar   21  HIS21       0.1154
     21  CE1      -56.2920   -6.1750   -2.9980 C.ar   21  HIS21       0.1986
     22  NE2      -55.5770   -5.0890   -3.2350 N.ar   21  HIS21      -0.2212
     23  N        -50.6650   -3.2900   -3.8630 N.3    23  PHE23      -0.1241
     24  CA       -51.1340   -2.1990   -4.7190 C.3    23  PHE23       0.1605
     25  C        -50.0320   -1.8660   -5.7200 C.2    23  PHE23       0.2264
     26  O        -48.9100   -1.5610   -5.3210 O.2    23  PHE23      -0.2867
     27  CB       -51.4760   -0.9640   -3.8900 C.3    23  PHE23       0.0534
     28  CG       -52.5050   -1.2150   -2.8300 C.ar   23  PHE23      -0.0203
     29  CD1      -53.8530   -1.0420   -3.1000 C.ar   23  PHE23      -0.0042
     30  CD2      -52.1240   -1.6240   -1.5590 C.ar   23  PHE23      -0.0042
     31  CE1      -54.8090   -1.2700   -2.1210 C.ar   23  PHE23      -0.0003
     32  CE2      -53.0700   -1.8520   -0.5750 C.ar   23  PHE23      -0.0003
     33  CZ       -54.4180   -1.6750   -0.8570 C.ar   23  PHE23      -0.0000
     34  N        -50.6480   -6.6330   -8.5890 N.3    30  ASP30      -0.1225
     35  CA       -51.7360   -5.8700   -7.9750 C.3    30  ASP30       0.1805
     36  C        -52.8870   -6.7900   -7.5880 C.2    30  ASP30       0.2598
     37  O        -53.4590   -7.4630   -8.4400 O.2    30  ASP30      -0.2718
     38  CB       -52.2450   -4.8000   -8.9400 C.3    30  ASP30       0.1424
     39  CG       -53.2680   -3.8630   -8.2960 C.2    30  ASP30       0.3668
     40  OD1      -52.9220   -3.1800   -7.3100 O.co2  30  ASP30      -0.2456
     41  OD2      -54.4170   -3.8000   -8.7850 O.co2  30  ASP30      -0.2456
     42  N        -53.2200   -6.8130   -6.3000 N.am   31  GLY31      -0.1942
     43  CA       -54.3850   -7.5480   -5.8220 C.3    31  GLY31       0.2014
     44  C        -54.1700   -8.2880   -4.5180 C.2    31  GLY31       0.2638
     45  O        -53.2710   -7.9710   -3.7480 O.2    31  GLY31      -0.2714
     46  N        -55.0200   -9.2810   -4.2810 N.am   32  ASP32      -0.1971
     47  CA       -54.9830  -10.0780   -3.0610 C.3    32  ASP32       0.1709
     48  C        -53.8020  -11.0460   -3.0730 C.2    32  ASP32       0.2293
     49  O        -53.6470  -11.8430   -3.9970 O.2    32  ASP32      -0.2864
     50  CB       -56.2920  -10.8560   -2.9170 C.3    32  ASP32       0.1436
     51  CG       -56.3360  -11.6920   -1.6670 C.2    32  ASP32       0.3671
     52  OD1      -55.8520  -11.2150   -0.6180 O.co2  32  ASP32      -0.2456
     53  OD2      -56.8610  -12.8250   -1.7350 O.co2  32  ASP32      -0.2456
     54  N        -49.5080   -5.8200   12.1780 N.3   309  THR309     -0.1218
     55  CA       -49.9050   -5.2370   10.8980 C.3   309  THR309      0.1862
     56  C        -48.7350   -4.4360   10.3390 C.2   309  THR309      0.2287
     57  O        -47.8880   -3.9710   11.1020 O.2   309  THR309     -0.2866
     58  CB       -51.1300   -4.3170   11.0510 C.3   309  THR309      0.1770
     59  OG1      -51.5090   -3.8170    9.7690 O.3   309  THR309     -0.2211
     60  CG2      -50.8350   -3.1350   11.9720 C.3   309  THR309      0.0375
     61  N        -49.8210   -4.2290    2.0070 N.3   337  LEU337     -0.1231
     62  CA       -50.5010   -3.9510    3.2740 C.3   337  LEU337      0.1693
     63  C        -50.8020   -5.2970    3.9250 C.2   337  LEU337      0.2593
     64  O        -51.4160   -6.1630    3.3030 O.2   337  LEU337     -0.2718
     65  CB       -51.7900   -3.1700    3.0170 C.3   337  LEU337      0.0284
     66  CG       -52.4180   -2.4020    4.1800 C.3   337  LEU337      0.0019
     67  CD1      -51.6880   -1.0870    4.4430 C.3   337  LEU337      0.0001
     68  CD2      -53.8950   -2.1320    3.9150 C.3   337  LEU337      0.0001
     69  N        -50.3520   -5.4780    5.1650 N.am  338  GLY338     -0.1942
     70  CA       -50.4460   -6.7670    5.8500 C.3   338  GLY338      0.2014
     71  C        -51.1980   -6.7200    7.1710 C.2   338  GLY338      0.2638
     72  O        -51.1450   -5.7260    7.8960 O.2   338  GLY338     -0.2714
     73  N        -51.9010   -7.8110    7.4690 N.am  339  LEU339     -0.1977
     74  CA       -52.5250   -8.0410    8.7690 C.3   339  LEU339      0.1596
     75  C        -52.2960   -9.5130    9.1020 C.2   339  LEU339      0.2287
     76  O        -52.8180  -10.3950    8.4120 O.2   339  LEU339     -0.2864
     77  CB       -54.0210   -7.7280    8.7100 C.3   339  LEU339      0.0297
     78  CG       -54.8230   -7.7670   10.0140 C.3   339  LEU339      0.0022
     79  CD1      -54.3380   -6.7070   10.9980 C.3   339  LEU339      0.0001
     80  CD2      -56.2950   -7.5700    9.7200 C.3   339  LEU339      0.0001
@<TRIPOS>BOND
     1    38    39    1
     2    38    35    1
     3    41    39   ar
     4    34    35    1
     5    37    36    2
     6    39    40   ar
     7    35    36    1
     8    36    42   am
     9    42    43    1
    10    43    44    1
    11    25    26    2
    12    25    24    1
    13    24    27    1
    14    24    23    1
    15    44    46   am
    16    44    45    2
    17    46    47    1
    18    49    48    2
    19    27    28    1
    20    22    21   ar
    21    22    20   ar
    22    29    28   ar
    23    29    31   ar
    24    48    47    1
    25    47    50    1
    26    21    19   ar
    27    50    51    1
    28    28    30   ar
    29    20    18   ar
    30    31    33   ar
    31    19    18   ar
    32    53    51   ar
    33    51    52   ar
    34    30    32   ar
    35    18    17    1
    36    15    14    1
    37    15    16    2
    38    33    32   ar
    39    14    17    1
    40    14    13    1
    41     8     7    2
    42    13     7   am
    43     7     6    1
    44    12    10    1
    45    10     9    1
    46    10    11    1
    47    61    62    1
    48     9     6    1
    49     6     5    1
    50    65    62    1
    51    65    66    1
    52     5     3   am
    53    62    63    1
    54    64    63    2
    55    68    66    1
    56    63    69   am
    57    66    67    1
    58     3     4    2
    59     3     2    1
    60    69    70    1
    61     2     1    1
    62    70    71    1
    63    71    73   am
    64    71    72    2
    65    73    74    1
    66    76    75    2
    67    77    74    1
    68    77    78    1
    69    74    75    1
    70    80    78    1
    71    59    58    1
    72    78    79    1
    73    56    55    1
    74    56    57    2
    75    55    58    1
    76    55    54    1
    77    58    60    1
