@<TRIPOS>MOLECULE
tmp/2xe4A00.pdb
 230 223 0 0 0
SMALL
GASTEIGER

@<TRIPOS>ATOM
      1  N        -14.9440   27.6630   83.3120 N.3   214  THR214     -0.1203
      2  CA       -13.8520   26.6860   83.0630 C.3   214  THR214      0.1994
      3  C        -12.9470   27.1870   81.9380 C.2   214  THR214      0.2618
      4  O        -12.1640   26.4270   81.4010 O.2   214  THR214     -0.2717
      5  CB       -14.3350   25.2160   82.6790 C.3   214  THR214      0.1784
      6  OG1      -14.7970   25.2170   81.2550 O.3   214  THR214     -0.2211
      7  CG2      -15.4380   24.8690   83.6510 C.3   214  THR214      0.0376
      8  N        -13.1180   28.4780   81.5860 N.am  215  LEU215     -0.1965
      9  CA       -12.2620   29.2160   80.6270 C.3   215  LEU215      0.1728
     10  C        -12.4910   28.7100   79.2100 C.2   215  LEU215      0.2616
     11  O        -11.6910   29.0320   78.3040 O.2   215  LEU215     -0.2715
     12  CB       -10.7310   29.1210   80.9590 C.3   215  LEU215      0.0311
     13  CG       -10.3400   29.6530   82.4060 C.3   215  LEU215      0.0022
     14  CD1       -8.8120   29.6540   82.7160 C.3   215  LEU215      0.0001
     15  CD2      -10.9580   31.1070   82.5840 C.3   215  LEU215      0.0001
     16  N        -13.6480   28.0960   78.9680 N.am  216  ARG216     -0.1963
     17  CA       -13.9930   27.6270   77.5880 C.3   216  ARG216      0.1729
     18  C        -14.6160   28.8300   76.8730 C.2   216  ARG216      0.2616
     19  O        -15.5710   29.4480   77.3600 O.2   216  ARG216     -0.2715
     20  CB       -14.9810   26.4910   77.6840 C.3   216  ARG216      0.0348
     21  CG       -15.4260   25.9240   76.2770 C.3   216  ARG216      0.0492
     22  CD       -16.4370   24.7770   76.4140 C.3   216  ARG216      0.2205
     23  NE       -17.6090   25.1970   77.1320 N.pl3 216  ARG216     -0.0865
     24  CZ       -18.6940   25.7400   76.5450 C.cat 216  ARG216      0.5346
     25  NH1      -18.7840   25.7660   75.1990 N.pl3 216  ARG216      0.1354
     26  NH2      -19.7540   26.1520   77.3020 N.pl3 216  ARG216      0.1354
     27  N        -14.1440   29.1540   75.6730 N.am  217  GLU217     -0.1977
     28  CA       -14.7730   30.2430   74.8580 C.3   217  GLU217      0.1602
     29  C        -16.1810   29.7720   74.5010 C.2   217  GLU217      0.2287
     30  O        -16.3700   28.7390   73.8530 O.2   217  GLU217     -0.2864
     31  CB       -13.9140   30.3800   73.5740 C.3   217  GLU217      0.0415
     32  CG       -12.6630   31.0870   73.9380 C.3   217  GLU217      0.1163
     33  CD       -11.4450   30.4390   73.5440 C.2   217  GLU217      0.3649
     34  OE1      -11.2850   29.2290   73.9180 O.co2 217  GLU217     -0.2457
     35  OE2      -10.6270   31.1860   72.9000 O.co2 217  GLU217     -0.2457
     36  N        -20.0130   21.6110   76.0800 N.3   241  PRO241     -0.2102
     37  CA       -18.6330   21.7810   76.5590 C.3   241  PRO241      0.1504
     38  C        -17.5620   21.1270   75.7240 C.2   241  PRO241      0.2575
     39  O        -16.3570   21.4250   75.9170 O.2   241  PRO241     -0.2718
     40  CB       -18.6390   21.1960   78.0210 C.3   241  PRO241      0.0282
     41  CG       -19.9390   20.4480   78.1690 C.3   241  PRO241      0.0208
     42  CD       -20.9180   20.8730   77.0170 C.3   241  PRO241      0.0893
     43  N        -17.9470   20.2290   74.8070 N.am  242  LEU242     -0.1980
     44  CA       -16.9220   19.6750   73.8410 C.3   242  LEU242      0.1596
     45  C        -16.4150   20.7930   72.9380 C.2   242  LEU242      0.2287
     46  O        -15.3190   20.6690   72.3760 O.2   242  LEU242     -0.2864
     47  CB       -17.4870   18.5900   72.9220 C.3   242  LEU242      0.0297
     48  CG       -17.8110   17.2090   73.5390 C.3   242  LEU242      0.0022
     49  CD1      -18.5970   16.3610   72.4220 C.3   242  LEU242      0.0001
     50  CD2      -16.4490   16.5280   73.9830 C.3   242  LEU242      0.0001
     51  N        -15.7370   24.8190   71.4740 N.3   244  SER244     -0.1217
     52  CA       -15.4680   26.1970   71.8220 C.3   244  SER244      0.1889
     53  C        -16.0100   27.0690   70.6980 C.2   244  SER244      0.2288
     54  O        -16.0860   26.6060   69.5150 O.2   244  SER244     -0.2866
     55  CB       -13.9530   26.4610   71.8690 C.3   244  SER244      0.2089
     56  OG       -13.2010   25.6170   72.7550 O.3   244  SER244     -0.2183
     57  N        -16.1790   24.7490   67.4410 N.3   261  GLN261     -0.1245
     58  CA       -15.3450   23.6310   66.9850 C.3   261  GLN261      0.1566
     59  C        -14.9470   22.7990   68.1740 C.2   261  GLN261      0.2260
     60  O        -14.6860   23.3150   69.2990 O.2   261  GLN261     -0.2867
     61  CB       -14.0880   24.1060   66.2290 C.3   261  GLN261      0.0367
     62  CG       -13.3220   25.0320   67.0320 C.3   261  GLN261      0.0905
     63  CD       -12.0290   25.5230   66.3070 C.2   261  GLN261      0.2608
     64  OE1      -11.3780   24.7730   65.4780 O.2   261  GLN261     -0.2717
     65  NE2      -11.6180   26.7790   66.6400 N.am  261  GLN261     -0.0878
     66  N          7.0740   16.5940   70.4780 N.3   487  TYR487     -0.1241
     67  CA         5.8030   17.1860   70.9570 C.3   487  TYR487      0.1605
     68  C          4.7010   16.1040   70.7890 C.2   487  TYR487      0.2264
     69  O          4.4510   15.2990   71.7410 O.2   487  TYR487     -0.2867
     70  CB         5.4740   18.4550   70.1680 C.3   487  TYR487      0.0534
     71  CG         4.1650   19.1880   70.6680 C.ar  487  TYR487     -0.0201
     72  CD1        4.1370   19.9050   71.8970 C.ar  487  TYR487     -0.0009
     73  CD2        2.9620   19.1700   69.8710 C.ar  487  TYR487     -0.0009
     74  CE1        3.0180   20.6610   72.2970 C.ar  487  TYR487      0.0417
     75  CE2        1.8200   19.8780   70.2700 C.ar  487  TYR487      0.0417
     76  CZ         1.8620   20.6220   71.4940 C.ar  487  TYR487      0.1957
     77  OH         0.7390   21.3410   71.8470 O.3   487  TYR487     -0.2866
     78  N         -2.2910   16.6530   68.8710 N.3   490  TYR490     -0.1227
     79  CA        -3.2250   17.6160   68.2660 C.3   490  TYR490      0.1736
     80  C         -3.0240   17.7740   66.7570 C.2   490  TYR490      0.2596
     81  O         -3.6510   18.6770   66.1790 O.2   490  TYR490     -0.2718
     82  CB        -3.1280   19.0410   68.8930 C.3   490  TYR490      0.0548
     83  CG        -3.2020   19.0480   70.4080 C.ar  490  TYR490     -0.0200
     84  CD1       -4.4330   18.7430   71.0770 C.ar  490  TYR490     -0.0009
     85  CD2       -2.0590   19.4410   71.1920 C.ar  490  TYR490     -0.0009
     86  CE1       -4.5140   18.8260   72.4720 C.ar  490  TYR490      0.0417
     87  CE2       -2.1070   19.4860   72.6010 C.ar  490  TYR490      0.0417
     88  CZ        -3.3510   19.2710   73.2380 C.ar  490  TYR490      0.1957
     89  OH        -3.4660   19.3490   74.5990 O.3   490  TYR490     -0.2866
     90  N         -2.1980   16.9250   66.1470 N.am  491  GLY491     -0.1942
     91  CA        -1.8050   17.0940   64.7090 C.3   491  GLY491      0.2014
     92  C         -0.9240   18.3100   64.4780 C.2   491  GLY491      0.2638
     93  O         -0.7560   18.6970   63.3160 O.2   491  GLY491     -0.2714
     94  N         -0.3480   18.8940   65.5490 N.am  492  LEU492     -0.1977
     95  CA         0.6620   19.9980   65.3600 C.3   492  LEU492      0.1596
     96  C          1.9710   19.3280   64.9910 C.2   492  LEU492      0.2287
     97  O          2.5680   18.7100   65.8640 O.2   492  LEU492     -0.2864
     98  CB         0.9270   20.7690   66.7080 C.3   492  LEU492      0.0297
     99  CG         1.7110   22.0420   66.5030 C.3   492  LEU492      0.0022
    100  CD1        0.9290   23.0330   65.5850 C.3   492  LEU492      0.0001
    101  CD2        1.8720   22.6600   67.9150 C.3   492  LEU492      0.0001
    102  N          4.2850   21.0260   77.4700 N.3   568  SER568     -0.1202
    103  CA         2.8070   20.9460   77.3980 C.3   568  SER568      0.2020
    104  C          2.4040   19.5200   77.0130 C.2   568  SER568      0.2618
    105  O          2.6290   18.6070   77.8060 O.2   568  SER568     -0.2717
    106  CB         2.3750   22.0930   76.4410 C.3   568  SER568      0.2103
    107  OG         0.9390   22.1490   76.5310 O.3   568  SER568     -0.2182
    108  N          1.7540   19.2630   75.8700 N.am  569  ALA569     -0.1979
    109  CA         1.5000   17.8780   75.4610 C.3   569  ALA569      0.1597
    110  C          2.8530   17.1740   75.1670 C.2   569  ALA569      0.2287
    111  O          2.9290   15.9240   75.2400 O.2   569  ALA569     -0.2864
    112  CB         0.5710   17.8440   74.2050 C.3   569  ALA569      0.0319
    113  N          1.8340   18.1860   80.8290 N.3   594  PHE594     -0.1241
    114  CA         0.5130   17.5750   81.0580 C.3   594  PHE594      0.1605
    115  C          0.8310   16.1520   81.5560 C.2   594  PHE594      0.2264
    116  O          1.1190   15.2430   80.7550 O.2   594  PHE594     -0.2867
    117  CB        -0.1990   17.5630   79.7190 C.3   594  PHE594      0.0534
    118  CG        -1.5620   16.8170   79.7680 C.ar  594  PHE594     -0.0203
    119  CD1       -2.4250   16.9210   80.9350 C.ar  594  PHE594     -0.0042
    120  CD2       -1.9530   15.9470   78.7120 C.ar  594  PHE594     -0.0042
    121  CE1       -3.6720   16.2400   80.9430 C.ar  594  PHE594     -0.0003
    122  CE2       -3.2530   15.3250   78.7550 C.ar  594  PHE594     -0.0003
    123  CZ        -4.0220   15.4150   79.8700 C.ar  594  PHE594     -0.0000
    124  N         -6.9700   14.7060   85.9120 N.3   600  THR600     -0.1203
    125  CA        -7.3550   15.8800   85.1640 C.3   600  THR600      0.1994
    126  C         -8.4640   15.5090   84.1520 C.2   600  THR600      0.2617
    127  O         -9.4990   16.1860   84.0740 O.2   600  THR600     -0.2717
    128  CB        -6.1680   16.5430   84.4250 C.3   600  THR600      0.1784
    129  OG1       -5.4010   17.2080   85.4510 O.3   600  THR600     -0.2211
    130  CG2       -6.7140   17.5880   83.3220 C.3   600  THR600      0.0376
    131  N         -8.2510   14.4310   83.3670 N.am  601  MET601     -0.1979
    132  CA        -9.2040   14.1360   82.2140 C.3   601  MET601      0.1605
    133  C        -10.5600   13.6080   82.6950 C.2   601  MET601      0.2287
    134  O        -11.5420   13.6960   81.9220 O.2   601  MET601     -0.2864
    135  CB        -8.4890   13.1450   81.1930 C.3   601  MET601      0.0413
    136  CG        -7.4300   13.9180   80.3640 C.3   601  MET601      0.0598
    137  SD        -8.0520   15.4590   79.5350 S.3   601  MET601     -0.1393
    138  CE        -9.5600   14.8100   78.6850 C.3   601  MET601      0.0692
    139  N        -11.8720   21.3560   85.0370 N.3   606  ILE606     -0.1231
    140  CA       -10.5370   21.8770   84.7990 C.3   606  ILE606      0.1678
    141  C        -10.4910   22.3790   83.3460 C.2   606  ILE606      0.2434
    142  O        -10.9040   21.6440   82.4120 O.2   606  ILE606     -0.2733
    143  CB        -9.4410   20.7590   85.0170 C.3   606  ILE606      0.0265
    144  CG1       -9.5420   20.2120   86.4810 C.3   606  ILE606      0.0019
    145  CG2       -7.9630   21.2900   84.7470 C.3   606  ILE606      0.0020
    146  CD1       -8.7530   18.8780   86.7000 C.3   606  ILE606      0.0001
    147  N         -9.8910   23.5780   83.1340 N.am  607  PRO607     -0.2718
    148  CA        -9.8460   24.0960   81.7520 C.3   607  PRO607      0.1535
    149  C         -9.2570   23.0430   80.8030 C.2   607  PRO607      0.2598
    150  O         -8.1750   22.4140   81.0550 O.2   607  PRO607     -0.2715
    151  CB        -8.9380   25.3500   81.8420 C.3   607  PRO607      0.0310
    152  CG        -9.2410   25.8840   83.2700 C.3   607  PRO607      0.0237
    153  CD        -9.2900   24.5350   84.1090 C.3   607  PRO607      0.0939
    154  N         -9.9230   22.9600   79.6360 N.am  608  LEU608     -0.1964
    155  CA        -9.5590   22.1000   78.5070 C.3   608  LEU608      0.1728
    156  C        -10.0380   20.6500   78.6020 C.2   608  LEU608      0.2617
    157  O         -9.9900   19.9340   77.5440 O.2   608  LEU608     -0.2715
    158  CB        -7.9990   22.0870   78.1280 C.3   608  LEU608      0.0311
    159  CG        -7.3060   23.4260   77.8380 C.3   608  LEU608      0.0022
    160  CD1       -5.8040   23.2130   77.3060 C.3   608  LEU608      0.0001
    161  CD2       -8.0580   24.2270   76.8410 C.3   608  LEU608      0.0001
    162  N        -10.3740   20.1560   79.8120 N.am  609  THR609     -0.1937
    163  CA       -10.7510   18.7530   79.8950 C.3   609  THR609      0.2028
    164  C        -11.8270   18.2980   78.8860 C.2   609  THR609      0.2643
    165  O        -11.6150   17.3230   78.1780 O.2   609  THR609     -0.2714
    166  CB       -11.2110   18.3830   81.3410 C.3   609  THR609      0.1808
    167  OG1       -9.9600   18.3550   82.1360 O.3   609  THR609     -0.2208
    168  CG2      -11.8180   16.9410   81.3490 C.3   609  THR609      0.0379
    169  N        -13.0150   18.9690   78.8750 N.am  610  THR610     -0.1936
    170  CA       -14.1270   18.4170   78.1320 C.3   610  THR610      0.2028
    171  C        -13.7670   18.3350   76.6210 C.2   610  THR610      0.2643
    172  O        -14.0070   17.3130   75.9690 O.2   610  THR610     -0.2714
    173  CB       -15.4370   19.2220   78.3700 C.3   610  THR610      0.1808
    174  OG1      -15.2260   20.6360   78.1880 O.3   610  THR610     -0.2208
    175  CG2      -16.0180   18.9400   79.7630 C.3   610  THR610      0.0379
    176  N        -13.0950   19.3870   76.0920 N.am  611  GLY611     -0.1939
    177  CA       -12.7200   19.3700   74.6680 C.3   611  GLY611      0.2014
    178  C        -11.7350   18.1910   74.3950 C.2   611  GLY611      0.2638
    179  O        -11.8010   17.5330   73.2770 O.2   611  GLY611     -0.2714
    180  N        -10.9170   17.7770   75.3870 N.am  612  GLU612     -0.1977
    181  CA        -9.8720   16.7840   75.1010 C.3   612  GLU612      0.1602
    182  C        -10.3900   15.3890   75.2460 C.2   612  GLU612      0.2287
    183  O         -9.6620   14.4340   74.9970 O.2   612  GLU612     -0.2864
    184  CB        -8.6440   17.0400   75.9840 C.3   612  GLU612      0.0415
    185  CG        -7.9270   18.2290   75.3360 C.3   612  GLU612      0.1163
    186  CD        -6.5540   18.4860   75.9390 C.2   612  GLU612      0.3649
    187  OE1       -6.1100   17.7300   76.8590 O.co2 612  GLU612     -0.2457
    188  OE2       -5.9130   19.4260   75.4110 O.co2 612  GLU612     -0.2457
    189  N         -3.7990   26.2880   80.7600 N.3   655  ARG655     -0.1231
    190  CA        -3.7880   25.1250   79.8510 C.3   655  ARG655      0.1694
    191  C         -3.2840   23.8690   80.5570 C.2   655  ARG655      0.2592
    192  O         -3.8600   22.8120   80.4330 O.2   655  ARG655     -0.2718
    193  CB        -2.8710   25.4410   78.6330 C.3   655  ARG655      0.0321
    194  CG        -3.4640   26.6390   77.9000 C.3   655  ARG655      0.0489
    195  CD        -2.4680   27.0360   76.8470 C.3   655  ARG655      0.2205
    196  NE        -2.7790   28.2540   76.1090 N.pl3 655  ARG655     -0.0865
    197  CZ        -2.8530   28.3200   74.7650 C.cat 655  ARG655      0.5346
    198  NH1       -2.6440   27.1670   73.9950 N.pl3 655  ARG655      0.1354
    199  NH2       -3.1090   29.5170   74.1710 N.pl3 655  ARG655      0.1354
    200  N         -2.1520   23.9930   81.2700 N.am  656  VAL656     -0.1966
    201  CA        -1.6680   22.9120   82.1340 C.3   656  VAL656      0.1727
    202  C         -1.6240   23.5130   83.5330 C.2   656  VAL656      0.2616
    203  O         -0.8080   24.4150   83.8190 O.2   656  VAL656     -0.2715
    204  CB        -0.3080   22.3520   81.6750 C.3   656  VAL656      0.0290
    205  CG1        0.2440   21.3170   82.7630 C.3   656  VAL656      0.0023
    206  CG2       -0.3860   21.6850   80.1890 C.3   656  VAL656      0.0023
    207  N         -2.4770   22.9720   84.4400 N.am  657  ALA657     -0.1977
    208  CA        -2.6120   23.5690   85.7860 C.3   657  ALA657      0.1597
    209  C         -1.2470   23.2990   86.5080 C.2   657  ALA657      0.2287
    210  O         -0.6550   22.1950   86.3450 O.2   657  ALA657     -0.2864
    211  CB        -3.7850   22.9430   86.5330 C.3   657  ALA657      0.0319
    212  N         -0.3200   19.9480   88.3440 N.3   660  GLU660     -0.1245
    213  CA         0.0610   18.6450   87.7310 C.3   660  GLU660      0.1567
    214  C          1.6020   18.4040   87.8780 C.2   660  GLU660      0.2260
    215  O          1.9640   17.3750   88.4440 O.2   660  GLU660     -0.2867
    216  CB        -0.3620   18.5520   86.2150 C.3   660  GLU660      0.0388
    217  CG        -1.9140   18.7730   86.0780 C.3   660  GLU660      0.1160
    218  CD        -2.3180   18.2160   84.7140 C.2   660  GLU660      0.3649
    219  OE1       -1.5030   17.4770   84.0730 O.co2 660  GLU660     -0.2457
    220  OE2       -3.4770   18.4760   84.2600 O.co2 660  GLU660     -0.2457
    221  N          1.3290   29.9570   80.7250 N.3   688  HIS688     -0.1241
    222  CA         1.8020   28.7860   79.9970 C.3   688  HIS688      0.1621
    223  C          3.1120   29.0220   79.1790 C.2   688  HIS688      0.2264
    224  O          3.6740   28.0620   78.6710 O.2   688  HIS688     -0.2867
    225  CB         0.6500   28.3230   78.9920 C.3   688  HIS688      0.0745
    226  CG         0.8890   26.9690   78.3920 C.ar  688  HIS688      0.0817
    227  ND1        0.9810   25.8040   79.1560 N.ar  688  HIS688     -0.2268
    228  CD2        1.0720   26.5870   77.0860 C.ar  688  HIS688      0.1154
    229  CE1        1.1450   24.7630   78.3430 C.ar  688  HIS688      0.1986
    230  NE2        1.2240   25.2120   77.0850 N.ar  688  HIS688     -0.2212
@<TRIPOS>BOND
     1    93    92    2
     2    92    91    1
     3    92    94   am
     4    91    90    1
     5    96    95    1
     6    96    97    2
     7    95    94    1
     8    95    98    1
     9    64    63    2
    10   100    99    1
    11    90    80   am
    12    81    80    2
    13    61    58    1
    14    61    62    1
    15    63    65   am
    16    63    62    1
    17    99    98    1
    18    99   101    1
    19    80    79    1
    20    58    57    1
    21    58    59    1
    22    59    60    2
    23    79    78    1
    24    79    82    1
    25    82    83    1
    26    54    53    2
    27    73    75   ar
    28    73    71   ar
    29    70    71    1
    30    70    67    1
    31    75    76   ar
    32    83    84   ar
    33    83    85   ar
    34    66    67    1
    35    71    72   ar
    36    53    52    1
    37    68    67    1
    38    68    69    2
    39    84    86   ar
    40    85    87   ar
    41    51    52    1
    42    76    77    1
    43    76    74   ar
    44    52    55    1
    45    55    56    1
    46    72    74   ar
    47    46    45    2
    48    49    48    1
    49    86    88   ar
    50    87    88   ar
    51    35    33   ar
    52    47    48    1
    53    47    44    1
    54    45    44    1
    55    88    89    1
    56   179   178    2
    57    48    50    1
    58    33    34   ar
    59    33    32    1
    60    31    32    1
    61    31    28    1
    62    44    43    1
    63    30    29    2
    64   198   197    1
    65   199   197    1
    66   112   109    1
    67   178   177    1
    68   178   180   am
    69    29    28    1
    70   177   176    1
    71   197   196    2
    72    43    38   am
    73    28    27    1
    74   183   182    2
    75   181   182    1
    76   181   180    1
    77   181   184    1
    78   110   111    2
    79   110   109    1
    80    25    24    1
    81   185   186    1
    82   185   184    1
    83   188   186   ar
    84   109   108    1
    85    27    18   am
    86    38    39    2
    87    38    37    1
    88   108   104   am
    89   186   187   ar
    90   172   171    2
    91    36    37    1
    92    36    42    1
    93   176   171   am
    94   196   195    1
    95    21    22    1
    96    21    20    1
    97    22    23    1
    98   106   107    1
    99   106   103    1
   100    24    23    2
   101    24    26    1
   102    37    40    1
   103   171   170    1
   104   161   159    1
   105   195   194    1
   106    18    19    2
   107    18    17    1
   108   104   103    1
   109   104   105    2
   110    42    41    1
   111   230   228   ar
   112   230   229   ar
   113   228   226   ar
   114   160   159    1
   115   103   102    1
   116   157   156    2
   117    17    20    1
   118    17    16    1
   119   159   158    1
   120   194   193    1
   121    40    41    1
   122   158   155    1
   123   170   173    1
   124   170   169    1
   125   165   164    2
   126   174   173    1
   127    11    10    2
   128   229   227   ar
   129   173   175    1
   130   226   225    1
   131   226   227   ar
   132   155   156    1
   133   155   154    1
   134   156   162   am
   135   193   190    1
   136   224   223    2
   137   138   137    1
   138   120   122   ar
   139   120   118   ar
   140   122   123   ar
   141   169   164   am
   142   164   163    1
   143    16    10   am
   144   225   222    1
   145   223   222    1
   146    10     9    1
   147   137   136    1
   148   154   149   am
   149   117   118    1
   150   117   114    1
   151   118   119   ar
   152   162   163    1
   153   190   191    1
   154   190   189    1
   155   123   121   ar
   156   163   166    1
   157   222   221    1
   158   206   204    1
   159   136   135    1
   160   192   191    2
   161   191   200   am
   162     9    12    1
   163     9     8    1
   164   116   115    2
   165   149   150    2
   166   149   148    1
   167   113   114    1
   168   119   121   ar
   169    12    13    1
   170   114   115    1
   171   135   132    1
   172     6     5    1
   173   200   201    1
   174   166   168    1
   175   166   167    1
   176     4     3    2
   177     8     3   am
   178   204   201    1
   179   204   205    1
   180   148   151    1
   181   148   147    1
   182   151   152    1
   183   134   133    2
   184     3     2    1
   185   201   202    1
   186   132   133    1
   187   132   131    1
   188    13    15    1
   189    13    14    1
   190   142   141    2
   191     5     2    1
   192     5     7    1
   193     2     1    1
   194   147   141   am
   195   147   153    1
   196   152   153    1
   197   130   128    1
   198   141   140    1
   199   131   126   am
   200   202   203    2
   201   202   207   am
   202   219   218   ar
   203   127   126    2
   204   126   125    1
   205   220   218   ar
   206   128   125    1
   207   128   129    1
   208   207   208    1
   209   218   217    1
   210   145   143    1
   211   140   143    1
   212   140   139    1
   213   143   144    1
   214   125   124    1
   215   208   209    1
   216   208   211    1
   217   217   216    1
   218   216   213    1
   219   210   209    2
   220   144   146    1
   221   213   214    1
   222   213   212    1
   223   214   215    2
