@<TRIPOS>MOLECULE
tmp/2xe5B02.pdb
 76 73 0 0 0
SMALL
GASTEIGER

@<TRIPOS>ATOM
      1  N         -6.3560   27.0310   -7.0830 N.3    88  PHE88      -0.1241
      2  CA        -6.7500   26.5880   -5.7570 C.3    88  PHE88       0.1605
      3  C         -6.7110   25.0640   -5.7400 C.2    88  PHE88       0.2264
      4  O         -7.1880   24.4000   -6.6710 O.2    88  PHE88      -0.2867
      5  CB        -8.1630   27.0580   -5.4060 C.3    88  PHE88       0.0534
      6  CG        -8.6950   26.4560   -4.1290 C.ar   88  PHE88      -0.0203
      7  CD1       -8.3980   27.0210   -2.9000 C.ar   88  PHE88      -0.0042
      8  CD2       -9.4720   25.3110   -4.1570 C.ar   88  PHE88      -0.0042
      9  CE1       -8.8720   26.4470   -1.7180 C.ar   88  PHE88      -0.0003
     10  CE2       -9.9470   24.7270   -2.9780 C.ar   88  PHE88      -0.0003
     11  CZ        -9.6550   25.2950   -1.7670 C.ar   88  PHE88      -0.0000
     12  N         -6.8780   21.6120   -2.7270 N.3    90  TYR90      -0.1241
     13  CA        -7.1070   21.1290   -1.3930 C.3    90  TYR90       0.1605
     14  C         -6.7180   19.6600   -1.2970 C.2    90  TYR90       0.2264
     15  O         -6.9750   18.8560   -2.2080 O.2    90  TYR90      -0.2867
     16  CB        -8.5740   21.2950   -1.0040 C.3    90  TYR90       0.0534
     17  CG        -8.8390   20.7580    0.3920 C.ar   90  TYR90      -0.0201
     18  CD1       -8.4900   21.4950    1.5180 C.ar   90  TYR90      -0.0009
     19  CD2       -9.4000   19.5030    0.5750 C.ar   90  TYR90      -0.0009
     20  CE1       -8.7200   21.0010    2.7870 C.ar   90  TYR90       0.0417
     21  CE2       -9.6250   18.9980    1.8310 C.ar   90  TYR90       0.0417
     22  CZ        -9.2720   19.7410    2.9290 C.ar   90  TYR90       0.1957
     23  OH        -9.4930   19.2180    4.1670 O.3    90  TYR90      -0.2866
     24  N         -4.7770   18.5680    4.9420 N.3   127  GLY127     -0.1225
     25  CA        -5.8340   19.5650    4.9850 C.3   127  GLY127      0.1811
     26  C         -5.4170   20.9730    4.6600 C.2   127  GLY127      0.2280
     27  O         -5.8830   21.9030    5.2990 O.2   127  GLY127     -0.2866
     28  N         -5.7160   24.0820    2.2810 N.3   129  ALA129     -0.1245
     29  CA        -6.4150   24.8240    1.2480 C.3   129  ALA129      0.1562
     30  C         -5.4540   25.9110    0.7920 C.2   129  ALA129      0.2260
     31  O         -5.1150   26.8000    1.5710 O.2   129  ALA129     -0.2867
     32  CB        -7.6840   25.4430    1.7980 C.3   129  ALA129      0.0290
     33  N         -4.5140   28.1150    4.1100 N.3   149  TYR149     -0.1227
     34  CA        -5.1590   27.7500    5.3750 C.3   149  TYR149      0.1736
     35  C         -5.0040   26.2410    5.5850 C.2   149  TYR149      0.2595
     36  O         -5.1450   25.4680    4.6460 O.2   149  TYR149     -0.2718
     37  CB        -6.6560   28.0920    5.3500 C.3   149  TYR149      0.0548
     38  CG        -6.9530   29.5310    5.0070 C.ar  149  TYR149     -0.0200
     39  CD1       -7.0810   30.4830    6.0050 C.ar  149  TYR149     -0.0009
     40  CD2       -7.0850   29.9500    3.6760 C.ar  149  TYR149     -0.0009
     41  CE1       -7.3320   31.8040    5.7050 C.ar  149  TYR149      0.0417
     42  CE2       -7.3570   31.2730    3.3680 C.ar  149  TYR149      0.0417
     43  CZ        -7.4650   32.1910    4.3950 C.ar  149  TYR149      0.1957
     44  OH        -7.7120   33.5060    4.1410 O.3   149  TYR149     -0.2866
     45  N         -4.6950   25.8420    6.8150 N.am  150  GLN150     -0.1965
     46  CA        -4.6250   24.4300    7.1840 C.3   150  GLN150      0.1733
     47  C         -5.5870   24.2210    8.2960 C.2   150  GLN150      0.2616
     48  O         -5.4640   24.8570    9.3590 O.2   150  GLN150     -0.2715
     49  CB        -3.2530   24.0100    7.7180 C.3   150  GLN150      0.0408
     50  CG        -3.2380   22.5660    8.2080 C.3   150  GLN150      0.0908
     51  CD        -1.8700   22.0660    8.5770 C.2   150  GLN150      0.2608
     52  OE1       -1.0860   22.7840    9.1530 O.2   150  GLN150     -0.2717
     53  NE2       -1.5760   20.8080    8.2490 N.am  150  GLN150     -0.0878
     54  N         -6.5090   23.2990    8.0760 N.am  151  GLY151     -0.1955
     55  CA        -7.5150   23.0050    9.0780 C.3   151  GLY151      0.1869
     56  C         -6.9480   22.1480   10.1860 C.2   151  GLY151      0.2309
     57  O         -6.0630   21.3370    9.9650 O.2   151  GLY151     -0.2863
     58  N         -5.9930   25.1080   13.6060 N.3   175  ASP175     -0.1225
     59  CA        -6.1690   25.9650   12.4370 C.3   175  ASP175      0.1805
     60  C         -4.9490   26.8640   12.2480 C.2   175  ASP175      0.2598
     61  O         -4.4210   27.4230   13.1920 O.2   175  ASP175     -0.2718
     62  CB        -7.4330   26.8120   12.5900 C.3   175  ASP175      0.1424
     63  CG        -8.7070   25.9840   12.5550 C.2   175  ASP175      0.3668
     64  OD1       -8.6710   24.8330   12.0820 O.co2 175  ASP175     -0.2456
     65  OD2       -9.7610   26.4910   13.0000 O.co2 175  ASP175     -0.2456
     66  N         -4.4970   26.9830   11.0160 N.am  176  GLY176     -0.1942
     67  CA        -3.3120   27.7620   10.7170 C.3   176  GLY176      0.2014
     68  C         -3.4880   28.5380    9.4310 C.2   176  GLY176      0.2638
     69  O         -4.3320   28.2130    8.5940 O.2   176  GLY176     -0.2714
     70  N         -2.6750   29.5660    9.2890 N.am  177  VAL177     -0.1977
     71  CA        -2.7250   30.4410    8.1340 C.3   177  VAL177      0.1596
     72  C         -1.3090   30.7730    7.7850 C.2   177  VAL177      0.2287
     73  O         -0.4820   30.9270    8.6560 O.2   177  VAL177     -0.2864
     74  CB        -3.4560   31.7830    8.4180 C.3   177  VAL177      0.0276
     75  CG1       -3.7630   32.4960    7.1130 C.3   177  VAL177      0.0022
     76  CG2       -4.7220   31.5450    9.1750 C.3   177  VAL177      0.0022
@<TRIPOS>BOND
     1     1     2    1
     2     4     3    2
     3     2     3    1
     4     2     5    1
     5     5     6    1
     6     8     6   ar
     7     8    10   ar
     8     6     7   ar
     9    10    11   ar
    10     7     9   ar
    11    12    13    1
    12    15    14    2
    13    11     9   ar
    14    13    14    1
    15    13    16    1
    16    16    17    1
    17    17    19   ar
    18    17    18   ar
    19    19    21   ar
    20    30    29    1
    21    30    31    2
    22    29    32    1
    23    29    28    1
    24    18    20   ar
    25    21    22   ar
    26    20    22   ar
    27    22    23    1
    28    42    40   ar
    29    42    43   ar
    30    40    38   ar
    31    33    34    1
    32    44    43    1
    33    43    41   ar
    34    36    35    2
    35    26    25    1
    36    26    27    2
    37    24    25    1
    38    38    37    1
    39    38    39   ar
    40    37    34    1
    41    34    35    1
    42    35    45   am
    43    41    39   ar
    44    45    46    1
    45    75    74    1
    46    46    49    1
    47    46    47    1
    48    49    50    1
    49    72    71    1
    50    72    73    2
    51    54    47   am
    52    54    55    1
    53    71    74    1
    54    71    70    1
    55    50    51    1
    56    53    51   am
    57    47    48    2
    58    74    76    1
    59    51    52    2
    60    69    68    2
    61    55    56    1
    62    70    68   am
    63    68    67    1
    64    57    56    2
    65    67    66    1
    66    66    60   am
    67    64    63   ar
    68    60    59    1
    69    60    61    2
    70    59    62    1
    71    59    58    1
    72    63    62    1
    73    63    65   ar
