@<TRIPOS>MOLECULE
tmp/2xe5D02.pdb
 124 122 0 0 0
SMALL
GASTEIGER

@<TRIPOS>ATOM
      1  N        -11.7390  -22.7160   71.0900 N.3    50  LEU50      -0.1245
      2  CA       -12.1200  -22.8600   69.6920 C.3    50  LEU50       0.1561
      3  C        -13.6110  -23.1050   69.5620 C.2    50  LEU50       0.2260
      4  O        -14.1330  -24.0890   70.0630 O.2    50  LEU50      -0.2867
      5  CB       -11.3420  -24.0050   69.0290 C.3    50  LEU50       0.0270
      6  CG       -11.5450  -24.2290   67.5190 C.3    50  LEU50       0.0019
      7  CD1      -11.1170  -23.0260   66.7020 C.3    50  LEU50       0.0001
      8  CD2      -10.7850  -25.4690   67.0580 C.3    50  LEU50       0.0001
      9  N        -14.5230  -20.8620   61.8970 N.3    80  LEU80      -0.1231
     10  CA       -13.8760  -21.2070   63.1580 C.3    80  LEU80       0.1693
     11  C        -13.4280  -19.9170   63.8350 C.2    80  LEU80       0.2592
     12  O        -13.0270  -18.9590   63.1710 O.2    80  LEU80      -0.2718
     13  CB       -12.6520  -22.0780   62.9020 C.3    80  LEU80       0.0284
     14  CG       -12.8320  -23.3990   62.1570 C.3    80  LEU80       0.0019
     15  CD1      -11.4980  -23.9110   61.6850 C.3    80  LEU80       0.0001
     16  CD2      -13.5640  -24.4080   63.0200 C.3    80  LEU80       0.0001
     17  N        -13.4920  -19.9040   65.1560 N.am   81  LYS81      -0.1966
     18  CA       -13.0470  -18.7630   65.9510 C.3    81  LYS81       0.1728
     19  C        -12.1700  -19.2490   67.0860 C.2    81  LYS81       0.2616
     20  O        -12.6010  -20.0670   67.8900 O.2    81  LYS81      -0.2715
     21  CB       -14.2580  -18.0370   66.5180 C.3    81  LYS81       0.0311
     22  CG       -13.9500  -16.7810   67.3010 C.3    81  LYS81       0.0038
     23  CD       -15.2410  -16.0300   67.6280 C.3    81  LYS81       0.0206
     24  CE       -15.0020  -14.5450   67.9090 C.3    81  LYS81       0.1093
     25  NZ       -16.0560  -13.7170   67.2490 N.3    81  LYS81      -0.1314
     26  N        -10.9360  -18.7650   67.1370 N.am   82  PHE82      -0.1974
     27  CA       -10.0270  -19.0950   68.2370 C.3    82  PHE82       0.1639
     28  C         -9.7770  -17.8680   69.1180 C.2    82  PHE82       0.2290
     29  O         -9.5530  -16.7760   68.6190 O.2    82  PHE82      -0.2864
     30  CB        -8.7080  -19.6770   67.7200 C.3    82  PHE82       0.0560
     31  CG        -7.9250  -20.4080   68.7790 C.ar   82  PHE82      -0.0200
     32  CD1       -8.3400  -21.6420   69.2280 C.ar   82  PHE82      -0.0042
     33  CD2       -6.7890  -19.8530   69.3360 C.ar   82  PHE82      -0.0042
     34  CE1       -7.6340  -22.3240   70.2120 C.ar   82  PHE82      -0.0003
     35  CE2       -6.0750  -20.5240   70.3250 C.ar   82  PHE82      -0.0003
     36  CZ        -6.5030  -21.7660   70.7610 C.ar   82  PHE82      -0.0000
     37  N         -7.0820  -14.8200   68.9500 N.3    85  VAL85      -0.1231
     38  CA        -6.3180  -15.0800   67.7200 C.3    85  VAL85       0.1692
     39  C         -7.0910  -14.6290   66.4900 C.2    85  VAL85       0.2593
     40  O         -6.4920  -14.1050   65.5450 O.2    85  VAL85      -0.2718
     41  CB        -5.9230  -16.5630   67.5870 C.3    85  VAL85       0.0266
     42  CG1       -5.3140  -16.8430   66.2030 C.3    85  VAL85       0.0020
     43  CG2       -4.9470  -16.9340   68.6890 C.3    85  VAL85       0.0020
     44  N         -8.4030  -14.8580   66.5150 N.am   86  GLY86      -0.1942
     45  CA        -9.3130  -14.3570   65.5060 C.3    86  GLY86       0.2014
     46  C        -10.2250  -15.4260   64.9580 C.2    86  GLY86       0.2640
     47  O        -10.2450  -16.5440   65.4510 O.2    86  GLY86      -0.2714
     48  N        -10.9720  -15.0730   63.9220 N.am   87  SER87      -0.1935
     49  CA       -11.8820  -16.0010   63.2620 C.3    87  SER87       0.2055
     50  C        -11.6190  -16.0720   61.7600 C.2    87  SER87       0.2643
     51  O        -11.0400  -15.1730   61.1730 O.2    87  SER87      -0.2714
     52  CB       -13.3450  -15.6100   63.5130 C.3    87  SER87       0.2130
     53  OG       -13.6490  -14.3540   62.9380 O.3    87  SER87      -0.2179
     54  N        -12.0350  -17.1760   61.1630 N.am   88  PHE88      -0.1973
     55  CA       -12.0390  -17.3440   59.7250 C.3    88  PHE88       0.1639
     56  C        -13.3710  -17.9760   59.3280 C.2    88  PHE88       0.2290
     57  O        -13.8350  -18.9360   59.9630 O.2    88  PHE88      -0.2864
     58  CB       -10.8940  -18.2510   59.2620 C.3    88  PHE88       0.0560
     59  CG       -10.9760  -18.6180   57.8010 C.ar   88  PHE88      -0.0200
     60  CD1      -10.4660  -17.7720   56.8260 C.ar   88  PHE88      -0.0042
     61  CD2      -11.5850  -19.7940   57.3980 C.ar   88  PHE88      -0.0042
     62  CE1      -10.5840  -18.0950   55.4730 C.ar   88  PHE88      -0.0003
     63  CE2      -11.6980  -20.1280   56.0470 C.ar   88  PHE88      -0.0003
     64  CZ       -11.2010  -19.2780   55.0880 C.ar   88  PHE88      -0.0000
     65  N        -10.8590  -13.2810   57.2340 N.3   131  TYR131     -0.1227
     66  CA       -10.1560  -13.3690   58.4980 C.3   131  TYR131      0.1736
     67  C        -10.4820  -12.1420   59.3040 C.2   131  TYR131      0.2595
     68  O        -10.4890  -11.0430   58.7710 O.2   131  TYR131     -0.2718
     69  CB        -8.6470  -13.4170   58.2720 C.3   131  TYR131      0.0548
     70  CG        -8.2200  -14.5430   57.3830 C.ar  131  TYR131     -0.0200
     71  CD1       -7.7940  -15.7390   57.9280 C.ar  131  TYR131     -0.0009
     72  CD2       -8.2330  -14.4130   55.9990 C.ar  131  TYR131     -0.0009
     73  CE1       -7.3640  -16.7900   57.1040 C.ar  131  TYR131      0.0417
     74  CE2       -7.8310  -15.4420   55.1790 C.ar  131  TYR131      0.0417
     75  CZ        -7.4010  -16.6210   55.7280 C.ar  131  TYR131      0.1957
     76  OH        -7.0060  -17.6230   54.8810 O.3   131  TYR131     -0.2866
     77  N        -10.7420  -12.3290   60.5950 N.am  132  ARG132     -0.1966
     78  CA       -11.0770  -11.2200   61.4890 C.3   132  ARG132      0.1729
     79  C        -10.3030  -11.3640   62.7780 C.2   132  ARG132      0.2616
     80  O        -10.1320  -12.4650   63.2890 O.2   132  ARG132     -0.2715
     81  CB       -12.5760  -11.1590   61.8110 C.3   132  ARG132      0.0348
     82  CG       -13.4920  -10.9540   60.5840 C.3   132  ARG132      0.0492
     83  CD       -14.9740  -10.7430   60.9460 C.3   132  ARG132      0.2205
     84  NE       -15.7490  -10.3280   59.7710 N.pl3 132  ARG132     -0.0865
     85  CZ       -15.8130   -9.0900   59.2970 C.cat 132  ARG132      0.5346
     86  NH1      -15.1670   -8.1000   59.8950 N.pl3 132  ARG132      0.1354
     87  NH2      -16.5230   -8.8270   58.2170 N.pl3 132  ARG132      0.1354
     88  N         -9.8520  -10.2290   63.2990 N.am  133  ASN133     -0.1972
     89  CA        -9.1880  -10.1550   64.5900 C.3   133  ASN133      0.1688
     90  C         -9.8480   -9.0780   65.4310 C.2   133  ASN133      0.2292
     91  O         -9.9660   -7.9360   65.0030 O.2   133  ASN133     -0.2864
     92  CB        -7.7100   -9.8370   64.4340 C.3   133  ASN133      0.1181
     93  CG        -6.9650   -9.9330   65.7510 C.2   133  ASN133      0.2629
     94  OD1       -7.4200   -9.4230   66.7550 O.2   133  ASN133     -0.2716
     95  ND2       -5.8500  -10.5910   65.7550 N.am  133  ASN133     -0.0877
     96  N         -5.6920   -9.2420   68.9920 N.3   137  PHE137     -0.1241
     97  CA        -5.1140  -10.3770   69.7290 C.3   137  PHE137      0.1605
     98  C         -5.3490  -10.2820   71.2510 C.2   137  PHE137      0.2264
     99  O         -4.5690  -10.8150   72.0430 O.2   137  PHE137     -0.2867
    100  CB        -3.6040  -10.5020   69.4220 C.3   137  PHE137      0.0534
    101  CG        -3.2880  -10.6330   67.9500 C.ar  137  PHE137     -0.0203
    102  CD1       -3.2420  -11.8800   67.3420 C.ar  137  PHE137     -0.0042
    103  CD2       -3.0500   -9.5070   67.1720 C.ar  137  PHE137     -0.0042
    104  CE1       -2.9720  -11.9970   65.9750 C.ar  137  PHE137     -0.0003
    105  CE2       -2.7750   -9.6190   65.8020 C.ar  137  PHE137     -0.0003
    106  CZ        -2.7280  -10.8600   65.2080 C.ar  137  PHE137     -0.0000
    107  N         -9.9650   -5.6280   63.1530 N.3   145  PHE145     -0.1241
    108  CA        -9.5810   -5.5300   61.7570 C.3   145  PHE145      0.1605
    109  C         -9.8460   -6.8410   61.0310 C.2   145  PHE145      0.2264
    110  O         -9.9900   -7.8890   61.6580 O.2   145  PHE145     -0.2867
    111  CB        -8.1260   -5.0540   61.6000 C.3   145  PHE145      0.0534
    112  CG        -7.0920   -6.1010   61.9180 C.ar  145  PHE145     -0.0203
    113  CD1       -6.5790   -6.2210   63.2070 C.ar  145  PHE145     -0.0042
    114  CD2       -6.6030   -6.9320   60.9240 C.ar  145  PHE145     -0.0042
    115  CE1       -5.6090   -7.1780   63.5080 C.ar  145  PHE145     -0.0003
    116  CE2       -5.6250   -7.8890   61.2070 C.ar  145  PHE145     -0.0003
    117  CZ        -5.1260   -8.0160   62.5020 C.ar  145  PHE145     -0.0000
    118  N         -9.0880   -8.9720   57.0830 N.3   147  VAL147     -0.1245
    119  CA        -8.5410   -9.1740   55.7530 C.3   147  VAL147      0.1561
    120  C         -9.4780  -10.1440   55.0480 C.2   147  VAL147      0.2260
    121  O         -9.8830  -11.1530   55.6170 O.2   147  VAL147     -0.2867
    122  CB        -7.0980   -9.7380   55.7870 C.3   147  VAL147      0.0252
    123  CG1       -6.6180  -10.0540   54.3490 C.3   147  VAL147      0.0019
    124  CG2       -6.1570   -8.7760   56.5060 C.3   147  VAL147      0.0019
@<TRIPOS>BOND
     1   123   122    1
     2    76    75    1
     3   120   121    2
     4   120   119    1
     5    64    62   ar
     6    64    63   ar
     7    74    75   ar
     8    74    72   ar
     9    62    60   ar
    10    75    73   ar
    11   119   122    1
    12   119   118    1
    13   122   124    1
    14    72    70   ar
    15    63    61   ar
    16    60    59   ar
    17    73    71   ar
    18    65    66    1
    19    70    71   ar
    20    70    69    1
    21    61    59   ar
    22    59    58    1
    23    87    85    1
    24    69    66    1
    25    66    67    1
    26    68    67    2
    27    58    55    1
    28    85    84    2
    29    85    86    1
    30    67    77   am
    31    56    55    1
    32    56    57    2
    33    55    54    1
    34    84    83    1
    35    82    83    1
    36    82    81    1
    37    77    78    1
    38   114   116   ar
    39   114   112   ar
    40   109   110    2
    41   109   108    1
    42    54    50   am
    43    51    50    2
    44   116   117   ar
    45    78    81    1
    46    78    79    1
    47   111   108    1
    48   111   112    1
    49    15    14    1
    50   108   107    1
    51    50    49    1
    52     9    10    1
    53   112   113   ar
    54    14    13    1
    55    14    16    1
    56   117   115   ar
    57    79    80    2
    58    79    88   am
    59    13    10    1
    60    53    52    1
    61    10    11    1
    62    12    11    2
    63   113   115   ar
    64    49    52    1
    65    49    48    1
    66    88    89    1
    67    11    17   am
    68    48    46   am
    69    92    89    1
    70    92    93    1
    71    89    90    1
    72    46    47    2
    73    46    45    1
    74    91    90    2
    75    17    18    1
    76   106   105   ar
    77   106   104   ar
    78    45    44    1
    79    40    39    2
    80    93    95   am
    81    93    94    2
    82   105   103   ar
    83    18    21    1
    84    18    19    1
    85   104   102   ar
    86    42    41    1
    87    39    44   am
    88    39    38    1
    89    21    22    1
    90     7     6    1
    91     8     6    1
    92    19    26   am
    93    19    20    2
    94    26    27    1
    95   103   101   ar
    96    25    24    1
    97    22    23    1
    98   102   101   ar
    99     6     5    1
   100    41    38    1
   101    41    43    1
   102    23    24    1
   103    38    37    1
   104    30    27    1
   105    30    31    1
   106   101   100    1
   107    27    28    1
   108    29    28    2
   109    31    32   ar
   110    31    33   ar
   111    96    97    1
   112     5     2    1
   113    32    34   ar
   114    33    35   ar
   115   100    97    1
   116     3     2    1
   117     3     4    2
   118     2     1    1
   119    97    98    1
   120    34    36   ar
   121    35    36   ar
   122    98    99    2
