@<TRIPOS>MOLECULE
tmp/2xe5B00.pdb
 125 118 0 0 0
SMALL
GASTEIGER

@<TRIPOS>ATOM
      1  N         10.2710    6.2860   -8.9280 N.3    16  LYS16      -0.1245
      2  CA        11.6770    5.9310   -8.8830 C.3    16  LYS16       0.1561
      3  C         11.8950    4.8130   -7.9010 C.2    16  LYS16       0.2260
      4  O         11.0790    4.5980   -6.9850 O.2    16  LYS16      -0.2867
      5  CB        12.5530    7.1400   -8.4960 C.3    16  LYS16       0.0271
      6  CG        12.4070    7.6320   -7.0550 C.3    16  LYS16       0.0035
      7  CD        13.3800    8.7960   -6.7800 C.3    16  LYS16       0.0206
      8  CE        13.3590    9.1740   -5.2950 C.3    16  LYS16       0.1093
      9  NZ        14.2070   10.3620   -4.9210 N.3    16  LYS16      -0.1314
     10  N         15.1360    3.7480   -5.5800 N.3    18  GLU18      -0.1245
     11  CA        16.3750    4.2330   -5.0440 C.3    18  GLU18       0.1567
     12  C         16.9710    3.0530   -4.2870 C.2    18  GLU18       0.2260
     13  O         16.4630    2.6500   -3.2570 O.2    18  GLU18      -0.2867
     14  CB        16.1040    5.4730   -4.1780 C.3    18  GLU18       0.0388
     15  CG        17.3360    6.2180   -3.7330 C.3    18  GLU18       0.1160
     16  CD        17.2000    7.7300   -3.7110 C.2    18  GLU18       0.3649
     17  OE1       16.4470    8.3310   -4.5040 O.co2  18  GLU18      -0.2457
     18  OE2       17.8960    8.3500   -2.9010 O.co2  18  GLU18      -0.2457
     19  N         14.1920    2.2580   -1.2200 N.3    35  TYR35      -0.1241
     20  CA        12.7810    2.5730   -1.3020 C.3    35  TYR35       0.1605
     21  C         12.3420    2.9290   -2.7060 C.2    35  TYR35       0.2264
     22  O         13.1520    3.1470   -3.6220 O.2    35  TYR35      -0.2867
     23  CB        12.4400    3.7120   -0.3540 C.3    35  TYR35       0.0534
     24  CG        12.9270    5.0600   -0.8050 C.ar   35  TYR35      -0.0201
     25  CD1       14.2040    5.5110   -0.4810 C.ar   35  TYR35      -0.0009
     26  CD2       12.1070    5.8880   -1.5650 C.ar   35  TYR35      -0.0009
     27  CE1       14.6450    6.7560   -0.9010 C.ar   35  TYR35       0.0417
     28  CE2       12.5290    7.1230   -1.9890 C.ar   35  TYR35       0.0417
     29  CZ        13.7960    7.5580   -1.6620 C.ar   35  TYR35       0.1957
     30  OH        14.1930    8.7980   -2.0870 O.3    35  TYR35      -0.2866
     31  N          9.3080    5.2840   -4.8950 N.3    37  ARG37      -0.1245
     32  CA         8.2750    6.3170   -4.9160 C.3    37  ARG37       0.1563
     33  C          7.5430    6.2540   -6.2130 C.2    37  ARG37       0.2260
     34  O          8.1310    6.0130   -7.2410 O.2    37  ARG37      -0.2867
     35  CB         8.8600    7.7150   -4.8420 C.3    37  ARG37       0.0307
     36  CG         8.6310    8.3700   -3.5840 C.3    37  ARG37       0.0489
     37  CD         9.3480    9.6800   -3.5270 C.3    37  ARG37       0.2205
     38  NE         9.9780    9.8030   -2.2240 N.pl3  37  ARG37      -0.0865
     39  CZ        10.9390   10.6670   -1.9490 C.cat  37  ARG37       0.5346
     40  NH1       11.3500   11.5340   -2.8690 N.pl3  37  ARG37       0.1354
     41  NH2       11.4670   10.6710   -0.7480 N.pl3  37  ARG37       0.1354
     42  N          5.0020    6.7080   -1.0870 N.3    59  GLN59      -0.1245
     43  CA         6.3220    6.1090   -0.8500 C.3    59  GLN59       0.1566
     44  C          6.1750    4.7250   -0.2460 C.2    59  GLN59       0.2260
     45  O          5.3450    4.4880    0.6060 O.2    59  GLN59      -0.2867
     46  CB         7.1960    6.9830    0.0500 C.3    59  GLN59       0.0367
     47  CG         8.5650    6.3550    0.3220 C.3    59  GLN59       0.0905
     48  CD         9.6400    7.3590    0.7250 C.2    59  GLN59       0.2608
     49  OE1        9.6690    8.5030    0.2670 O.2    59  GLN59      -0.2717
     50  NE2       10.5380    6.9200    1.5760 N.am   59  GLN59      -0.0878
     51  N          2.4450   10.7710    0.3960 N.3    74  ARG74      -0.1245
     52  CA         3.1390   12.0410    0.5630 C.3    74  ARG74       0.1563
     53  C          2.2350   13.2520    0.2190 C.2    74  ARG74       0.2260
     54  O          2.0900   14.1920    1.0140 O.2    74  ARG74      -0.2867
     55  CB         4.3750   12.0140   -0.3040 C.3    74  ARG74       0.0307
     56  CG         5.4660   11.2240    0.3390 C.3    74  ARG74       0.0489
     57  CD         6.4960   10.8600   -0.6080 C.3    74  ARG74       0.2205
     58  NE         7.1310   11.9960   -1.2780 N.pl3  74  ARG74      -0.0865
     59  CZ         8.2290   12.6220   -0.8590 C.cat  74  ARG74       0.5346
     60  NH1        8.8430   12.2950    0.2750 N.pl3  74  ARG74       0.1354
     61  NH2        8.7150   13.6100   -1.5870 N.pl3  74  ARG74       0.1354
     62  N          7.3900   25.9360    2.8080 N.3    98  TYR98      -0.1241
     63  CA         8.2450   25.1750    1.8950 C.3    98  TYR98       0.1605
     64  C          8.4240   25.8630    0.4990 C.2    98  TYR98       0.2264
     65  O          9.3440   25.5330   -0.2460 O.2    98  TYR98      -0.2867
     66  CB         7.7050   23.7380    1.7680 C.3    98  TYR98       0.0534
     67  CG         8.6630   22.7440    1.1620 C.ar   98  TYR98      -0.0201
     68  CD1        9.7610   22.2840    1.8800 C.ar   98  TYR98      -0.0009
     69  CD2        8.4700   22.2520   -0.1220 C.ar   98  TYR98      -0.0009
     70  CE1       10.6500   21.3750    1.3310 C.ar   98  TYR98       0.0417
     71  CE2        9.3580   21.3330   -0.6770 C.ar   98  TYR98       0.0417
     72  CZ        10.4460   20.9020    0.0610 C.ar   98  TYR98       0.1957
     73  OH        11.3340   20.0000   -0.4530 O.3    98  TYR98      -0.2866
     74  N         16.6090   22.5040   -0.0610 N.3   105  ASP105     -0.1239
     75  CA        16.2820   21.0710   -0.0220 C.3   105  ASP105      0.1674
     76  C         16.6090   20.3560   -1.3410 C.2   105  ASP105      0.2266
     77  O         15.7360   19.7400   -1.9680 O.2   105  ASP105     -0.2867
     78  CB        14.8020   20.8940    0.3020 C.3   105  ASP105      0.1410
     79  CG        14.4640   19.4790    0.7500 C.2   105  ASP105      0.3668
     80  OD1       15.4150   18.6940    0.9950 O.co2 105  ASP105     -0.2456
     81  OD2       13.2520   19.1540    0.8350 O.co2 105  ASP105     -0.2456
     82  N         19.8030   18.4390   -1.7150 N.3   107  LEU107     -0.1231
     83  CA        20.9710   17.5790   -1.5130 C.3   107  LEU107      0.1678
     84  C         20.6380   16.1840   -2.0470 C.2   107  LEU107      0.2434
     85  O         19.4750   15.8670   -2.2480 O.2   107  LEU107     -0.2733
     86  CB        21.4020   17.5330   -0.0430 C.3   107  LEU107      0.0284
     87  CG        21.5860   18.8490    0.7300 C.3   107  LEU107      0.0019
     88  CD1       22.2990   18.6240    2.0810 C.3   107  LEU107      0.0001
     89  CD2       22.3140   19.8520   -0.0970 C.3   107  LEU107      0.0001
     90  N         21.6530   15.3530   -2.3210 N.am  108  PRO108     -0.2718
     91  CA        21.3660   14.0120   -2.8500 C.3   108  PRO108      0.1535
     92  C         20.4750   13.1550   -1.9560 C.2   108  PRO108      0.2598
     93  O         19.5540   12.5230   -2.4550 O.2   108  PRO108     -0.2715
     94  CB        22.7520   13.3830   -2.9880 C.3   108  PRO108      0.0310
     95  CG        23.6860   14.5490   -3.1370 C.3   108  PRO108      0.0237
     96  CD        23.0930   15.6730   -2.3540 C.3   108  PRO108      0.0939
     97  N         20.7360   13.1400   -0.6550 N.am  109  GLU109     -0.1978
     98  CA        19.9030   12.3730    0.2810 C.3   109  GLU109      0.1602
     99  C         19.5360   13.1180    1.5530 C.2   109  GLU109      0.2287
    100  O         18.3940   13.0250    2.0010 O.2   109  GLU109     -0.2864
    101  CB        20.5520   11.0410    0.6340 C.3   109  GLU109      0.0415
    102  CG        19.8900   10.2720    1.8060 C.3   109  GLU109      0.1163
    103  CD        18.5130    9.7730    1.5020 C.2   109  GLU109      0.3649
    104  OE1       18.0360    9.9550    0.3680 O.co2 109  GLU109     -0.2457
    105  OE2       17.8960    9.1760    2.4060 O.co2 109  GLU109     -0.2457
    106  N          6.1140   21.7670    6.0490 N.3   123  GLN123     -0.1231
    107  CA         6.3410   20.8390    4.9350 C.3   123  GLN123      0.1698
    108  C          5.0430   20.1020    4.5810 C.2   123  GLN123      0.2592
    109  O          3.9790   20.7200    4.5640 O.2   123  GLN123     -0.2718
    110  CB         7.5020   19.8940    5.2530 C.3   123  GLN123      0.0381
    111  CG         8.1680   19.3160    4.0240 C.3   123  GLN123      0.0905
    112  CD         8.3910   17.8350    4.1720 C.2   123  GLN123      0.2608
    113  OE1        7.4530   17.0940    4.5130 O.2   123  GLN123     -0.2717
    114  NE2        9.6170   17.3810    3.9130 N.am  123  GLN123     -0.0878
    115  N          5.1150   18.8120    4.2680 N.am  124  ARG124     -0.1980
    116  CA         3.9070   18.0930    3.8760 C.3   124  ARG124      0.1597
    117  C          2.9900   18.0000    5.0960 C.2   124  ARG124      0.2287
    118  O          3.4480   17.9310    6.2390 O.2   124  ARG124     -0.2864
    119  CB         4.2070   16.6940    3.3150 C.3   124  ARG124      0.0334
    120  CG         4.9470   16.7050    1.9770 C.3   124  ARG124      0.0492
    121  CD         5.1180   15.3000    1.3830 C.3   124  ARG124      0.2205
    122  NE         5.9980   14.5220    2.2160 N.pl3 124  ARG124     -0.0865
    123  CZ         7.3300   14.5930    2.2200 C.cat 124  ARG124      0.5346
    124  NH1        7.9860   15.3620    1.3630 N.pl3 124  ARG124      0.1354
    125  NH2        8.0130   13.8650    3.0860 N.pl3 124  ARG124      0.1354
@<TRIPOS>BOND
     1     1     2    1
     2     2     5    1
     3     2     3    1
     4     5     6    1
     5     3     4    2
     6    34    33    2
     7     6     7    1
     8     7     8    1
     9    33    32    1
    10    10    11    1
    11     8     9    1
    12    11    12    1
    13    11    14    1
    14    32    31    1
    15    32    35    1
    16    35    36    1
    17    17    16   ar
    18    12    13    2
    19    14    15    1
    20    15    16    1
    21    16    18   ar
    22    22    21    2
    23    36    37    1
    24    37    38    1
    25    95    94    1
    26    95    96    1
    27    94    91    1
    28    40    39    1
    29    91    90    1
    30    91    92    1
    31    21    20    1
    32    93    92    2
    33    96    90    1
    34    90    84   am
    35    85    84    2
    36    38    39    2
    37    30    29    1
    38    84    83    1
    39    28    29   ar
    40    28    26   ar
    41    77    76    2
    42    92    97   am
    43    39    41    1
    44    82    83    1
    45    29    27   ar
    46    61    59    1
    47    26    24   ar
    48    83    86    1
    49    76    75    1
    50    20    19    1
    51    20    23    1
    52    58    59    2
    53    58    57    1
    54    42    43    1
    55    27    25   ar
    56    59    60    1
    57    43    44    1
    58    43    46    1
    59    24    25   ar
    60    24    23    1
    61    71    69   ar
    62    71    72   ar
    63    97    98    1
    64    57    56    1
    65    73    72    1
    66    55    56    1
    67    55    52    1
    68    44    45    2
    69    65    64    2
    70    69    67   ar
    71    89    87    1
    72    74    75    1
    73    86    87    1
    74    75    78    1
    75    46    47    1
    76    72    70   ar
    77    53    52    1
    78    53    54    2
    79    49    48    2
    80    98   101    1
    81    98    99    1
    82    78    79    1
    83    47    48    1
    84   104   103   ar
    85    51    52    1
    86    64    63    1
    87   101   102    1
    88    48    50   am
    89    87    88    1
    90    79    81   ar
    91    79    80   ar
    92    67    66    1
    93    67    68   ar
    94    70    68   ar
    95   124   123    1
    96   121   120    1
    97   121   122    1
    98   103   102    1
    99   103   105   ar
   100    99   100    2
   101    66    63    1
   102    63    62    1
   103   120   119    1
   104   122   123    2
   105   123   125    1
   106   119   116    1
   107   116   115    1
   108   116   117    1
   109   114   112   am
   110   111   112    1
   111   111   110    1
   112   112   113    2
   113   115   108   am
   114   109   108    2
   115   108   107    1
   116   107   110    1
   117   107   106    1
   118   117   118    2
