@<TRIPOS>MOLECULE
tmp/2xe5D03.pdb
 73 68 0 0 0
SMALL
GASTEIGER

@<TRIPOS>ATOM
      1  N         -9.0880   -8.9720   57.0830 N.3   147  VAL147     -0.1245
      2  CA        -8.5410   -9.1740   55.7530 C.3   147  VAL147      0.1561
      3  C         -9.4780  -10.1440   55.0480 C.2   147  VAL147      0.2260
      4  O         -9.8830  -11.1530   55.6170 O.2   147  VAL147     -0.2867
      5  CB        -7.0980   -9.7380   55.7870 C.3   147  VAL147      0.0252
      6  CG1       -6.6180  -10.0540   54.3490 C.3   147  VAL147      0.0019
      7  CG2       -6.1570   -8.7760   56.5060 C.3   147  VAL147      0.0019
      8  N         -9.4970   -8.3660   46.9030 N.3   177  VAL177     -0.1231
      9  CA        -8.8740   -8.3400   48.2100 C.3   177  VAL177      0.1692
     10  C         -9.3230   -7.0880   48.8780 C.2   177  VAL177      0.2593
     11  O         -9.4800   -6.0720   48.2390 O.2   177  VAL177     -0.2718
     12  CB        -7.3200   -8.2980   48.1380 C.3   177  VAL177      0.0266
     13  CG1       -6.7210   -8.6000   49.5110 C.3   177  VAL177      0.0020
     14  CG2       -6.8100   -9.2830   47.1360 C.3   177  VAL177      0.0020
     15  N         -9.5080   -7.1640   50.1810 N.am  178  GLY178     -0.1942
     16  CA        -9.9400   -6.0080   50.9430 C.3   178  GLY178      0.2014
     17  C         -9.5680   -6.1150   52.3950 C.2   178  GLY178      0.2639
     18  O         -9.2510   -7.1940   52.9030 O.2   178  GLY178     -0.2714
     19  N         -9.6270   -4.9760   53.0630 N.am  179  GLY179     -0.1954
     20  CA        -9.3350   -4.9150   54.4810 C.3   179  GLY179      0.1869
     21  C        -10.1590   -3.8570   55.1710 C.2   179  GLY179      0.2309
     22  O        -10.6630   -2.9470   54.5340 O.2   179  GLY179     -0.2863
     23  N        -10.8770   -0.6270   52.6150 N.3   194  VAL194     -0.1231
     24  CA       -10.4140   -0.5900   51.2420 C.3   194  VAL194      0.1692
     25  C        -10.6980   -1.9350   50.5810 C.2   194  VAL194      0.2593
     26  O        -10.5860   -2.9750   51.2120 O.2   194  VAL194     -0.2718
     27  CB        -8.8880   -0.3670   51.1660 C.3   194  VAL194      0.0266
     28  CG1       -8.4410   -0.2740   49.6960 C.3   194  VAL194      0.0020
     29  CG2       -8.4850    0.8870   51.9290 C.3   194  VAL194      0.0020
     30  N        -11.0620   -1.9050   49.3090 N.am  195  SER195     -0.1938
     31  CA       -11.1800   -3.1220   48.5290 C.3   195  SER195      0.2055
     32  C        -10.7260   -2.8670   47.1130 C.2   195  SER195      0.2643
     33  O        -10.7530   -1.7350   46.6280 O.2   195  SER195     -0.2714
     34  CB       -12.6100   -3.6230   48.5110 C.3   195  SER195      0.2130
     35  OG       -13.4390   -2.7060   47.8310 O.3   195  SER195     -0.2179
     36  N        -10.3040   -3.9470   46.4750 N.am  196  SER196     -0.1949
     37  CA        -9.7890   -3.9330   45.1190 C.3   196  SER196      0.1924
     38  C        -10.0980   -5.2820   44.4680 C.2   196  SER196      0.2314
     39  O         -9.5490   -6.3180   44.8600 O.2   196  SER196     -0.2863
     40  CB        -8.2800   -3.7000   45.1020 C.3   196  SER196      0.2116
     41  OG        -7.8160   -3.6730   43.7580 O.3   196  SER196     -0.2180
     42  N        -10.0510   -2.9020   37.1960 N.3   214  ARG214     -0.1245
     43  CA       -10.2930   -3.1340   38.6000 C.3   214  ARG214      0.1563
     44  C        -11.4050   -2.2510   39.0910 C.2   214  ARG214      0.2260
     45  O        -11.5820   -1.1320   38.6240 O.2   214  ARG214     -0.2867
     46  CB        -9.0250   -2.8800   39.4390 C.3   214  ARG214      0.0307
     47  CG        -7.8660   -3.8440   39.1490 C.3   214  ARG214      0.0489
     48  CD        -6.7740   -3.8320   40.2100 C.3   214  ARG214      0.2205
     49  NE        -7.1420   -4.6270   41.3840 N.pl3 214  ARG214     -0.0865
     50  CZ        -6.8560   -5.9190   41.5730 C.cat 214  ARG214      0.5346
     51  NH1       -6.1800   -6.6180   40.6740 N.pl3 214  ARG214      0.1354
     52  NH2       -7.2570   -6.5190   42.6850 N.pl3 214  ARG214      0.1354
     53  N        -12.5540   -0.5680   42.5730 N.3   216  GLU216     -0.1245
     54  CA       -11.8420   -0.1720   43.7870 C.3   216  GLU216      0.1567
     55  C        -12.6880    0.7060   44.6820 C.2   216  GLU216      0.2260
     56  O        -13.4550    1.5380   44.1920 O.2   216  GLU216     -0.2867
     57  CB       -10.5690    0.5800   43.4150 C.3   216  GLU216      0.0388
     58  CG        -9.5580   -0.3040   42.7010 C.3   216  GLU216      0.1160
     59  CD        -8.2810    0.4420   42.3230 C.2   216  GLU216      0.3649
     60  OE1       -8.3500    1.6660   42.0420 O.co2 216  GLU216     -0.2457
     61  OE2       -7.2100   -0.2020   42.3080 O.co2 216  GLU216     -0.2457
     62  N        -12.6460    2.9640   48.6160 N.3   218  TYR218     -0.1241
     63  CA       -12.0190    3.5220   49.7970 C.3   218  TYR218      0.1605
     64  C        -13.1050    4.2150   50.6200 C.2   218  TYR218      0.2264
     65  O        -13.8240    5.0810   50.1050 O.2   218  TYR218     -0.2867
     66  CB       -10.9590    4.5380   49.3970 C.3   218  TYR218      0.0534
     67  CG       -10.0080    4.0260   48.3610 C.ar  218  TYR218     -0.0201
     68  CD1       -8.8090    3.4240   48.7260 C.ar  218  TYR218     -0.0009
     69  CD2      -10.3120    4.1270   47.0040 C.ar  218  TYR218     -0.0009
     70  CE1       -7.9340    2.9410   47.7690 C.ar  218  TYR218      0.0417
     71  CE2       -9.4430    3.6440   46.0390 C.ar  218  TYR218      0.0417
     72  CZ        -8.2650    3.0530   46.4240 C.ar  218  TYR218      0.1957
     73  OH        -7.4180    2.5850   45.4530 O.3   218  TYR218     -0.2866
@<TRIPOS>BOND
     1    42    43    1
     2    43    44    1
     3    43    46    1
     4    45    44    2
     5    47    46    1
     6    47    48    1
     7    48    49    1
     8    51    50    1
     9    49    50    2
    10    50    52    1
    11    60    59   ar
    12    61    59   ar
    13    59    58    1
    14    53    54    1
    15    58    57    1
    16    57    54    1
    17    41    40    1
    18    54    55    1
    19    56    55    2
    20    38    39    2
    21    38    37    1
    22    40    37    1
    23    37    36    1
    24    73    72    1
    25    71    72   ar
    26    71    69   ar
    27    72    70   ar
    28    36    32   am
    29    33    32    2
    30     8     9    1
    31    69    67   ar
    32    32    31    1
    33    14    12    1
    34    70    68   ar
    35    35    34    1
    36    12     9    1
    37    12    13    1
    38     9    10    1
    39    11    10    2
    40    67    68   ar
    41    67    66    1
    42    34    31    1
    43    31    30    1
    44    62    63    1
    45    10    15   am
    46    30    25   am
    47    66    63    1
    48    28    27    1
    49    63    64    1
    50    65    64    2
    51    15    16    1
    52    25    26    2
    53    25    24    1
    54    16    17    1
    55    27    24    1
    56    27    29    1
    57    24    23    1
    58    17    18    2
    59    17    19   am
    60    19    20    1
    61     6     5    1
    62    20    21    1
    63    22    21    2
    64     3     4    2
    65     3     2    1
    66     2     5    1
    67     2     1    1
    68     5     7    1
