@<TRIPOS>MOLECULE
tmp/2xe5F02.pdb
 76 73 0 0 0
SMALL
GASTEIGER

@<TRIPOS>ATOM
      1  N        -43.4830  -49.1780   55.8680 N.3    88  PHE88      -0.1241
      2  CA       -43.8710  -48.7450   54.5370 C.3    88  PHE88       0.1605
      3  C        -43.8320  -47.2240   54.5070 C.2    88  PHE88       0.2264
      4  O        -44.3210  -46.5510   55.4310 O.2    88  PHE88      -0.2867
      5  CB       -45.2780  -49.2220   54.1840 C.3    88  PHE88       0.0534
      6  CG       -45.8070  -48.6310   52.8980 C.ar   88  PHE88      -0.0203
      7  CD1      -45.5000  -49.2060   51.6730 C.ar   88  PHE88      -0.0042
      8  CD2      -46.5870  -47.4890   52.9140 C.ar   88  PHE88      -0.0042
      9  CE1      -45.9680  -48.6400   50.4870 C.ar   88  PHE88      -0.0003
     10  CE2      -47.0540  -46.9150   51.7250 C.ar   88  PHE88      -0.0003
     11  CZ       -46.7550  -47.4820   50.5260 C.ar   88  PHE88      -0.0000
     12  N        -44.0150  -43.8000   51.4650 N.3    90  TYR90      -0.1241
     13  CA       -44.2330  -43.3220   50.1240 C.3    90  TYR90       0.1605
     14  C        -43.8360  -41.8540   50.0140 C.2    90  TYR90       0.2264
     15  O        -44.0940  -41.0480   50.9140 O.2    90  TYR90      -0.2867
     16  CB       -45.6900  -43.4920   49.7270 C.3    90  TYR90       0.0534
     17  CG       -45.9500  -42.9670   48.3290 C.ar   90  TYR90      -0.0201
     18  CD1      -45.5970  -43.7100   47.2100 C.ar   90  TYR90      -0.0009
     19  CD2      -46.5140  -41.7110   48.1340 C.ar   90  TYR90      -0.0009
     20  CE1      -45.8300  -43.2280   45.9360 C.ar   90  TYR90       0.0417
     21  CE2      -46.7320  -41.2180   46.8720 C.ar   90  TYR90       0.0417
     22  CZ       -46.3850  -41.9710   45.7820 C.ar   90  TYR90       0.1957
     23  OH       -46.6100  -41.4690   44.5380 O.3    90  TYR90      -0.2866
     24  N        -41.8860  -40.8040   43.7550 N.3   127  GLY127     -0.1225
     25  CA       -42.9460  -41.7960   43.7290 C.3   127  GLY127      0.1811
     26  C        -42.5280  -43.2090   44.0690 C.2   127  GLY127      0.2280
     27  O        -42.9890  -44.1430   43.4410 O.2   127  GLY127     -0.2866
     28  N        -42.8180  -46.2970   46.4770 N.3   129  ALA129     -0.1245
     29  CA       -43.5140  -47.0310   47.5160 C.3   129  ALA129      0.1562
     30  C        -42.5490  -48.1110   47.9840 C.2   129  ALA129      0.2260
     31  O        -42.2140  -49.0060   47.2190 O.2   129  ALA129     -0.2867
     32  CB       -44.7840  -47.6570   46.9680 C.3   129  ALA129      0.0290
     33  N        -41.6150  -50.3430   44.6930 N.3   149  TYR149     -0.1227
     34  CA       -42.2620  -49.9910   43.4250 C.3   149  TYR149      0.1736
     35  C        -42.1060  -48.4830   43.1950 C.2   149  TYR149      0.2595
     36  O        -42.2440  -47.7010   44.1260 O.2   149  TYR149     -0.2718
     37  CB       -43.7500  -50.3390   43.4550 C.3   149  TYR149      0.0548
     38  CG       -44.0420  -51.7790   43.8170 C.ar  149  TYR149     -0.0200
     39  CD1      -44.1690  -52.7430   42.8310 C.ar  149  TYR149     -0.0009
     40  CD2      -44.1720  -52.1840   45.1540 C.ar  149  TYR149     -0.0009
     41  CE1      -44.4160  -54.0600   43.1480 C.ar  149  TYR149      0.0417
     42  CE2      -44.4100  -53.5030   45.4780 C.ar  149  TYR149      0.0417
     43  CZ       -44.5220  -54.4350   44.4590 C.ar  149  TYR149      0.1957
     44  OH       -44.7700  -55.7480   44.7310 O.3   149  TYR149     -0.2866
     45  N        -41.8020  -48.0930   41.9620 N.am  150  GLN150     -0.1965
     46  CA       -41.7290  -46.6820   41.5770 C.3   150  GLN150      0.1733
     47  C        -42.6900  -46.4770   40.4630 C.2   150  GLN150      0.2616
     48  O        -42.5680  -47.1220   39.4060 O.2   150  GLN150     -0.2715
     49  CB       -40.3590  -46.2670   41.0380 C.3   150  GLN150      0.0408
     50  CG       -40.3440  -44.8300   40.5340 C.3   150  GLN150      0.0908
     51  CD       -38.9720  -44.3330   40.1620 C.2   150  GLN150      0.2608
     52  OE1      -38.1870  -45.0630   39.5910 O.2   150  GLN150     -0.2717
     53  NE2      -38.6790  -43.0660   40.4810 N.am  150  GLN150     -0.0878
     54  N        -43.6150  -45.5540   40.6780 N.am  151  GLY151     -0.1955
     55  CA       -44.6150  -45.2630   39.6680 C.3   151  GLY151      0.1869
     56  C        -44.0510  -44.4120   38.5540 C.2   151  GLY151      0.2309
     57  O        -43.1690  -43.5900   38.7760 O.2   151  GLY151     -0.2863
     58  N        -43.0960  -47.4090   35.1690 N.3   175  ASP175     -0.1225
     59  CA       -43.2740  -48.2570   36.3430 C.3   175  ASP175      0.1805
     60  C        -42.0530  -49.1570   36.5450 C.2   175  ASP175      0.2598
     61  O        -41.5250  -49.7260   35.6100 O.2   175  ASP175     -0.2718
     62  CB       -44.5400  -49.1000   36.1990 C.3   175  ASP175      0.1424
     63  CG       -45.8130  -48.2700   36.2150 C.2   175  ASP175      0.3668
     64  OD1      -45.7810  -47.1080   36.6750 O.co2 175  ASP175     -0.2456
     65  OD2      -46.8610  -48.7870   35.7590 O.co2 175  ASP175     -0.2456
     66  N        -41.6010  -49.2680   37.7750 N.am  176  GLY176     -0.1942
     67  CA       -40.4200  -50.0490   38.0850 C.3   176  GLY176      0.2014
     68  C        -40.5950  -50.8160   39.3790 C.2   176  GLY176      0.2638
     69  O        -41.4310  -50.4770   40.2110 O.2   176  GLY176     -0.2714
     70  N        -39.7870  -51.8480   39.5310 N.am  177  VAL177     -0.1977
     71  CA       -39.8330  -52.7100   40.6960 C.3   177  VAL177      0.1596
     72  C        -38.4170  -53.0410   41.0480 C.2   177  VAL177      0.2287
     73  O        -37.5900  -53.2090   40.1780 O.2   177  VAL177     -0.2864
     74  CB       -40.5610  -54.0520   40.4230 C.3   177  VAL177      0.0276
     75  CG1      -40.8560  -54.7690   41.7360 C.3   177  VAL177      0.0022
     76  CG2      -41.8310  -53.8190   39.6570 C.3   177  VAL177      0.0022
@<TRIPOS>BOND
     1    58    59    1
     2    61    60    2
     3    65    63   ar
     4    62    63    1
     5    62    59    1
     6    63    64   ar
     7    59    60    1
     8    60    66   am
     9    66    67    1
    10    67    68    1
    11    56    57    2
    12    56    55    1
    13    68    70   am
    14    68    69    2
    15    48    47    2
    16    70    71    1
    17    52    51    2
    18    76    74    1
    19    55    54    1
    20    51    53   am
    21    51    50    1
    22    73    72    2
    23    74    71    1
    24    74    75    1
    25    47    54   am
    26    47    46    1
    27    50    49    1
    28    71    72    1
    29    49    46    1
    30    46    45    1
    31    45    35   am
    32    39    41   ar
    33    39    38   ar
    34    41    43   ar
    35    35    34    1
    36    35    36    2
    37    34    37    1
    38    34    33    1
    39    27    26    2
    40    37    38    1
    41    25    24    1
    42    25    26    1
    43    38    40   ar
    44    43    44    1
    45    43    42   ar
    46    23    22    1
    47    40    42   ar
    48    22    20   ar
    49    22    21   ar
    50    20    18   ar
    51    28    29    1
    52    21    19   ar
    53    32    29    1
    54    18    17   ar
    55    31    30    2
    56    29    30    1
    57    19    17   ar
    58    17    16    1
    59    16    13    1
    60    14    13    1
    61    14    15    2
    62    13    12    1
    63     9    11   ar
    64     9     7   ar
    65    11    10   ar
    66     7     6   ar
    67    10     8   ar
    68     6     8   ar
    69     6     5    1
    70     5     2    1
    71     3     2    1
    72     3     4    2
    73     2     1    1
