@<TRIPOS>MOLECULE
tmp/2xe5D01.pdb
 87 83 0 0 0
SMALL
GASTEIGER

@<TRIPOS>ATOM
      1  N        -12.0350  -17.1760   61.1630 N.3    88  PHE88      -0.1241
      2  CA       -12.0390  -17.3440   59.7250 C.3    88  PHE88       0.1605
      3  C        -13.3710  -17.9760   59.3280 C.2    88  PHE88       0.2264
      4  O        -13.8350  -18.9360   59.9630 O.2    88  PHE88      -0.2867
      5  CB       -10.8940  -18.2510   59.2620 C.3    88  PHE88       0.0534
      6  CG       -10.9760  -18.6180   57.8010 C.ar   88  PHE88      -0.0203
      7  CD1      -10.4660  -17.7720   56.8260 C.ar   88  PHE88      -0.0042
      8  CD2      -11.5850  -19.7940   57.3980 C.ar   88  PHE88      -0.0042
      9  CE1      -10.5840  -18.0950   55.4730 C.ar   88  PHE88      -0.0003
     10  CE2      -11.6980  -20.1280   56.0470 C.ar   88  PHE88      -0.0003
     11  CZ       -11.2010  -19.2780   55.0880 C.ar   88  PHE88      -0.0000
     12  N        -15.8410  -18.8270   55.5580 N.3    90  TYR90      -0.1241
     13  CA       -15.9660  -18.8620   54.1280 C.3    90  TYR90       0.1605
     14  C        -17.4030  -19.1660   53.7340 C.2    90  TYR90       0.2264
     15  O        -18.0850  -19.9940   54.3460 O.2    90  TYR90      -0.2867
     16  CB       -15.0370  -19.9240   53.5360 C.3    90  TYR90       0.0534
     17  CG       -15.1730  -19.9970   52.0270 C.ar   90  TYR90      -0.0201
     18  CD1      -14.5670  -19.0500   51.2100 C.ar   90  TYR90      -0.0009
     19  CD2      -15.9460  -20.9820   51.4260 C.ar   90  TYR90      -0.0009
     20  CE1      -14.6980  -19.1080   49.8320 C.ar   90  TYR90       0.0417
     21  CE2      -16.0760  -21.0460   50.0650 C.ar   90  TYR90       0.0417
     22  CZ       -15.4540  -20.1070   49.2750 C.ar   90  TYR90       0.1957
     23  OH       -15.6250  -20.1630   47.9190 O.3    90  TYR90      -0.2866
     24  N        -18.4790  -16.2450   47.8880 N.3   127  GLY127     -0.1225
     25  CA       -17.1000  -16.6990   47.9100 C.3   127  GLY127      0.1811
     26  C        -16.1360  -15.8020   48.6530 C.2   127  GLY127      0.2280
     27  O        -15.0320  -15.5980   48.1980 O.2   127  GLY127     -0.2866
     28  N        -13.6350  -15.3260   51.6470 N.3   129  ALA129     -0.1245
     29  CA       -12.7730  -15.8840   52.6850 C.3   129  ALA129      0.1562
     30  C        -12.3770  -14.7120   53.5630 C.2   129  ALA129      0.2260
     31  O        -11.6760  -13.8180   53.1090 O.2   129  ALA129     -0.2867
     32  CB       -11.5490  -16.5360   52.0950 C.3   129  ALA129      0.0290
     33  N        -10.5180  -12.0120   51.1240 N.3   149  TYR149     -0.1227
     34  CA       -10.3500  -12.3700   49.7180 C.3   149  TYR149      0.1736
     35  C        -11.6950  -12.8560   49.1640 C.2   149  TYR149      0.2595
     36  O        -12.4140  -13.5790   49.8410 O.2   149  TYR149     -0.2718
     37  CB        -9.3270  -13.5010   49.5630 C.3   149  TYR149      0.0548
     38  CG        -7.9850  -13.2190   50.2060 C.ar  149  TYR149     -0.0200
     39  CD1       -6.9660  -12.6260   49.4860 C.ar  149  TYR149     -0.0009
     40  CD2       -7.7480  -13.5380   51.5450 C.ar  149  TYR149     -0.0009
     41  CE1       -5.7580  -12.3480   50.0590 C.ar  149  TYR149      0.0417
     42  CE2       -6.5090  -13.2900   52.1280 C.ar  149  TYR149      0.0417
     43  CZ        -5.5270  -12.6950   51.3750 C.ar  149  TYR149      0.1957
     44  OH        -4.3110  -12.3990   51.9190 O.3   149  TYR149     -0.2866
     45  N        -12.0310  -12.4290   47.9510 N.am  150  GLN150     -0.1965
     46  CA       -13.2320  -12.8870   47.2530 C.3   150  GLN150      0.1733
     47  C        -12.8020  -13.4920   45.9710 C.2   150  GLN150      0.2616
     48  O        -12.1730  -12.8170   45.1430 O.2   150  GLN150     -0.2715
     49  CB       -14.1950  -11.7630   46.8970 C.3   150  GLN150      0.0408
     50  CG       -15.3880  -12.2580   46.0700 C.3   150  GLN150      0.0908
     51  CD       -16.4440  -11.2150   45.8500 C.2   150  GLN150      0.2608
     52  OE1      -16.1320  -10.0610   45.6270 O.2   150  GLN150     -0.2717
     53  NE2      -17.7120  -11.6190   45.9030 N.am  150  GLN150     -0.0878
     54  N        -13.1650  -14.7540   45.7850 N.am  151  GLY151     -0.1955
     55  CA       -12.7940  -15.4650   44.5780 C.3   151  GLY151      0.1869
     56  C        -13.6720  -15.0610   43.4120 C.2   151  GLY151      0.2309
     57  O        -14.8390  -14.7290   43.5840 O.2   151  GLY151     -0.2863
     58  N        -11.1510  -11.9800   41.0740 N.3   175  ASP175     -0.1225
     59  CA       -10.4670  -12.0770   42.3640 C.3   175  ASP175      0.1805
     60  C        -10.3120  -10.6880   42.9940 C.2   175  ASP175      0.2598
     61  O         -9.9700   -9.7240   42.3330 O.2   175  ASP175     -0.2718
     62  CB        -9.1080  -12.7330   42.1850 C.3   175  ASP175      0.1424
     63  CG        -9.2010  -14.1970   41.7710 C.2   175  ASP175      0.3668
     64  OD1      -10.2640  -14.8130   41.9490 O.co2 175  ASP175     -0.2456
     65  OD2       -8.1930  -14.7580   41.2910 O.co2 175  ASP175     -0.2456
     66  N        -10.5890  -10.5930   44.2780 N.am  176  GLY176     -0.1942
     67  CA       -10.5470   -9.3200   44.9730 C.3   176  GLY176      0.2014
     68  C         -9.9640   -9.4800   46.3590 C.2   176  GLY176      0.2638
     69  O         -9.9410  -10.5760   46.9180 O.2   176  GLY176     -0.2714
     70  N         -9.4970   -8.3660   46.9030 N.am  177  VAL177     -0.1977
     71  CA        -8.8740   -8.3400   48.2100 C.3   177  VAL177      0.1596
     72  C         -9.3230   -7.0880   48.8780 C.2   177  VAL177      0.2287
     73  O         -9.4800   -6.0720   48.2390 O.2   177  VAL177     -0.2864
     74  CB        -7.3200   -8.2980   48.1380 C.3   177  VAL177      0.0276
     75  CG1       -6.7210   -8.6000   49.5110 C.3   177  VAL177      0.0022
     76  CG2       -6.8100   -9.2830   47.1360 C.3   177  VAL177      0.0022
     77  N        -10.0510   -2.9020   37.1960 N.3   214  ARG214     -0.1245
     78  CA       -10.2930   -3.1340   38.6000 C.3   214  ARG214      0.1563
     79  C        -11.4050   -2.2510   39.0910 C.2   214  ARG214      0.2260
     80  O        -11.5820   -1.1320   38.6240 O.2   214  ARG214     -0.2867
     81  CB        -9.0250   -2.8800   39.4390 C.3   214  ARG214      0.0307
     82  CG        -7.8660   -3.8440   39.1490 C.3   214  ARG214      0.0489
     83  CD        -6.7740   -3.8320   40.2100 C.3   214  ARG214      0.2205
     84  NE        -7.1420   -4.6270   41.3840 N.pl3 214  ARG214     -0.0865
     85  CZ        -6.8560   -5.9190   41.5730 C.cat 214  ARG214      0.5346
     86  NH1       -6.1800   -6.6180   40.6740 N.pl3 214  ARG214      0.1354
     87  NH2       -7.2570   -6.5190   42.6850 N.pl3 214  ARG214      0.1354
@<TRIPOS>BOND
     1    77    78    1
     2    78    79    1
     3    78    81    1
     4    80    79    2
     5    82    81    1
     6    82    83    1
     7    83    84    1
     8    86    85    1
     9    58    59    1
    10    65    63   ar
    11    84    85    2
    12    85    87    1
    13    63    64   ar
    14    63    62    1
    15    62    59    1
    16    61    60    2
    17    59    60    1
    18    60    66   am
    19    56    57    2
    20    56    55    1
    21    66    67    1
    22    55    54    1
    23    67    68    1
    24    48    47    2
    25    52    51    2
    26    54    47   am
    27    51    53   am
    28    51    50    1
    29    47    46    1
    30    50    49    1
    31    68    70   am
    32    68    69    2
    33    49    46    1
    34    70    71    1
    35    76    74    1
    36    46    45    1
    37    24    25    1
    38    25    26    1
    39    23    22    1
    40    45    35   am
    41    74    71    1
    42    74    75    1
    43    27    26    2
    44    71    72    1
    45    73    72    2
    46    35    34    1
    47    35    36    2
    48    22    20   ar
    49    22    21   ar
    50    39    41   ar
    51    39    38   ar
    52    37    34    1
    53    37    38    1
    54    34    33    1
    55    20    18   ar
    56    41    43   ar
    57    21    19   ar
    58    38    40   ar
    59    18    17   ar
    60    43    44    1
    61    43    42   ar
    62    19    17   ar
    63    40    42   ar
    64    28    29    1
    65    17    16    1
    66    32    29    1
    67    29    30    1
    68    31    30    2
    69    16    13    1
    70    14    13    1
    71    14    15    2
    72    13    12    1
    73    11     9   ar
    74    11    10   ar
    75     9     7   ar
    76    10     8   ar
    77     7     6   ar
    78     8     6   ar
    79     6     5    1
    80     5     2    1
    81     3     2    1
    82     3     4    2
    83     2     1    1
