@<TRIPOS>MOLECULE
tmp/2xe5B01.pdb
 106 101 0 0 0
SMALL
GASTEIGER

@<TRIPOS>ATOM
      1  N         23.6020   29.3250  -15.3400 N.3   227  ASN227     -0.1240
      2  CA        24.9700   28.9860  -15.7770 C.3   227  ASN227      0.1653
      3  C         25.5790   27.7820  -15.0420 C.2   227  ASN227      0.2266
      4  O         26.7260   27.8330  -14.6000 O.2   227  ASN227     -0.2867
      5  CB        25.8850   30.2020  -15.6150 C.3   227  ASN227      0.1155
      6  CG        25.3870   31.4090  -16.3810 C.2   227  ASN227      0.2627
      7  OD1       25.2500   31.3630  -17.6000 O.2   227  ASN227     -0.2716
      8  ND2       25.1160   32.4970  -15.6700 N.am  227  ASN227     -0.0877
      9  N         25.3700   26.8280  -12.1770 N.3   229  ILE229     -0.1245
     10  CA        25.6220   27.1120  -10.7680 C.3   229  ILE229      0.1561
     11  C         24.3110   27.2120   -9.9990 C.2   229  ILE229      0.2260
     12  O         23.3810   27.8730  -10.4430 O.2   229  ILE229     -0.2867
     13  CB        26.3500   28.4470  -10.5930 C.3   229  ILE229      0.0252
     14  CG1       27.6880   28.4370  -11.3300 C.3   229  ILE229      0.0019
     15  CG2       26.5570   28.7530   -9.1110 C.3   229  ILE229      0.0019
     16  CD1       28.1850   29.8240  -11.6790 C.3   229  ILE229      0.0001
     17  N         23.1890   28.2660   -6.1150 N.3   231  LEU231     -0.1245
     18  CA        23.4630   28.7890   -4.7750 C.3   231  LEU231      0.1561
     19  C         22.1240   29.0920   -4.1130 C.2   231  LEU231      0.2260
     20  O         21.2230   29.6350   -4.7470 O.2   231  LEU231     -0.2867
     21  CB        24.2990   30.0730   -4.8490 C.3   231  LEU231      0.0270
     22  CG        25.6780   29.9670   -5.4960 C.3   231  LEU231      0.0019
     23  CD1       26.2760   31.3460   -5.7850 C.3   231  LEU231      0.0001
     24  CD2       26.6180   29.1500   -4.6110 C.3   231  LEU231      0.0001
     25  N         25.7080   25.1320   -2.0030 N.3   260  ALA260     -0.1231
     26  CA        26.3890   25.4530   -3.2660 C.3   260  ALA260      0.1694
     27  C         26.5500   24.1920   -4.0940 C.2   260  ALA260      0.2592
     28  O         26.9510   23.1440   -3.5780 O.2   260  ALA260     -0.2718
     29  CB        27.7450   26.0960   -3.0140 C.3   260  ALA260      0.0304
     30  N         26.2240   24.3070   -5.3750 N.am  261  GLN261     -0.1966
     31  CA        26.2650   23.1780   -6.2980 C.3   261  GLN261      0.1733
     32  C         26.7200   23.6200   -7.6740 C.2   261  GLN261      0.2616
     33  O         26.4880   24.7580   -8.0920 O.2   261  GLN261     -0.2715
     34  CB        24.8910   22.5280   -6.4400 C.3   261  GLN261      0.0408
     35  CG        24.3430   21.9150   -5.1750 C.3   261  GLN261      0.0908
     36  CD        23.0740   21.0880   -5.4010 C.2   261  GLN261      0.2608
     37  OE1       22.3590   21.2690   -6.3860 O.2   261  GLN261     -0.2717
     38  NE2       22.7890   20.1940   -4.4680 N.am  261  GLN261     -0.0878
     39  N         27.3670   22.6950   -8.3700 N.am  262  TYR262     -0.1974
     40  CA        27.7920   22.9180   -9.7420 C.3   262  TYR262      0.1639
     41  C         27.5150   21.6700  -10.5700 C.2   262  TYR262      0.2290
     42  O         27.6640   20.5580  -10.0930 O.2   262  TYR262     -0.2864
     43  CB        29.2730   23.2970   -9.8270 C.3   262  TYR262      0.0560
     44  CG        29.6450   23.7630  -11.2110 C.ar  262  TYR262     -0.0198
     45  CD1       29.3130   25.0450  -11.6440 C.ar  262  TYR262     -0.0009
     46  CD2       30.2800   22.9160  -12.1060 C.ar  262  TYR262     -0.0009
     47  CE1       29.6340   25.4880  -12.9350 C.ar  262  TYR262      0.0417
     48  CE2       30.6020   23.3410  -13.4010 C.ar  262  TYR262      0.0417
     49  CZ        30.2700   24.6290  -13.8050 C.ar  262  TYR262      0.1957
     50  OH        30.5770   25.0580  -15.0770 O.3   262  TYR262     -0.2866
     51  N         28.7710   18.1020   -8.0670 N.3   270  PRO270     -0.2102
     52  CA        29.1950   18.2210   -6.6710 C.3   270  PRO270      0.1504
     53  C         28.2970   19.1440   -5.8500 C.2   270  PRO270      0.2576
     54  O         27.6660   20.0480   -6.3890 O.2   270  PRO270     -0.2718
     55  CB        30.5910   18.8320   -6.7660 C.3   270  PRO270      0.0282
     56  CG        31.0180   18.6760   -8.1730 C.3   270  PRO270      0.0208
     57  CD        29.7730   18.6530   -8.9920 C.3   270  PRO270      0.0893
     58  N         28.2770   18.9060   -4.5480 N.am  271  SER271     -0.1938
     59  CA        27.3850   19.5950   -3.6300 C.3   271  SER271      0.2055
     60  C         28.0380   19.8180   -2.2770 C.2   271  SER271      0.2642
     61  O         28.6470   18.9120   -1.7120 O.2   271  SER271     -0.2714
     62  CB        26.1250   18.7710   -3.4320 C.3   271  SER271      0.2130
     63  OG        25.1110   19.5300   -2.8270 O.3   271  SER271     -0.2179
     64  N         27.8990   21.0330   -1.7740 N.am  272  LEU272     -0.1977
     65  CA        28.4000   21.4050   -0.4600 C.3   272  LEU272      0.1596
     66  C         27.2980   22.1670    0.2600 C.2   272  LEU272      0.2287
     67  O         26.7280   23.1090   -0.2910 O.2   272  LEU272     -0.2864
     68  CB        29.6510   22.2860   -0.5850 C.3   272  LEU272      0.0297
     69  CG        30.3440   22.6940    0.7250 C.3   272  LEU272      0.0022
     70  CD1       30.9100   21.4660    1.4430 C.3   272  LEU272      0.0001
     71  CD2       31.4420   23.7610    0.4840 C.3   272  LEU272      0.0001
     72  N         28.5980   17.1090    2.3020 N.3   297  VAL297     -0.1231
     73  CA        29.3910   17.0140    1.0820 C.3   297  VAL297      0.1692
     74  C         28.8910   15.8310    0.2690 C.2   297  VAL297      0.2593
     75  O         28.7320   14.7340    0.7860 O.2   297  VAL297     -0.2718
     76  CB        30.8910   16.8090    1.3690 C.3   297  VAL297      0.0266
     77  CG1       31.6930   16.9020    0.0750 C.3   297  VAL297      0.0020
     78  CG2       31.3900   17.8320    2.3650 C.3   297  VAL297      0.0020
     79  N         28.6390   16.0590   -1.0070 N.am  298  GLY298     -0.1942
     80  CA        28.1480   14.9860   -1.8580 C.3   298  GLY298      0.2014
     81  C         28.3310   15.2700   -3.3310 C.2   298  GLY298      0.2638
     82  O         28.7520   16.3580   -3.7310 O.2   298  GLY298     -0.2714
     83  N         27.9910   14.2620   -4.1190 N.am  299  ALA299     -0.1977
     84  CA        28.1190   14.3120   -5.5650 C.3   299  ALA299      0.1597
     85  C         27.1000   13.3580   -6.1440 C.2   299  ALA299      0.2287
     86  O         26.8990   12.2750   -5.6250 O.2   299  ALA299     -0.2864
     87  CB        29.5430   13.9200   -6.0240 C.3   299  ALA299      0.0319
     88  N         26.7570    9.8550   -3.8460 N.3   311  VAL311     -0.1245
     89  CA        27.2570    9.7040   -2.4900 C.3   311  VAL311      0.1561
     90  C         26.9230   11.0200   -1.7800 C.2   311  VAL311      0.2260
     91  O         27.0330   12.0950   -2.3720 O.2   311  VAL311     -0.2867
     92  CB        28.7650    9.3660   -2.4780 C.3   311  VAL311      0.0252
     93  CG1       29.5580   10.4440   -3.1790 C.3   311  VAL311      0.0019
     94  CG2       29.2780    9.1140   -1.0190 C.3   311  VAL311      0.0019
     95  N         27.6130   12.7550    2.1000 N.3   313  TYR313     -0.1241
     96  CA        28.3580   12.6240    3.3570 C.3   313  TYR313      0.1605
     97  C         27.9420   13.7150    4.3400 C.2   313  TYR313      0.2264
     98  O         28.2670   14.8910    4.1620 O.2   313  TYR313     -0.2867
     99  CB        29.8680   12.6670    3.0890 C.3   313  TYR313      0.0534
    100  CG        30.7860   12.4200    4.2800 C.ar  313  TYR313     -0.0201
    101  CD1       30.3270   11.8200    5.4510 C.ar  313  TYR313     -0.0009
    102  CD2       32.1400   12.7640    4.2110 C.ar  313  TYR313     -0.0009
    103  CE1       31.1800   11.5880    6.5270 C.ar  313  TYR313      0.0417
    104  CE2       32.9970   12.5460    5.2820 C.ar  313  TYR313      0.0417
    105  CZ        32.5080   11.9530    6.4370 C.ar  313  TYR313      0.1957
    106  OH        33.3450   11.7310    7.5010 O.3   313  TYR313     -0.2866
@<TRIPOS>BOND
     1     7     6    2
     2     6     8   am
     3     6     5    1
     4     2     5    1
     5     2     1    1
     6     2     3    1
     7    50    49    1
     8     3     4    2
     9    49    48   ar
    10    49    47   ar
    11    48    46   ar
    12    47    45   ar
    13     9    10    1
    14    46    44   ar
    15    16    14    1
    16    45    44   ar
    17    14    13    1
    18    44    43    1
    19    10    13    1
    20    10    11    1
    21    13    15    1
    22    41    42    2
    23    41    40    1
    24    12    11    2
    25    43    40    1
    26    40    39    1
    27    57    56    1
    28    57    51    1
    29    39    32   am
    30    56    55    1
    31    33    32    2
    32    51    52    1
    33    32    31    1
    34    55    52    1
    35    52    53    1
    36    34    31    1
    37    34    35    1
    38    54    53    2
    39    37    36    2
    40    31    30    1
    41    85    86    2
    42    85    84    1
    43    17    18    1
    44    87    84    1
    45    53    58   am
    46    23    22    1
    47    84    83    1
    48    22    21    1
    49    22    24    1
    50    36    35    1
    51    36    38   am
    52    30    27   am
    53    21    18    1
    54    18    19    1
    55    20    19    2
    56    58    59    1
    57    83    81   am
    58    27    28    2
    59    27    26    1
    60    88    89    1
    61    82    81    2
    62    59    62    1
    63    59    60    1
    64    62    63    1
    65    81    80    1
    66    26    29    1
    67    26    25    1
    68    93    92    1
    69    89    92    1
    70    89    90    1
    71    92    94    1
    72    91    90    2
    73    60    64   am
    74    60    61    2
    75    80    79    1
    76    64    65    1
    77    79    74   am
    78    68    65    1
    79    68    69    1
    80    65    66    1
    81    67    66    2
    82    77    76    1
    83    74    75    2
    84    74    73    1
    85    71    69    1
    86    69    70    1
    87    73    76    1
    88    73    72    1
    89    76    78    1
    90    95    96    1
    91    99    96    1
    92    99   100    1
    93    96    97    1
    94    98    97    2
    95   102   100   ar
    96   102   104   ar
    97   100   101   ar
    98   104   105   ar
    99   101   103   ar
   100   105   103   ar
   101   105   106    1
