@<TRIPOS>MOLECULE
tmp/2xe5C00.pdb
 115 112 0 0 0
SMALL
GASTEIGER

@<TRIPOS>ATOM
      1  N         25.5130    0.6250  -22.4570 N.3    50  LEU50      -0.1245
      2  CA        25.1270    0.7630  -21.0600 C.3    50  LEU50       0.1561
      3  C         23.6350    1.0080  -20.9340 C.2    50  LEU50       0.2260
      4  O         23.1140    1.9970  -21.4310 O.2    50  LEU50      -0.2867
      5  CB        25.9040    1.9040  -20.3890 C.3    50  LEU50       0.0270
      6  CG        25.6970    2.1210  -18.8760 C.3    50  LEU50       0.0019
      7  CD1       26.1200    0.9280  -18.0660 C.3    50  LEU50       0.0001
      8  CD2       26.4700    3.3610  -18.4190 C.3    50  LEU50       0.0001
      9  N         22.6960   -1.2590  -13.2770 N.3    80  LEU80      -0.1245
     10  CA        23.3460   -0.9120  -14.5290 C.3    80  LEU80       0.1561
     11  C         23.7930   -2.2000  -15.2100 C.2    80  LEU80       0.2260
     12  O         24.1890   -3.1600  -14.5470 O.2    80  LEU80      -0.2867
     13  CB        24.5740   -0.0470  -14.2660 C.3    80  LEU80       0.0270
     14  CG        24.3940    1.2730  -13.5240 C.3    80  LEU80       0.0019
     15  CD1       25.7380    1.7920  -13.0610 C.3    80  LEU80       0.0001
     16  CD2       23.6730    2.2840  -14.4140 C.3    80  LEU80       0.0001
     17  N         26.3090   -3.3310  -18.5050 N.3    82  PHE82      -0.1241
     18  CA        27.2200   -3.0010  -19.6030 C.3    82  PHE82       0.1605
     19  C         27.4760   -4.2270  -20.4820 C.2    82  PHE82       0.2264
     20  O         27.7010   -5.3180  -19.9820 O.2    82  PHE82      -0.2867
     21  CB        28.5370   -2.4150  -19.0830 C.3    82  PHE82       0.0534
     22  CG        29.3230   -1.6840  -20.1390 C.ar   82  PHE82      -0.0203
     23  CD1       28.9080   -0.4510  -20.5890 C.ar   82  PHE82      -0.0042
     24  CD2       30.4610   -2.2350  -20.6920 C.ar   82  PHE82      -0.0042
     25  CE1       29.6160    0.2350  -21.5690 C.ar   82  PHE82      -0.0003
     26  CE2       31.1770   -1.5620  -21.6800 C.ar   82  PHE82      -0.0003
     27  CZ        30.7490   -0.3230  -22.1180 C.ar   82  PHE82      -0.0000
     28  N         30.1810   -7.2660  -20.2980 N.3    85  VAL85      -0.1231
     29  CA        30.9370   -7.0050  -19.0630 C.3    85  VAL85       0.1692
     30  C         30.1590   -7.4560  -17.8390 C.2    85  VAL85       0.2593
     31  O         30.7530   -7.9780  -16.8900 O.2    85  VAL85      -0.2718
     32  CB        31.3260   -5.5190  -18.9280 C.3    85  VAL85       0.0266
     33  CG1       31.9230   -5.2340  -17.5390 C.3    85  VAL85       0.0020
     34  CG2       32.3100   -5.1440  -20.0300 C.3    85  VAL85       0.0020
     35  N         28.8470   -7.2330  -17.8720 N.am   86  GLY86      -0.1942
     36  CA        27.9320   -7.7400  -16.8700 C.3    86  GLY86       0.2014
     37  C         27.0140   -6.6730  -16.3250 C.2    86  GLY86       0.2640
     38  O         27.0010   -5.5480  -16.8120 O.2    86  GLY86      -0.2714
     39  N         26.2550   -7.0350  -15.3020 N.am   87  SER87      -0.1935
     40  CA        25.3420   -6.1080  -14.6410 C.3    87  SER87       0.2055
     41  C         25.6020   -6.0420  -13.1380 C.2    87  SER87       0.2643
     42  O         26.1850   -6.9420  -12.5520 O.2    87  SER87      -0.2714
     43  CB        23.8840   -6.5000  -14.8960 C.3    87  SER87       0.2130
     44  OG        23.5790   -7.7560  -14.3160 O.3    87  SER87      -0.2179
     45  N         25.1820   -4.9430  -12.5400 N.am   88  PHE88      -0.1973
     46  CA        25.1720   -4.7840  -11.1000 C.3    88  PHE88       0.1639
     47  C         23.8380   -4.1550  -10.7080 C.2    88  PHE88       0.2290
     48  O         23.3730   -3.1920  -11.3430 O.2    88  PHE88      -0.2864
     49  CB        26.3150   -3.8740  -10.6310 C.3    88  PHE88       0.0560
     50  CG        26.2270   -3.5100   -9.1720 C.ar   88  PHE88      -0.0200
     51  CD1       26.7430   -4.3550   -8.1980 C.ar   88  PHE88      -0.0042
     52  CD2       25.6110   -2.3360   -8.7680 C.ar   88  PHE88      -0.0042
     53  CE1       26.6300   -4.0320   -6.8450 C.ar   88  PHE88      -0.0003
     54  CE2       25.5010   -2.0030   -7.4190 C.ar   88  PHE88      -0.0003
     55  CZ        26.0030   -2.8490   -6.4600 C.ar   88  PHE88      -0.0000
     56  N         26.3630   -8.8430   -8.6170 N.3   131  TYR131     -0.1227
     57  CA        27.0660   -8.7500   -9.8800 C.3   131  TYR131      0.1736
     58  C         26.7440   -9.9730  -10.6840 C.2   131  TYR131      0.2595
     59  O         26.7440  -11.0730  -10.1530 O.2   131  TYR131     -0.2718
     60  CB        28.5780   -8.6970   -9.6560 C.3   131  TYR131      0.0548
     61  CG        28.9980   -7.5730   -8.7690 C.ar  131  TYR131     -0.0200
     62  CD1       29.4200   -6.3760   -9.3100 C.ar  131  TYR131     -0.0009
     63  CD2       28.9830   -7.7080   -7.3770 C.ar  131  TYR131     -0.0009
     64  CE1       29.8520   -5.3280   -8.4850 C.ar  131  TYR131      0.0417
     65  CE2       29.3890   -6.6840   -6.5560 C.ar  131  TYR131      0.0417
     66  CZ        29.8170   -5.4970   -7.1080 C.ar  131  TYR131      0.1957
     67  OH        30.2050   -4.4940   -6.2630 O.3   131  TYR131     -0.2866
     68  N         26.4790   -9.7810  -11.9770 N.am  132  ARG132     -0.1966
     69  CA        26.1490  -10.8930  -12.8740 C.3   132  ARG132      0.1729
     70  C         26.9220  -10.7450  -14.1630 C.2   132  ARG132      0.2616
     71  O         27.0800   -9.6450  -14.6770 O.2   132  ARG132     -0.2715
     72  CB        24.6540  -10.9550  -13.1910 C.3   132  ARG132      0.0348
     73  CG        23.7360  -11.1570  -11.9710 C.3   132  ARG132      0.0492
     74  CD        22.2540  -11.3760  -12.3380 C.3   132  ARG132      0.2205
     75  NE        21.4790  -11.7960  -11.1600 N.pl3 132  ARG132     -0.0865
     76  CZ        21.4170  -13.0380  -10.6950 C.cat 132  ARG132      0.5346
     77  NH1       22.0770  -14.0220  -11.2900 N.pl3 132  ARG132      0.1354
     78  NH2       20.6990  -13.3030   -9.6180 N.pl3 132  ARG132      0.1354
     79  N         27.3840  -11.8760  -14.6780 N.am  133  ASN133     -0.1972
     80  CA        28.0580  -11.9440  -15.9640 C.3   133  ASN133      0.1688
     81  C         27.4080  -13.0270  -16.8100 C.2   133  ASN133      0.2292
     82  O         27.2930  -14.1690  -16.3830 O.2   133  ASN133     -0.2864
     83  CB        29.5340  -12.2540  -15.7980 C.3   133  ASN133      0.1181
     84  CG        30.2890  -12.1510  -17.1060 C.2   133  ASN133      0.2629
     85  OD1       29.8460  -12.6650  -18.1160 O.2   133  ASN133     -0.2716
     86  ND2       31.4090  -11.4850  -17.0980 N.am  133  ASN133     -0.0877
     87  N         31.6000  -12.8380  -20.3350 N.3   137  PHE137     -0.1241
     88  CA        32.1780  -11.7000  -21.0670 C.3   137  PHE137      0.1605
     89  C         31.9550  -11.7950  -22.5900 C.2   137  PHE137      0.2264
     90  O         32.7390  -11.2570  -23.3770 O.2   137  PHE137     -0.2867
     91  CB        33.6870  -11.5680  -20.7500 C.3   137  PHE137      0.0534
     92  CG        33.9910  -11.4360  -19.2750 C.ar  137  PHE137     -0.0203
     93  CD1       34.0260  -10.1890  -18.6660 C.ar  137  PHE137     -0.0042
     94  CD2       34.2270  -12.5600  -18.4950 C.ar  137  PHE137     -0.0042
     95  CE1       34.2850  -10.0700  -17.2960 C.ar  137  PHE137     -0.0003
     96  CE2       34.4910  -12.4470  -17.1230 C.ar  137  PHE137     -0.0003
     97  CZ        34.5290  -11.2060  -16.5290 C.ar  137  PHE137     -0.0000
     98  N         27.2950  -16.4780  -14.5350 N.3   145  PHE145     -0.1241
     99  CA        27.6700  -16.5740  -13.1350 C.3   145  PHE145      0.1605
    100  C         27.3950  -15.2640  -12.4090 C.2   145  PHE145      0.2264
    101  O         27.2530  -14.2150  -13.0360 O.2   145  PHE145     -0.2867
    102  CB        29.1290  -17.0420  -12.9690 C.3   145  PHE145      0.0534
    103  CG        30.1580  -15.9900  -13.2810 C.ar  145  PHE145     -0.0203
    104  CD1       30.6780  -15.8630  -14.5640 C.ar  145  PHE145     -0.0042
    105  CD2       30.6370  -15.1580  -12.2800 C.ar  145  PHE145     -0.0042
    106  CE1       31.6450  -14.9000  -14.8560 C.ar  145  PHE145     -0.0003
    107  CE2       31.6050  -14.1900  -12.5540 C.ar  145  PHE145     -0.0003
    108  CZ        32.1140  -14.0600  -13.8480 C.ar  145  PHE145     -0.0000
    109  N         28.1490  -13.1420   -8.4600 N.3   147  VAL147     -0.1245
    110  CA        28.6950  -12.9450   -7.1300 C.3   147  VAL147      0.1561
    111  C         27.7660  -11.9710   -6.4220 C.2   147  VAL147      0.2260
    112  O         27.3570  -10.9570   -6.9890 O.2   147  VAL147     -0.2867
    113  CB        30.1320  -12.3900   -7.1610 C.3   147  VAL147      0.0252
    114  CG1       30.6290  -12.0920   -5.7360 C.3   147  VAL147      0.0019
    115  CG2       31.0770  -13.3800   -7.8570 C.3   147  VAL147      0.0019
@<TRIPOS>BOND
     1    90    89    2
     2    89    88    1
     3     1     2    1
     4    27    26   ar
     5    27    25   ar
     6    26    24   ar
     7    25    23   ar
     8     4     3    2
     9    88    91    1
    10    88    87    1
    11     2     3    1
    12     2     5    1
    13    91    92    1
    14    24    22   ar
    15    23    22   ar
    16    19    20    2
    17    19    18    1
    18     5     6    1
    19    28    29    1
    20    22    21    1
    21    34    32    1
    22    18    21    1
    23    18    17    1
    24    92    93   ar
    25    92    94   ar
    26    29    32    1
    27    29    30    1
    28    32    33    1
    29     6     8    1
    30     6     7    1
    31    93    95   ar
    32    94    96   ar
    33    85    84    2
    34    35    30   am
    35    35    36    1
    36    30    31    2
    37    95    97   ar
    38    96    97   ar
    39    84    86   am
    40    84    83    1
    41    36    37    1
    42    38    37    2
    43    81    82    2
    44    81    80    1
    45    37    39   am
    46    80    83    1
    47    80    79    1
    48    39    40    1
    49    11    12    2
    50    11    10    1
    51    43    40    1
    52    43    44    1
    53   106   104   ar
    54   106   108   ar
    55    79    70   am
    56    71    70    2
    57    40    41    1
    58   104   103   ar
    59    98    99    1
    60    10    13    1
    61    10     9    1
    62    16    14    1
    63    13    14    1
    64    70    69    1
    65   108   107   ar
    66    14    15    1
    67   103   102    1
    68   103   105   ar
    69    72    69    1
    70    72    73    1
    71    41    42    2
    72    41    45   am
    73    99   102    1
    74    99   100    1
    75   101   100    2
    76    69    68    1
    77   107   105   ar
    78    45    46    1
    79    74    73    1
    80    74    75    1
    81    68    58   am
    82    48    47    2
    83    77    76    1
    84    75    76    2
    85    46    47    1
    86    46    49    1
    87    76    78    1
    88    58    59    2
    89    58    57    1
    90    49    50    1
    91    57    60    1
    92    57    56    1
    93    60    61    1
    94    62    61   ar
    95    62    64   ar
    96    50    52   ar
    97    50    51   ar
    98    61    63   ar
    99    52    54   ar
   100    64    66   ar
   101   109   110    1
   102    51    53   ar
   103   115   113    1
   104    54    55   ar
   105    63    65   ar
   106   113   110    1
   107   113   114    1
   108   110   111    1
   109    66    65   ar
   110    66    67    1
   111   112   111    2
   112    53    55   ar
