@<TRIPOS>MOLECULE
tmp/2xecA00.pdb
 106 99 0 0 0
SMALL
GASTEIGER

@<TRIPOS>ATOM
      1  N         14.9540   50.7620   -5.9770 N.3     9  PRO9       -0.2116
      2  CA        15.4660   51.9320   -5.3210 C.3     9  PRO9        0.1372
      3  C         15.1110   51.8300   -3.8410 C.2     9  PRO9        0.2244
      4  O         14.0300   51.4040   -3.5000 O.2     9  PRO9       -0.2868
      5  CB        14.7050   53.0880   -6.0090 C.3     9  PRO9        0.0268
      6  CG        14.3610   52.5680   -7.3250 C.3     9  PRO9        0.0207
      7  CD        14.0350   51.1250   -7.0760 C.3     9  PRO9        0.0892
      8  N         11.6800   52.7920   -2.7170 N.3    12  ASN12      -0.1240
      9  CA        10.5570   52.1980   -3.3830 C.3    12  ASN12       0.1653
     10  C          9.9050   51.1530   -2.4510 C.2    12  ASN12       0.2266
     11  O         10.5800   50.3870   -1.7700 O.2    12  ASN12      -0.2867
     12  CB        10.9980   51.5840   -4.7080 C.3    12  ASN12       0.1155
     13  CG         9.8280   51.1340   -5.5550 C.2    12  ASN12       0.2627
     14  OD1        9.1460   50.2110   -5.1800 O.2    12  ASN12      -0.2716
     15  ND2        9.6220   51.7490   -6.7230 N.am   12  ASN12      -0.0877
     16  N         18.0910   55.7270   -3.1180 N.3    40  MET40      -0.1245
     17  CA        17.5960   56.9640   -3.7070 C.3    40  MET40       0.1570
     18  C         16.3730   57.5290   -2.9290 C.2    40  MET40       0.2261
     19  O         15.5570   56.7460   -2.3590 O.2    40  MET40      -0.2867
     20  CB        17.2670   56.7370   -5.2050 C.3    40  MET40       0.0387
     21  CG        16.8110   57.9680   -5.9870 C.3    40  MET40       0.0595
     22  SD        14.9960   57.9200   -6.1090 S.3    40  MET40      -0.1393
     23  CE        14.7290   56.6890   -7.4100 C.3    40  MET40       0.0692
     24  N         13.8560   61.8650   -6.8770 N.3    43  VAL43      -0.1245
     25  CA        13.9290   61.3670   -8.2510 C.3    43  VAL43       0.1561
     26  C         14.4600   62.4440   -9.1980 C.2    43  VAL43       0.2260
     27  O         13.6700   63.2010   -9.7710 O.2    43  VAL43      -0.2867
     28  CB        12.5160   60.9040   -8.7250 C.3    43  VAL43       0.0252
     29  CG1       12.5490   60.4500  -10.1830 C.3    43  VAL43       0.0019
     30  CG2       11.9830   59.7560   -7.8050 C.3    43  VAL43       0.0019
     31  N         22.2410   56.5040   -7.3420 N.3    51  MET51      -0.1245
     32  CA        21.5960   55.1800   -7.3480 C.3    51  MET51       0.1570
     33  C         22.2130   54.1490   -8.3640 C.2    51  MET51       0.2261
     34  O         22.7750   53.1130   -7.9650 O.2    51  MET51      -0.2867
     35  CB        20.0670   55.3290   -7.6120 C.3    51  MET51       0.0387
     36  CG        19.3700   54.0440   -7.5580 C.3    51  MET51       0.0595
     37  SD        17.5860   54.1170   -7.6380 S.3    51  MET51      -0.1393
     38  CE        17.2320   54.1350   -9.4070 C.3    51  MET51       0.0692
     39  N         14.2590   49.6510  -11.2940 N.3    74  CYS74      -0.1221
     40  CA        14.5450   51.0770  -11.4290 C.3    74  CYS74       0.1808
     41  C         14.2230   51.5800  -12.8320 C.2    74  CYS74       0.2601
     42  O         15.0880   51.5540  -13.7030 O.2    74  CYS74      -0.2717
     43  CB        16.0370   51.2520  -11.1860 C.3    74  CYS74       0.0970
     44  SG        16.4670   50.3600   -9.7210 S.3    74  CYS74      -0.0800
     45  N         13.0030   52.0390  -13.0440 N.am   75  LEU75      -0.1965
     46  CA        12.4770   52.3550  -14.3490 C.3    75  LEU75       0.1728
     47  C         13.0210   53.6860  -14.9050 C.2    75  LEU75       0.2616
     48  O         13.4480   53.7810  -16.0930 O.2    75  LEU75      -0.2715
     49  CB        10.9420   52.4420  -14.2340 C.3    75  LEU75       0.0311
     50  CG        10.1650   52.7030  -15.5160 C.3    75  LEU75       0.0022
     51  CD1       10.2060   54.1470  -15.9150 C.3    75  LEU75       0.0001
     52  CD2       10.8240   51.9390  -16.5690 C.3    75  LEU75       0.0001
     53  N         13.0320   54.7250  -14.0670 N.am   76  VAL76      -0.1963
     54  CA        13.3850   56.0480  -14.5560 C.3    76  VAL76       0.1727
     55  C         14.8860   56.1820  -14.5850 C.2    76  VAL76       0.2616
     56  O         15.4230   56.9890  -15.3340 O.2    76  VAL76      -0.2715
     57  CB        12.7180   57.1910  -13.7080 C.3    76  VAL76       0.0290
     58  CG1       13.5740   57.5820  -12.4980 C.3    76  VAL76       0.0023
     59  CG2       12.3980   58.4080  -14.6140 C.3    76  VAL76       0.0023
     60  N         15.5820   55.3600  -13.8150 N.am   77  ALA77      -0.1977
     61  CA        17.0550   55.4450  -13.8270 C.3    77  ALA77       0.1597
     62  C         17.6060   54.9050  -15.1240 C.2    77  ALA77       0.2287
     63  O         18.7330   55.1750  -15.5050 O.2    77  ALA77      -0.2864
     64  CB        17.6330   54.6550  -12.6810 C.3    77  ALA77       0.0319
     65  N          6.4410   62.0190  -12.4300 N.3   131  TYR131     -0.1241
     66  CA         7.6870   62.7490  -12.5550 C.3   131  TYR131      0.1605
     67  C          7.5130   64.2660  -12.7500 C.2   131  TYR131      0.2264
     68  O          6.4380   64.7470  -13.1570 O.2   131  TYR131     -0.2867
     69  CB         8.5750   62.2010  -13.6830 C.3   131  TYR131      0.0534
     70  CG         8.6700   60.7070  -13.7360 C.ar  131  TYR131     -0.0201
     71  CD1        9.0120   59.9690  -12.6280 C.ar  131  TYR131     -0.0009
     72  CD2        8.3590   60.0200  -14.8980 C.ar  131  TYR131     -0.0009
     73  CE1        9.0540   58.5940  -12.6770 C.ar  131  TYR131      0.0417
     74  CE2        8.3960   58.6320  -14.9350 C.ar  131  TYR131      0.0417
     75  CZ         8.7660   57.9340  -13.8380 C.ar  131  TYR131      0.1957
     76  OH         8.8110   56.5410  -13.9390 O.3   131  TYR131     -0.2866
     77  N         10.5670   60.6130   -3.6270 N.3   161  ASN161     -0.1240
     78  CA        10.1170   59.2810   -3.9180 C.3   161  ASN161      0.1653
     79  C          9.0530   58.7210   -2.9420 C.2   161  ASN161      0.2266
     80  O          8.0670   58.0830   -3.3580 O.2   161  ASN161     -0.2867
     81  CB        11.2400   58.3150   -4.1580 C.3   161  ASN161      0.1155
     82  CG        10.8140   57.1690   -5.1010 C.2   161  ASN161      0.2627
     83  OD1       10.2010   57.4170   -6.1730 O.2   161  ASN161     -0.2716
     84  ND2       11.1410   55.9140   -4.7190 N.am  161  ASN161     -0.0877
     85  N          5.5380   54.8280  -13.7140 N.3   192  CYS192     -0.1221
     86  CA         6.5060   54.8040  -12.6350 C.3   192  CYS192      0.1808
     87  C          6.3350   53.5790  -11.7470 C.2   192  CYS192      0.2601
     88  O          5.2190   53.2040  -11.4040 O.2   192  CYS192     -0.2717
     89  CB         6.3540   56.0760  -11.8030 C.3   192  CYS192      0.0970
     90  SG         7.1030   56.0160  -10.1890 S.3   192  CYS192     -0.0800
     91  N          7.4450   52.9500  -11.3780 N.am  193  VAL193     -0.1965
     92  CA         7.3870   51.7930  -10.4970 C.3   193  VAL193      0.1727
     93  C          6.8130   52.1730   -9.1310 C.2   193  VAL193      0.2616
     94  O          6.0500   51.4170   -8.5390 O.2   193  VAL193     -0.2715
     95  CB         8.7740   51.1400  -10.3140 C.3   193  VAL193      0.0290
     96  CG1        9.0760   50.2060  -11.4700 C.3   193  VAL193      0.0023
     97  CG2        9.8510   52.2020  -10.1960 C.3   193  VAL193      0.0023
     98  N          7.2120   53.3350   -8.6250 N.am  194  GLN194     -0.1977
     99  CA         6.7420   53.8390   -7.3330 C.3   194  GLN194      0.1601
    100  C          5.2580   54.2290   -7.1790 C.2   194  GLN194      0.2287
    101  O          4.6620   53.9520   -6.1440 O.2   194  GLN194     -0.2864
    102  CB         7.6390   54.9840   -6.8530 C.3   194  GLN194      0.0394
    103  CG         7.2810   55.5300   -5.4780 C.3   194  GLN194      0.0908
    104  CD         7.5330   54.5390   -4.3560 C.2   194  GLN194      0.2608
    105  OE1        7.5330   53.3310   -4.5660 O.2   194  GLN194     -0.2717
    106  NE2        7.7390   55.0540   -3.1540 N.am  194  GLN194     -0.0878
@<TRIPOS>BOND
     1    52    50    1
     2    48    47    2
     3    51    50    1
     4    50    49    1
     5    63    62    2
     6    56    55    2
     7    62    61    1
     8    74    72   ar
     9    74    75   ar
    10    47    46    1
    11    47    53   am
    12    72    70   ar
    13    59    57    1
    14    55    54    1
    15    55    60   am
    16    54    53    1
    17    54    57    1
    18    46    49    1
    19    46    45    1
    20    76    75    1
    21    75    73   ar
    22    61    60    1
    23    61    64    1
    24    70    69    1
    25    70    71   ar
    26    85    86    1
    27    57    58    1
    28    42    41    2
    29    69    66    1
    30    68    67    2
    31    45    41   am
    32    41    40    1
    33    67    66    1
    34    73    71   ar
    35    86    89    1
    36    86    87    1
    37    66    65    1
    38    89    90    1
    39    87    88    2
    40    87    91   am
    41    96    95    1
    42    40    39    1
    43    40    43    1
    44    91    92    1
    45    43    44    1
    46    92    95    1
    47    92    93    1
    48    95    97    1
    49    29    28    1
    50    27    26    2
    51    38    37    1
    52    26    25    1
    53    93    98   am
    54    93    94    2
    55    28    25    1
    56    28    30    1
    57    98    99    1
    58    33    34    2
    59    33    32    1
    60    25    24    1
    61    37    36    1
    62    35    36    1
    63    35    32    1
    64    23    22    1
    65    32    31    1
    66    99   100    1
    67    99   102    1
    68     6     7    1
    69     6     5    1
    70   100   101    2
    71     7     1    1
    72   102   103    1
    73    15    13   am
    74    83    82    2
    75    22    21    1
    76     5     2    1
    77    21    20    1
    78     1     2    1
    79    13    14    2
    80    13    12    1
    81   103   104    1
    82     2     3    1
    83    20    17    1
    84    82    84   am
    85    82    81    1
    86    12     9    1
    87   105   104    2
    88   104   106   am
    89    81    78    1
    90    78    77    1
    91    78    79    1
    92     3     4    2
    93    17    16    1
    94    17    18    1
    95     9     8    1
    96     9    10    1
    97    80    79    2
    98    18    19    2
    99    10    11    2
