@<TRIPOS>MOLECULE
tmp/2xedA00.pdb
 104 97 0 0 0
SMALL
GASTEIGER

@<TRIPOS>ATOM
      1  N          8.6270    7.8710   43.7310 N.3    15  PRO15      -0.2116
      2  CA         8.3660    9.1340   44.4280 C.3    15  PRO15       0.1372
      3  C          8.3470    8.8830   45.9410 C.2    15  PRO15       0.2244
      4  O          7.8660    7.8330   46.3820 O.2    15  PRO15      -0.2868
      5  CB         6.9710    9.5560   43.9330 C.3    15  PRO15       0.0268
      6  CG         6.7950    8.8210   42.5940 C.3    15  PRO15       0.0207
      7  CD         7.6210    7.5570   42.6970 C.3    15  PRO15       0.0892
      8  N          4.9790    7.9310   47.2920 N.3    18  ASN18      -0.1240
      9  CA         4.3220    6.7490   46.7220 C.3    18  ASN18       0.1653
     10  C          4.3930    5.5790   47.6960 C.2    18  ASN18       0.2266
     11  O          5.4750    5.2350   48.1840 O.2    18  ASN18      -0.2867
     12  CB         4.9380    6.3810   45.3710 C.3    18  ASN18       0.1155
     13  CG         4.1680    5.2680   44.6530 C.2    18  ASN18       0.2627
     14  OD1        4.0650    4.1240   45.1470 O.2    18  ASN18      -0.2716
     15  ND2        3.6440    5.5890   43.4760 N.am   18  ASN18      -0.0877
     16  N          8.7270   13.7710   46.0580 N.3    46  MET46      -0.1245
     17  CA         7.6250   14.4610   45.3960 C.3    46  MET46       0.1570
     18  C          6.3600   14.1980   46.2040 C.2    46  MET46       0.2261
     19  O          6.1850   13.0910   46.7260 O.2    46  MET46      -0.2867
     20  CB         7.4580   13.9530   43.9470 C.3    46  MET46       0.0387
     21  CG         6.2820   14.5610   43.1580 C.3    46  MET46       0.0595
     22  SD         4.7030   13.6970   43.4110 S.3    46  MET46      -0.1393
     23  CE         4.8270   12.3800   42.1840 C.3    46  MET46       0.0692
     24  N          1.8010   16.3680   42.1510 N.3    49  VAL49      -0.1245
     25  CA         1.9370   15.8590   40.7910 C.3    49  VAL49       0.1561
     26  C          1.6380   17.0150   39.8370 C.2    49  VAL49       0.2260
     27  O          0.5250   17.1640   39.3280 O.2    49  VAL49      -0.2867
     28  CB         1.0410   14.5990   40.5400 C.3    49  VAL49       0.0252
     29  CG1        1.2810   14.0070   39.1410 C.3    49  VAL49       0.0019
     30  CG2        1.2910   13.5590   41.6040 C.3    49  VAL49       0.0019
     31  N          9.7430    4.3400   38.3340 N.3    79  ALA79      -0.1231
     32  CA         8.3410    3.9830   38.6230 C.3    79  ALA79       0.1694
     33  C          7.2980    4.9650   38.1270 C.2    79  ALA79       0.2592
     34  O          6.2360    4.5410   37.7140 O.2    79  ALA79      -0.2718
     35  CB         8.1430    3.7160   40.1300 C.3    79  ALA79       0.0304
     36  N          7.5740    6.2630   38.1810 N.am   80  CYS80      -0.1956
     37  CA         6.5320    7.2500   37.8660 C.3    80  CYS80       0.1843
     38  C          6.3470    7.4610   36.3750 C.2    80  CYS80       0.2625
     39  O          7.2370    7.9810   35.7210 O.2    80  CYS80      -0.2714
     40  CB         6.7830    8.5950   38.5410 C.3    80  CYS80       0.0997
     41  SG         5.4310    9.7770   38.2610 S.3    80  CYS80      -0.0797
     42  N          5.1720    7.1030   35.8650 N.am   81  LEU81      -0.1963
     43  CA         4.8890    7.1500   34.4200 C.3    81  LEU81       0.1728
     44  C          4.8000    8.5920   33.8950 C.2    81  LEU81       0.2616
     45  O          5.3980    8.9190   32.8730 O.2    81  LEU81      -0.2715
     46  CB         3.5830    6.3870   34.0970 C.3    81  LEU81       0.0311
     47  CG         3.1080    6.4300   32.6330 C.3    81  LEU81       0.0022
     48  CD1        2.4750    5.0910   32.2150 C.3    81  LEU81       0.0001
     49  CD2        2.1350    7.5810   32.3750 C.3    81  LEU81       0.0001
     50  N          4.0740    9.4560   34.6010 N.am   82  VAL82      -0.1977
     51  CA         3.8580   10.8280   34.1330 C.3    82  VAL82       0.1596
     52  C          5.1330   11.6780   34.2220 C.2    82  VAL82       0.2287
     53  O          5.3300   12.6030   33.4150 O.2    82  VAL82      -0.2864
     54  CB         2.6140   11.5130   34.7980 C.3    82  VAL82       0.0276
     55  CG1        2.9060   11.9540   36.2500 C.3    82  VAL82       0.0022
     56  CG2        2.1210   12.6840   33.9370 C.3    82  VAL82       0.0022
     57  N         -4.6390   12.1600   37.2740 N.3   137  TYR137     -0.1241
     58  CA        -3.9390   13.4360   37.0300 C.3   137  TYR137      0.1605
     59  C         -4.8530   14.6330   36.8310 C.2   137  TYR137      0.2264
     60  O         -6.0360   14.4830   36.5230 O.2   137  TYR137     -0.2867
     61  CB        -3.0210   13.3380   35.7980 C.3   137  TYR137      0.0534
     62  CG        -2.1160   12.1270   35.7440 C.ar  137  TYR137     -0.0201
     63  CD1       -1.2930   11.7970   36.8260 C.ar  137  TYR137     -0.0009
     64  CD2       -2.0590   11.3320   34.5980 C.ar  137  TYR137     -0.0009
     65  CE1       -0.4510   10.6920   36.7860 C.ar  137  TYR137      0.0417
     66  CE2       -1.2070   10.2210   34.5440 C.ar  137  TYR137      0.0417
     67  CZ        -0.4300    9.8980   35.6430 C.ar  137  TYR137      0.1957
     68  OH         0.4000    8.8080   35.5860 O.3   137  TYR137     -0.2866
     69  N         -0.2790   13.7600   45.8360 N.3   167  ASN167     -0.1240
     70  CA         0.0170   12.3250   45.6710 C.3   167  ASN167      0.1653
     71  C         -0.4080   11.4360   46.8310 C.2   167  ASN167      0.2266
     72  O         -0.7580   10.2690   46.6080 O.2   167  ASN167     -0.2867
     73  CB         1.4980   12.0600   45.3380 C.3   167  ASN167      0.1155
     74  CG         1.6650   10.8680   44.3890 C.2   167  ASN167      0.2627
     75  OD1        0.8270   10.6470   43.5240 O.2   167  ASN167     -0.2716
     76  ND2        2.7370   10.1060   44.5530 N.am  167  ASN167     -0.0877
     77  N         -3.8700   10.8230   46.1020 N.3   170  VAL170     -0.1245
     78  CA        -3.9460    9.8280   45.0120 C.3   170  VAL170      0.1561
     79  C         -3.9100    8.3790   45.5680 C.2   170  VAL170      0.2260
     80  O         -4.6520    7.4820   45.1090 O.2   170  VAL170     -0.2867
     81  CB        -2.8220   10.0440   43.9570 C.3   170  VAL170      0.0252
     82  CG1       -2.8390    8.9260   42.8900 C.3   170  VAL170      0.0019
     83  CG2       -2.9590   11.4050   43.3040 C.3   170  VAL170      0.0019
     84  N         -1.1880    5.8670   36.5600 N.3   198  ALA198     -0.1231
     85  CA        -0.2110    6.2160   37.6150 C.3   198  ALA198      0.1694
     86  C          0.0330    5.0390   38.5540 C.2   198  ALA198      0.2592
     87  O         -0.8970    4.2830   38.8560 O.2   198  ALA198     -0.2718
     88  CB        -0.7030    7.4400   38.4200 C.3   198  ALA198      0.0304
     89  N          1.2660    4.8930   39.0330 N.am  199  VAL199     -0.1966
     90  CA         1.5810    3.8360   39.9910 C.3   199  VAL199      0.1727
     91  C          1.0970    4.1280   41.4180 C.2   199  VAL199      0.2616
     92  O          1.0350    3.2210   42.2430 O.2   199  VAL199     -0.2715
     93  CB         3.0970    3.4480   40.0060 C.3   199  VAL199      0.0290
     94  CG1        3.4880    2.7210   38.7000 C.3   199  VAL199      0.0023
     95  CG2        3.9640    4.6810   40.2740 C.3   199  VAL199      0.0023
     96  N          0.7630    5.3820   41.7220 N.am  200  GLN200     -0.1977
     97  CA         0.2270    5.6730   43.0530 C.3   200  GLN200      0.1601
     98  C         -1.2770    5.3180   43.1710 C.2   200  GLN200      0.2287
     99  O         -1.7600    5.0260   44.2690 O.2   200  GLN200     -0.2864
    100  CB         0.4820    7.1460   43.4570 C.3   200  GLN200      0.0394
    101  CG        -0.0850    7.5640   44.8330 C.3   200  GLN200      0.0908
    102  CD         0.6990    7.0190   46.0390 C.2   200  GLN200      0.2608
    103  OE1        1.2910    5.9450   45.9830 O.2   200  GLN200     -0.2717
    104  NE2        0.6650    7.7620   47.1490 N.am  200  GLN200     -0.0878
@<TRIPOS>BOND
     1    48    47    1
     2    49    47    1
     3    47    46    1
     4    45    44    2
     5    53    52    2
     6    44    43    1
     7    44    50   am
     8    56    54    1
     9    46    43    1
    10    51    52    1
    11    51    50    1
    12    51    54    1
    13    43    42    1
    14    66    64   ar
    15    66    67   ar
    16    64    62   ar
    17    54    55    1
    18    68    67    1
    19    67    65   ar
    20    39    38    2
    21    62    61    1
    22    62    63   ar
    23    61    58    1
    24    42    38   am
    25    38    37    1
    26    60    59    2
    27    84    85    1
    28    65    63   ar
    29    59    58    1
    30    58    57    1
    31    85    88    1
    32    85    86    1
    33    34    33    2
    34    37    36    1
    35    37    40    1
    36    33    36   am
    37    33    32    1
    38    41    40    1
    39    31    32    1
    40    86    87    2
    41    86    89   am
    42    32    35    1
    43    94    93    1
    44    89    90    1
    45    29    28    1
    46    27    26    2
    47    26    25    1
    48    90    93    1
    49    90    91    1
    50    93    95    1
    51    28    25    1
    52    28    30    1
    53    25    24    1
    54    91    96   am
    55    91    92    2
    56    96    97    1
    57    23    22    1
    58     6     7    1
    59     6     5    1
    60     7     1    1
    61    82    81    1
    62    97    98    1
    63    97   100    1
    64    21    22    1
    65    21    20    1
    66    98    99    2
    67    83    81    1
    68   100   101    1
    69    15    13   am
    70    75    74    2
    71     1     2    1
    72     5     2    1
    73    20    17    1
    74    81    78    1
    75    74    76   am
    76    74    73    1
    77     2     3    1
    78    13    14    2
    79    13    12    1
    80   101   102    1
    81    78    79    1
    82    78    77    1
    83    80    79    2
    84    73    70    1
    85    12     9    1
    86    17    16    1
    87    17    18    1
    88    70    69    1
    89    70    71    1
    90     3     4    2
    91   103   102    2
    92   102   104   am
    93    18    19    2
    94    72    71    2
    95     9     8    1
    96     9    10    1
    97    10    11    2
