@<TRIPOS>MOLECULE
tmp/2xefA00.pdb
 168 159 0 0 0
SMALL
GASTEIGER

@<TRIPOS>ATOM
      1  N         21.6880   50.2020   35.7430 N.3   155  PHE155     -0.1227
      2  CA        20.5540   49.2610   35.7500 C.3   155  PHE155      0.1736
      3  C         20.2310   48.7570   34.3390 C.2   155  PHE155      0.2595
      4  O         20.1910   49.5350   33.3470 O.2   155  PHE155     -0.2718
      5  CB        19.3490   50.0060   36.3420 C.3   155  PHE155      0.0547
      6  CG        18.0610   49.2570   36.2410 C.ar  155  PHE155     -0.0202
      7  CD1       17.9210   48.0380   36.8910 C.ar  155  PHE155     -0.0042
      8  CD2       16.9270   49.8420   35.6120 C.ar  155  PHE155     -0.0042
      9  CE1       16.6580   47.3340   36.8360 C.ar  155  PHE155     -0.0003
     10  CE2       15.7110   49.1340   35.5160 C.ar  155  PHE155     -0.0003
     11  CZ        15.5730   47.8790   36.1300 C.ar  155  PHE155     -0.0000
     12  N         19.9450   47.4500   34.2480 N.am  156  ARG156     -0.1980
     13  CA        19.6910   46.8440   32.9080 C.3   156  ARG156      0.1597
     14  C         18.4890   47.4200   32.1570 C.2   156  ARG156      0.2287
     15  O         18.4860   47.4590   30.9120 O.2   156  ARG156     -0.2864
     16  CB        19.6110   45.3150   33.0240 C.3   156  ARG156      0.0334
     17  CG        18.3300   44.8340   33.7320 C.3   156  ARG156      0.0492
     18  CD        18.3830   43.2900   33.9190 C.3   156  ARG156      0.2205
     19  NE        19.1710   42.9020   35.1020 N.pl3 156  ARG156     -0.0865
     20  CZ        18.7570   43.1250   36.3550 C.cat 156  ARG156      0.5346
     21  NH1       17.5690   43.7220   36.5820 N.pl3 156  ARG156      0.1354
     22  NH2       19.4960   42.7300   37.3870 N.pl3 156  ARG156      0.1354
     23  N         16.9570   39.1170   35.6180 N.3   202  GLY202     -0.1210
     24  CA        16.5030   40.4280   36.1020 C.3   202  GLY202      0.1956
     25  C         15.4910   41.0920   35.1850 C.2   202  GLY202      0.2611
     26  O         15.5530   40.8950   33.9430 O.2   202  GLY202     -0.2717
     27  N         14.6220   41.9030   35.7690 N.am  203  ASN203     -0.1974
     28  CA        13.6430   42.5860   34.9480 C.3   203  ASN203      0.1688
     29  C         14.2850   43.7610   34.2080 C.2   203  ASN203      0.2292
     30  O         15.3300   44.2930   34.6070 O.2   203  ASN203     -0.2864
     31  CB        12.4270   43.0460   35.7670 C.3   203  ASN203      0.1181
     32  CG        12.6560   44.3950   36.4810 C.2   203  ASN203      0.2629
     33  OD1       12.6420   45.4500   35.8410 O.2   203  ASN203     -0.2716
     34  ND2       12.8020   44.3800   37.8610 N.am  203  ASN203     -0.0877
     35  N          9.8640   51.5170   34.9970 N.3   207  LEU207     -0.1245
     36  CA         8.6030   51.9030   35.6780 C.3   207  LEU207      0.1561
     37  C          8.6020   53.3060   36.2630 C.2   207  LEU207      0.2260
     38  O          7.5160   53.8820   36.4820 O.2   207  LEU207     -0.2867
     39  CB         8.3790   50.9690   36.8890 C.3   207  LEU207      0.0270
     40  CG         8.0070   49.5510   36.4720 C.3   207  LEU207      0.0019
     41  CD1        7.9160   48.6780   37.7550 C.3   207  LEU207      0.0001
     42  CD2        6.6540   49.4890   35.7320 C.3   207  LEU207      0.0001
     43  N         20.4810   37.3930   47.7970 N.3   333  ASP333     -0.1239
     44  CA        19.3850   38.3220   47.4750 C.3   333  ASP333      0.1674
     45  C         18.0760   37.5390   47.3100 C.2   333  ASP333      0.2266
     46  O         17.9450   36.8410   46.3090 O.2   333  ASP333     -0.2867
     47  CB        19.8070   38.9810   46.1550 C.3   333  ASP333      0.1410
     48  CG        18.8000   39.9540   45.6320 C.2   333  ASP333      0.3668
     49  OD1       17.8120   40.1430   46.3500 O.co2 333  ASP333     -0.2456
     50  OD2       18.9770   40.4340   44.4810 O.co2 333  ASP333     -0.2456
     51  N         11.5440   41.5240   42.7270 N.3   371  GLU371     -0.1245
     52  CA        12.3790   41.2590   41.5640 C.3   371  GLU371      0.1567
     53  C         11.7230   41.6800   40.2620 C.2   371  GLU371      0.2260
     54  O         12.4060   41.8360   39.2170 O.2   371  GLU371     -0.2867
     55  CB        12.8290   39.8130   41.5450 C.3   371  GLU371      0.0388
     56  CG        13.7270   39.3760   42.7110 C.3   371  GLU371      0.1160
     57  CD        15.1490   40.0360   42.7160 C.2   371  GLU371      0.3649
     58  OE1       15.4280   40.9760   41.9400 O.co2 371  GLU371     -0.2457
     59  OE2       15.9930   39.6340   43.5430 O.co2 371  GLU371     -0.2457
     60  N          9.9750   44.4680   39.8500 N.3   373  GLY373     -0.1210
     61  CA         9.7950   45.9320   39.7850 C.3   373  GLY373      0.1956
     62  C          9.2540   46.5580   41.0530 C.2   373  GLY373      0.2611
     63  O          8.5150   47.5890   40.9730 O.2   373  GLY373     -0.2717
     64  N          9.6170   45.9840   42.2040 N.am  374  LEU374     -0.1979
     65  CA         9.2560   46.5920   43.4870 C.3   374  LEU374      0.1596
     66  C          7.7090   46.5810   43.5930 C.2   374  LEU374      0.2287
     67  O          7.0620   47.4440   44.2320 O.2   374  LEU374     -0.2864
     68  CB         9.7870   48.0510   43.6240 C.3   374  LEU374      0.0297
     69  CG        11.1720   48.3210   43.0440 C.3   374  LEU374      0.0022
     70  CD1       11.5130   49.7810   43.2720 C.3   374  LEU374      0.0001
     71  CD2       12.1510   47.4200   43.7520 C.3   374  LEU374      0.0001
     72  N         17.0160   44.3170   52.2780 N.3   399  ASP399     -0.1225
     73  CA        17.3990   43.3190   51.2850 C.3   399  ASP399      0.1805
     74  C         18.7700   42.7400   51.6870 C.2   399  ASP399      0.2598
     75  O         19.1090   42.7250   52.8800 O.2   399  ASP399     -0.2718
     76  CB        17.4160   43.9250   49.8890 C.3   399  ASP399      0.1424
     77  CG        17.2740   42.8730   48.7590 C.2   399  ASP399      0.3668
     78  OD1       17.3320   41.6710   49.0220 O.co2 399  ASP399     -0.2456
     79  OD2       17.1300   43.2680   47.6040 O.co2 399  ASP399     -0.2456
     80  N         19.5210   42.2230   50.7190 N.am  400  SER400     -0.1952
     81  CA        20.7920   41.5300   51.0170 C.3   400  SER400      0.1924
     82  C         21.6050   42.1470   52.1600 C.2   400  SER400      0.2314
     83  O         21.8670   43.3570   52.1490 O.2   400  SER400     -0.2863
     84  CB        21.6390   41.5470   49.7770 C.3   400  SER400      0.2116
     85  OG        20.8660   41.0430   48.6930 O.3   400  SER400     -0.2180
     86  N         17.9180   53.9100   43.7440 N.3   463  SER463     -0.1202
     87  CA        16.6880   53.1400   43.6640 C.3   463  SER463      0.2020
     88  C         17.0110   51.7020   43.2900 C.2   463  SER463      0.2619
     89  O         18.1610   51.2400   43.5000 O.2   463  SER463     -0.2717
     90  CB        15.6770   53.7370   42.7260 C.3   463  SER463      0.2103
     91  OG        14.4280   53.0630   42.9000 O.3   463  SER463     -0.2182
     92  N         16.0170   50.9510   42.8090 N.am  464  GLY464     -0.1942
     93  CA        16.2380   49.5330   42.5660 C.3   464  GLY464      0.2014
     94  C         16.0240   48.6940   43.8330 C.2   464  GLY464      0.2638
     95  O         16.4670   47.5630   43.9420 O.2   464  GLY464     -0.2714
     96  N         15.2430   49.2410   44.7720 N.am  465  ASN465     -0.1972
     97  CA        14.8390   48.4070   45.9180 C.3   465  ASN465      0.1688
     98  C         13.6240   48.9930   46.6020 C.2   465  ASN465      0.2292
     99  O         13.1410   50.0570   46.2130 O.2   465  ASN465     -0.2864
    100  CB        15.9630   48.1510   46.9180 C.3   465  ASN465      0.1181
    101  CG        15.9690   46.7260   47.4080 C.2   465  ASN465      0.2629
    102  OD1       15.0410   46.2580   48.0910 O.2   465  ASN465     -0.2716
    103  ND2       17.0510   46.0100   47.0540 N.am  465  ASN465     -0.0877
    104  N         19.1970   52.2980   54.4540 N.3   480  ARG480     -0.1245
    105  CA        19.5510   50.8810   54.2540 C.3   480  ARG480      0.1563
    106  C         21.0060   50.7460   54.6410 C.2   480  ARG480      0.2260
    107  O         21.7640   51.7210   54.6140 O.2   480  ARG480     -0.2867
    108  CB        19.3820   50.5070   52.7670 C.3   480  ARG480      0.0307
    109  CG        20.3450   51.2690   51.8590 C.3   480  ARG480      0.0489
    110  CD        20.0180   51.1150   50.3390 C.3   480  ARG480      0.2205
    111  NE        19.8710   49.6990   49.9020 N.pl3 480  ARG480     -0.0865
    112  CZ        19.8570   49.3100   48.6250 C.cat 480  ARG480      0.5346
    113  NH1       19.9650   50.1960   47.6120 N.pl3 480  ARG480      0.1354
    114  NH2       19.6740   48.0170   48.3650 N.pl3 480  ARG480      0.1354
    115  N         24.3250   47.5250   54.7620 N.3   482  ARG482     -0.1245
    116  CA        24.7560   46.1350   54.5410 C.3   482  ARG482      0.1563
    117  C         26.2540   46.0890   54.6200 C.2   482  ARG482      0.2260
    118  O         26.9060   47.1220   54.6720 O.2   482  ARG482     -0.2867
    119  CB        24.3360   45.6280   53.1550 C.3   482  ARG482      0.0307
    120  CG        24.9130   46.4180   51.9810 C.3   482  ARG482      0.0489
    121  CD        24.5850   45.7440   50.5970 C.3   482  ARG482      0.2205
    122  NE        23.1210   45.5160   50.4330 N.pl3 482  ARG482     -0.0865
    123  CZ        22.4880   45.4330   49.2580 C.cat 482  ARG482      0.5346
    124  NH1       23.1680   45.5560   48.1390 N.pl3 482  ARG482      0.1354
    125  NH2       21.1700   45.2160   49.2060 N.pl3 482  ARG482      0.1354
    126  N         28.0590   41.9250   43.4830 N.3   495  TYR495     -0.1241
    127  CA        28.8130   40.6910   43.7160 C.3   495  TYR495      0.1605
    128  C         28.6810   39.7650   42.4910 C.2   495  TYR495      0.2264
    129  O         27.6650   39.7980   41.7840 O.2   495  TYR495     -0.2867
    130  CB        28.3580   39.9770   44.9940 C.3   495  TYR495      0.0534
    131  CG        26.8800   39.6890   45.0730 C.ar  495  TYR495     -0.0201
    132  CD1       26.3770   38.4220   44.7810 C.ar  495  TYR495     -0.0009
    133  CD2       25.9640   40.6910   45.4470 C.ar  495  TYR495     -0.0009
    134  CE1       25.0030   38.1360   44.8330 C.ar  495  TYR495      0.0417
    135  CE2       24.6090   40.4050   45.4700 C.ar  495  TYR495      0.0417
    136  CZ        24.1470   39.1560   45.1860 C.ar  495  TYR495      0.1957
    137  OH        22.7970   38.9210   45.2020 O.3   495  TYR495     -0.2866
    138  N         21.9380   37.2120   41.1040 N.3   499  HIS499     -0.1241
    139  CA        20.7560   36.7810   40.2940 C.3   499  HIS499      0.1621
    140  C         21.0370   35.5400   39.4540 C.2   499  HIS499      0.2264
    141  O         20.3100   35.2750   38.4760 O.2   499  HIS499     -0.2867
    142  CB        20.2390   37.9220   39.3870 C.3   499  HIS499      0.0745
    143  CG        19.4850   39.0060   40.1260 C.ar  499  HIS499      0.0817
    144  ND1       18.8220   40.0260   39.4810 N.ar  499  HIS499     -0.2268
    145  CD2       19.3140   39.2110   41.4510 C.ar  499  HIS499      0.1154
    146  CE1       18.2400   40.8120   40.3910 C.ar  499  HIS499      0.1986
    147  NE2       18.4750   40.2990   41.5810 N.ar  499  HIS499     -0.2212
    148  N         18.8680   53.7720   37.1610 N.3   643  LYS643     -0.1231
    149  CA        17.9790   53.6680   38.3120 C.3   643  LYS643      0.1693
    150  C         18.6750   53.3520   39.6150 C.2   643  LYS643      0.2592
    151  O         18.1800   53.7340   40.7060 O.2   643  LYS643     -0.2718
    152  CB        16.9400   52.5680   38.0020 C.3   643  LYS643      0.0285
    153  CG        15.7950   52.5240   39.0130 C.3   643  LYS643      0.0035
    154  CD        14.8090   51.4160   38.5720 C.3   643  LYS643      0.0206
    155  CE        13.4350   51.6140   39.2870 C.3   643  LYS643      0.1093
    156  NZ        12.5500   50.4580   38.9980 N.3   643  LYS643     -0.1314
    157  N         19.8460   52.6660   39.5520 N.am  644  TYR644     -0.1976
    158  CA        20.4770   52.3390   40.8600 C.3   644  TYR644      0.1639
    159  C         21.1080   53.5250   41.5760 C.2   644  TYR644      0.2290
    160  O         21.2580   53.5010   42.8380 O.2   644  TYR644     -0.2864
    161  CB        21.5630   51.2960   40.6730 C.3   644  TYR644      0.0560
    162  CG        21.1010   49.9330   40.2460 C.ar  644  TYR644     -0.0198
    163  CD1       19.9520   49.3370   40.7680 C.ar  644  TYR644     -0.0009
    164  CD2       21.8530   49.2180   39.3220 C.ar  644  TYR644     -0.0009
    165  CE1       19.5570   48.0300   40.3450 C.ar  644  TYR644      0.0417
    166  CE2       21.4830   47.9270   38.9050 C.ar  644  TYR644      0.0417
    167  CZ        20.3310   47.3610   39.4120 C.ar  644  TYR644      0.1957
    168  OH        19.9930   46.0850   38.9940 O.3   644  TYR644     -0.2866
@<TRIPOS>BOND
     1    15    14    2
     2    14    13    1
     3    13    16    1
     4    13    12    1
     5    16    17    1
     6     4     3    2
     7    17    18    1
     8    18    19    1
     9    26    25    2
    10    29    30    2
    11    29    28    1
    12    12     3   am
    13     3     2    1
    14    28    31    1
    15    28    27    1
    16    35    36    1
    17    19    20    2
    18    25    27   am
    19    25    24    1
    20    10     8   ar
    21    10    11   ar
    22     8     6   ar
    23    23    24    1
    24    36    37    1
    25    36    39    1
    26    42    40    1
    27     1     2    1
    28     2     5    1
    29    31    32    1
    30    33    32    2
    31    11     9   ar
    32     6     5    1
    33     6     7   ar
    34    37    38    2
    35    20    21    1
    36    20    22    1
    37    40    39    1
    38    40    41    1
    39    32    34   am
    40     9     7   ar
    41   148   149    1
    42   152   149    1
    43   152   153    1
    44   149   150    1
    45   141   140    2
    46   154   153    1
    47   154   155    1
    48   166   164   ar
    49   166   167   ar
    50   168   167    1
    51   156   155    1
    52    54    53    2
    53   164   162   ar
    54   142   143    1
    55   142   139    1
    56   167   165   ar
    57   140   139    1
    58   144   143   ar
    59   144   146   ar
    60   157   150   am
    61   157   158    1
    62   150   151    2
    63    61    60    1
    64    61    62    1
    65   143   145   ar
    66   162   161    1
    67   162   163   ar
    68    53    52    1
    69   139   138    1
    70   165   163   ar
    71   146   147   ar
    72   161   158    1
    73   158   159    1
    74    63    62    2
    75    62    64   am
    76   145   147   ar
    77    55    52    1
    78    55    56    1
    79    52    51    1
    80   159   160    2
    81   129   128    2
    82    58    57   ar
    83    64    65    1
    84   128   127    1
    85    93    92    1
    86    93    94    1
    87    56    57    1
    88    57    59   ar
    89    90    91    1
    90    90    87    1
    91    92    88   am
    92    69    70    1
    93    69    68    1
    94    69    71    1
    95    88    89    2
    96    88    87    1
    97   126   127    1
    98    65    66    1
    99    65    68    1
   100    66    67    2
   101    87    86    1
   102   127   130    1
   103    94    95    2
   104    94    96   am
   105    50    48   ar
   106    96    97    1
   107   132   134   ar
   108   132   131   ar
   109   134   136   ar
   110   130   131    1
   111   131   133   ar
   112   136   137    1
   113   136   135   ar
   114   133   135   ar
   115    48    47    1
   116    48    49   ar
   117    97    98    1
   118    97   100    1
   119    47    44    1
   120    99    98    2
   121    46    45    2
   122   100   101    1
   123   103   101   am
   124    45    44    1
   125   101   102    2
   126    44    43    1
   127    79    77   ar
   128   113   112    1
   129   124   123    1
   130   114   112    1
   131   112   111    2
   132    85    84    1
   133    77    78   ar
   134    77    76    1
   135   125   123    1
   136   123   122    2
   137    84    81    1
   138    76    73    1
   139   111   110    1
   140   110   109    1
   141   122   121    1
   142   121   120    1
   143    80    81    1
   144    80    74   am
   145    81    82    1
   146    73    74    1
   147    73    72    1
   148    74    75    2
   149   109   108    1
   150   120   119    1
   151    83    82    2
   152   108   105    1
   153   119   116    1
   154   105   104    1
   155   105   106    1
   156   116   117    1
   157   116   115    1
   158   107   106    2
   159   117   118    2
