@<TRIPOS>MOLECULE
tmp/2xegA06.pdb
 168 159 0 0 0
SMALL
GASTEIGER

@<TRIPOS>ATOM
      1  N         21.6880   50.2060   35.8980 N.3   155  PHE155     -0.1227
      2  CA        20.5340   49.2810   35.8880 C.3   155  PHE155      0.1736
      3  C         20.2230   48.7760   34.4670 C.2   155  PHE155      0.2595
      4  O         20.1650   49.5620   33.4790 O.2   155  PHE155     -0.2718
      5  CB        19.3290   50.0330   36.4610 C.3   155  PHE155      0.0547
      6  CG        18.0350   49.2640   36.3880 C.ar  155  PHE155     -0.0202
      7  CD1       17.9300   48.0330   37.0450 C.ar  155  PHE155     -0.0042
      8  CD2       16.8850   49.8290   35.7390 C.ar  155  PHE155     -0.0042
      9  CE1       16.7090   47.3230   37.0510 C.ar  155  PHE155     -0.0003
     10  CE2       15.6650   49.1070   35.7270 C.ar  155  PHE155     -0.0003
     11  CZ        15.5890   47.8480   36.3480 C.ar  155  PHE155     -0.0000
     12  N         19.9490   47.4770   34.3630 N.am  156  ARG156     -0.1980
     13  CA        19.7030   46.8750   33.0220 C.3   156  ARG156      0.1597
     14  C         18.4620   47.4590   32.2970 C.2   156  ARG156      0.2287
     15  O         18.4010   47.4970   31.0590 O.2   156  ARG156     -0.2864
     16  CB        19.6120   45.3510   33.1270 C.3   156  ARG156      0.0334
     17  CG        18.3080   44.8770   33.8610 C.3   156  ARG156      0.0492
     18  CD        18.3540   43.3330   34.0480 C.3   156  ARG156      0.2205
     19  NE        19.1620   42.9190   35.2230 N.pl3 156  ARG156     -0.0865
     20  CZ        18.7290   43.1280   36.4850 C.cat 156  ARG156      0.5346
     21  NH1       17.5570   43.7710   36.6840 N.pl3 156  ARG156      0.1354
     22  NH2       19.4620   42.7350   37.5320 N.pl3 156  ARG156      0.1354
     23  N         16.9150   39.1160   35.7160 N.3   202  GLY202     -0.1210
     24  CA        16.5020   40.4420   36.2070 C.3   202  GLY202      0.1956
     25  C         15.4950   41.0880   35.2950 C.2   202  GLY202      0.2611
     26  O         15.5690   40.9230   34.0650 O.2   202  GLY202     -0.2717
     27  N         14.6260   41.9030   35.8790 N.am  203  ASN203     -0.1974
     28  CA        13.6290   42.5920   35.0550 C.3   203  ASN203      0.1688
     29  C         14.2670   43.7820   34.3390 C.2   203  ASN203      0.2292
     30  O         15.3330   44.2970   34.7370 O.2   203  ASN203     -0.2864
     31  CB        12.3970   43.0550   35.8710 C.3   203  ASN203      0.1181
     32  CG        12.6500   44.3950   36.5990 C.2   203  ASN203      0.2629
     33  OD1       12.6070   45.4480   35.9620 O.2   203  ASN203     -0.2716
     34  ND2       12.7720   44.3630   37.9620 N.am  203  ASN203     -0.0877
     35  N          9.8500   51.5400   35.1510 N.3   207  LEU207     -0.1245
     36  CA         8.5860   51.9180   35.7910 C.3   207  LEU207      0.1561
     37  C          8.6030   53.3240   36.3840 C.2   207  LEU207      0.2260
     38  O          7.5320   53.8830   36.6380 O.2   207  LEU207     -0.2867
     39  CB         8.3310   50.9950   37.0060 C.3   207  LEU207      0.0270
     40  CG         8.0490   49.5610   36.6160 C.3   207  LEU207      0.0019
     41  CD1        7.9360   48.7010   37.9230 C.3   207  LEU207      0.0001
     42  CD2        6.6880   49.5280   35.8710 C.3   207  LEU207      0.0001
     43  N         20.4580   37.4110   47.9150 N.3   333  ASP333     -0.1239
     44  CA        19.3590   38.3390   47.5720 C.3   333  ASP333      0.1674
     45  C         18.0370   37.5490   47.4140 C.2   333  ASP333      0.2266
     46  O         17.8880   36.8560   46.4070 O.2   333  ASP333     -0.2867
     47  CB        19.7840   38.9760   46.2470 C.3   333  ASP333      0.1410
     48  CG        18.7770   39.9730   45.7210 C.2   333  ASP333      0.3668
     49  OD1       17.7870   40.1570   46.4460 O.co2 333  ASP333     -0.2456
     50  OD2       18.9830   40.4740   44.5740 O.co2 333  ASP333     -0.2456
     51  N         11.5000   41.5310   42.8420 N.3   371  GLU371     -0.1245
     52  CA        12.3520   41.2830   41.6720 C.3   371  GLU371      0.1567
     53  C         11.7260   41.6990   40.3580 C.2   371  GLU371      0.2260
     54  O         12.4040   41.8560   39.3250 O.2   371  GLU371     -0.2867
     55  CB        12.7980   39.8090   41.6590 C.3   371  GLU371      0.0388
     56  CG        13.6800   39.3910   42.8580 C.3   371  GLU371      0.1160
     57  CD        15.1350   40.0150   42.8260 C.2   371  GLU371      0.3649
     58  OE1       15.3970   40.9810   42.0500 O.co2 371  GLU371     -0.2457
     59  OE2       15.9720   39.6350   43.6610 O.co2 371  GLU371     -0.2457
     60  N          9.9230   44.4690   39.9770 N.3   373  GLY373     -0.1210
     61  CA         9.7390   45.9290   39.9000 C.3   373  GLY373      0.1956
     62  C          9.2500   46.5680   41.1780 C.2   373  GLY373      0.2611
     63  O          8.5140   47.5730   41.1060 O.2   373  GLY373     -0.2717
     64  N          9.6280   46.0440   42.3350 N.am  374  LEU374     -0.1979
     65  CA         9.2000   46.6850   43.5830 C.3   374  LEU374      0.1596
     66  C          7.6770   46.5650   43.7790 C.2   374  LEU374      0.2287
     67  O          7.0540   47.3860   44.4850 O.2   374  LEU374     -0.2864
     68  CB         9.6090   48.1720   43.6030 C.3   374  LEU374      0.0297
     69  CG        11.0700   48.4790   43.2370 C.3   374  LEU374      0.0022
     70  CD1       11.3950   49.9190   43.6170 C.3   374  LEU374      0.0001
     71  CD2       12.0130   47.5460   43.9650 C.3   374  LEU374      0.0001
     72  N         16.9830   44.3170   52.3980 N.3   399  ASP399     -0.1225
     73  CA        17.3580   43.3010   51.3990 C.3   399  ASP399      0.1805
     74  C         18.7300   42.7450   51.8000 C.2   399  ASP399      0.2598
     75  O         19.0430   42.7680   53.0180 O.2   399  ASP399     -0.2718
     76  CB        17.3480   43.9020   49.9930 C.3   399  ASP399      0.1424
     77  CG        17.2070   42.8580   48.8770 C.2   399  ASP399      0.3668
     78  OD1       17.2480   41.6630   49.1610 O.co2 399  ASP399     -0.2456
     79  OD2       17.1060   43.2830   47.7080 O.co2 399  ASP399     -0.2456
     80  N         19.4940   42.2520   50.8200 N.am  400  SER400     -0.1952
     81  CA        20.7910   41.5630   51.0760 C.3   400  SER400      0.1924
     82  C         21.6020   42.1670   52.2230 C.2   400  SER400      0.2314
     83  O         21.8610   43.3720   52.2510 O.2   400  SER400     -0.2863
     84  CB        21.6090   41.5980   49.8170 C.3   400  SER400      0.2116
     85  OG        20.8300   41.0150   48.8280 O.3   400  SER400     -0.2180
     86  N         17.9810   53.8600   43.8980 N.3   463  SER463     -0.1202
     87  CA        16.7640   53.0800   43.8390 C.3   463  SER463      0.2020
     88  C         17.0680   51.6400   43.4350 C.2   463  SER463      0.2619
     89  O         18.2230   51.1590   43.6410 O.2   463  SER463     -0.2717
     90  CB        15.7150   53.7340   42.9330 C.3   463  SER463      0.2103
     91  OG        14.4620   53.0900   43.1150 O.3   463  SER463     -0.2182
     92  N         16.0540   50.9530   42.9010 N.am  464  GLY464     -0.1942
     93  CA        16.1770   49.5280   42.6390 C.3   464  GLY464      0.2014
     94  C         15.9960   48.6950   43.9140 C.2   464  GLY464      0.2638
     95  O         16.4900   47.5640   44.0020 O.2   464  GLY464     -0.2714
     96  N         15.2600   49.2310   44.8990 N.am  465  ASN465     -0.1972
     97  CA        14.8600   48.4120   46.0570 C.3   465  ASN465      0.1688
     98  C         13.6190   48.9880   46.6900 C.2   465  ASN465      0.2292
     99  O         13.1520   50.0800   46.2910 O.2   465  ASN465     -0.2864
    100  CB        16.0190   48.1970   47.0560 C.3   465  ASN465      0.1181
    101  CG        16.0310   46.7720   47.5500 C.2   465  ASN465      0.2629
    102  OD1       15.0800   46.3250   48.1880 O.2   465  ASN465     -0.2716
    103  ND2       17.0660   46.0030   47.1430 N.am  465  ASN465     -0.0877
    104  N         19.1760   52.3170   54.5770 N.3   480  ARG480     -0.1245
    105  CA        19.5140   50.8990   54.3360 C.3   480  ARG480      0.1563
    106  C         20.9750   50.7300   54.7300 C.2   480  ARG480      0.2260
    107  O         21.7390   51.7140   54.7680 O.2   480  ARG480     -0.2867
    108  CB        19.3570   50.5430   52.8400 C.3   480  ARG480      0.0307
    109  CG        20.3570   51.2740   51.9430 C.3   480  ARG480      0.0489
    110  CD        20.0200   51.1280   50.4330 C.3   480  ARG480      0.2205
    111  NE        19.8420   49.7070   50.0160 N.pl3 480  ARG480     -0.0865
    112  CZ        19.8370   49.3240   48.7340 C.cat 480  ARG480      0.5346
    113  NH1       19.9810   50.2160   47.7500 N.pl3 480  ARG480      0.1354
    114  NH2       19.6310   48.0320   48.4190 N.pl3 480  ARG480      0.1354
    115  N         24.2960   47.4900   54.9160 N.3   482  ARG482     -0.1245
    116  CA        24.7240   46.1120   54.6820 C.3   482  ARG482      0.1563
    117  C         26.2270   46.0760   54.7570 C.2   482  ARG482      0.2260
    118  O         26.8670   47.1190   54.7550 O.2   482  ARG482     -0.2867
    119  CB        24.2680   45.6260   53.2820 C.3   482  ARG482      0.0307
    120  CG        24.8970   46.4160   52.0520 C.3   482  ARG482      0.0489
    121  CD        24.5750   45.7440   50.7120 C.3   482  ARG482      0.2205
    122  NE        23.1230   45.5540   50.5600 N.pl3 482  ARG482     -0.0865
    123  CZ        22.5050   45.4590   49.3880 C.cat 482  ARG482      0.5346
    124  NH1       23.1900   45.5520   48.2580 N.pl3 482  ARG482      0.1354
    125  NH2       21.1720   45.2550   49.3410 N.pl3 482  ARG482      0.1354
    126  N         28.0040   41.9210   43.6300 N.3   495  TYR495     -0.1241
    127  CA        28.7600   40.6840   43.8530 C.3   495  TYR495      0.1605
    128  C         28.5960   39.7730   42.6130 C.2   495  TYR495      0.2264
    129  O         27.5470   39.8040   41.9110 O.2   495  TYR495     -0.2867
    130  CB        28.3200   39.9710   45.1340 C.3   495  TYR495      0.0534
    131  CG        26.8480   39.6760   45.2000 C.ar  495  TYR495     -0.0201
    132  CD1       26.3410   38.4120   44.8950 C.ar  495  TYR495     -0.0009
    133  CD2       25.9610   40.6740   45.5580 C.ar  495  TYR495     -0.0009
    134  CE1       24.9560   38.1210   44.9130 C.ar  495  TYR495      0.0417
    135  CE2       24.5870   40.3940   45.5930 C.ar  495  TYR495      0.0417
    136  CZ        24.0930   39.1450   45.2620 C.ar  495  TYR495      0.1957
    137  OH        22.7370   38.8920   45.3030 O.3   495  TYR495     -0.2866
    138  N         21.9220   37.1900   41.1960 N.3   499  HIS499     -0.1241
    139  CA        20.7330   36.7560   40.4080 C.3   499  HIS499      0.1621
    140  C         20.9900   35.5030   39.5540 C.2   499  HIS499      0.2264
    141  O         20.2470   35.2190   38.5840 O.2   499  HIS499     -0.2867
    142  CB        20.2200   37.8900   39.5110 C.3   499  HIS499      0.0745
    143  CG        19.4540   38.9920   40.2540 C.ar  499  HIS499      0.0817
    144  ND1       18.8110   40.0100   39.5770 N.ar  499  HIS499     -0.2268
    145  CD2       19.2390   39.2320   41.5750 C.ar  499  HIS499      0.1154
    146  CE1       18.2290   40.8300   40.4410 C.ar  499  HIS499      0.1986
    147  NE2       18.3830   40.3220   41.6470 N.ar  499  HIS499     -0.2212
    148  N         18.8670   53.7610   37.2880 N.3   643  LYS643     -0.1231
    149  CA        17.9650   53.6670   38.4330 C.3   643  LYS643      0.1693
    150  C         18.6570   53.3330   39.7260 C.2   643  LYS643      0.2592
    151  O         18.1660   53.7100   40.8170 O.2   643  LYS643     -0.2718
    152  CB        16.9540   52.5790   38.1030 C.3   643  LYS643      0.0285
    153  CG        15.8120   52.5550   39.1300 C.3   643  LYS643      0.0035
    154  CD        14.8140   51.4650   38.6780 C.3   643  LYS643      0.0206
    155  CE        13.4610   51.6170   39.4450 C.3   643  LYS643      0.1093
    156  NZ        12.5060   50.4810   39.1570 N.3   643  LYS643     -0.1314
    157  N         19.8270   52.6420   39.6630 N.am  644  TYR644     -0.1976
    158  CA        20.4600   52.3410   40.9780 C.3   644  TYR644      0.1639
    159  C         21.0670   53.5340   41.6820 C.2   644  TYR644      0.2290
    160  O         21.2440   53.5190   42.9100 O.2   644  TYR644     -0.2864
    161  CB        21.5530   51.3070   40.8510 C.3   644  TYR644      0.0560
    162  CG        21.1000   49.9340   40.3910 C.ar  644  TYR644     -0.0198
    163  CD1       19.9680   49.3130   40.9360 C.ar  644  TYR644     -0.0009
    164  CD2       21.8550   49.2260   39.4210 C.ar  644  TYR644     -0.0009
    165  CE1       19.5550   48.0080   40.4950 C.ar  644  TYR644      0.0417
    166  CE2       21.4590   47.9310   38.9770 C.ar  644  TYR644      0.0417
    167  CZ        20.3210   47.3320   39.5240 C.ar  644  TYR644      0.1957
    168  OH        19.9570   46.0700   39.0950 O.3   644  TYR644     -0.2866
@<TRIPOS>BOND
     1    15    14    2
     2    14    13    1
     3    13    16    1
     4    13    12    1
     5    16    17    1
     6     4     3    2
     7    17    18    1
     8    18    19    1
     9    26    25    2
    10    29    30    2
    11    29    28    1
    12    12     3   am
    13     3     2    1
    14    28    31    1
    15    28    27    1
    16    35    36    1
    17    19    20    2
    18    25    27   am
    19    25    24    1
    20    23    24    1
    21    10     8   ar
    22    10    11   ar
    23     8     6   ar
    24    36    37    1
    25    36    39    1
    26    31    32    1
    27    42    40    1
    28     2     1    1
    29     2     5    1
    30    33    32    2
    31    11     9   ar
    32    37    38    2
    33     6     5    1
    34     6     7   ar
    35    20    21    1
    36    20    22    1
    37    32    34   am
    38    40    39    1
    39    40    41    1
    40     7     9   ar
    41   148   149    1
    42   152   149    1
    43   152   153    1
    44   149   150    1
    45   141   140    2
    46   154   153    1
    47   154   155    1
    48   166   164   ar
    49   166   167   ar
    50   168   167    1
    51   156   155    1
    52    54    53    2
    53   164   162   ar
    54   142   143    1
    55   142   139    1
    56   167   165   ar
    57   140   139    1
    58   144   143   ar
    59   144   146   ar
    60   157   150   am
    61   157   158    1
    62   150   151    2
    63    61    60    1
    64    61    62    1
    65   143   145   ar
    66    53    52    1
    67   162   161    1
    68   162   163   ar
    69   139   138    1
    70   146   147   ar
    71   165   163   ar
    72   161   158    1
    73   158   159    1
    74    63    62    2
    75    62    64   am
    76   145   147   ar
    77    55    52    1
    78    55    56    1
    79    52    51    1
    80   159   160    2
    81   129   128    2
    82    58    57   ar
    83    64    65    1
    84   128   127    1
    85    93    92    1
    86    93    94    1
    87    57    56    1
    88    57    59   ar
    89    92    88   am
    90    90    91    1
    91    90    87    1
    92    69    68    1
    93    69    70    1
    94    69    71    1
    95    88    89    2
    96    88    87    1
    97    65    68    1
    98    65    66    1
    99   126   127    1
   100    66    67    2
   101    87    86    1
   102   127   130    1
   103    94    95    2
   104    94    96   am
   105    50    48   ar
   106   132   134   ar
   107   132   131   ar
   108    96    97    1
   109   134   136   ar
   110   130   131    1
   111   131   133   ar
   112   136   137    1
   113   136   135   ar
   114   133   135   ar
   115    48    47    1
   116    48    49   ar
   117    97    98    1
   118    97   100    1
   119    47    44    1
   120    99    98    2
   121    46    45    2
   122   100   101    1
   123   103   101   am
   124    45    44    1
   125   101   102    2
   126    44    43    1
   127    79    77   ar
   128   113   112    1
   129   124   123    1
   130   114   112    1
   131   112   111    2
   132    85    84    1
   133    77    78   ar
   134    77    76    1
   135   125   123    1
   136   123   122    2
   137    84    81    1
   138    76    73    1
   139   111   110    1
   140   110   109    1
   141   122   121    1
   142   121   120    1
   143    80    81    1
   144    80    74   am
   145    81    82    1
   146    73    74    1
   147    73    72    1
   148    74    75    2
   149   109   108    1
   150   120   119    1
   151    82    83    2
   152   108   105    1
   153   119   116    1
   154   105   104    1
   155   105   106    1
   156   116   117    1
   157   116   115    1
   158   106   107    2
   159   118   117    2
