@<TRIPOS>MOLECULE
tmp/2xeiA06.pdb
 168 159 0 0 0
SMALL
GASTEIGER

@<TRIPOS>ATOM
      1  N         21.6380   50.2000   35.7100 N.3   155  PHE155     -0.1227
      2  CA        20.5100   49.2520   35.7250 C.3   155  PHE155      0.1736
      3  C         20.2130   48.7440   34.3150 C.2   155  PHE155      0.2595
      4  O         20.1380   49.5470   33.3190 O.2   155  PHE155     -0.2718
      5  CB        19.2930   50.0120   36.2710 C.3   155  PHE155      0.0547
      6  CG        17.9880   49.2360   36.1980 C.ar  155  PHE155     -0.0202
      7  CD1       17.8780   47.9730   36.7940 C.ar  155  PHE155     -0.0042
      8  CD2       16.8690   49.8240   35.5490 C.ar  155  PHE155     -0.0042
      9  CE1       16.6570   47.2330   36.7750 C.ar  155  PHE155     -0.0003
     10  CE2       15.6340   49.0900   35.4830 C.ar  155  PHE155     -0.0003
     11  CZ        15.5510   47.8110   36.0700 C.ar  155  PHE155     -0.0000
     12  N         19.9300   47.4350   34.2120 N.am  156  ARG156     -0.1980
     13  CA        19.7090   46.8390   32.8390 C.3   156  ARG156      0.1597
     14  C         18.4990   47.4300   32.0920 C.2   156  ARG156      0.2287
     15  O         18.5240   47.4850   30.8690 O.2   156  ARG156     -0.2864
     16  CB        19.5770   45.3090   32.9400 C.3   156  ARG156      0.0334
     17  CG        18.3220   44.8880   33.7540 C.3   156  ARG156      0.0492
     18  CD        18.3410   43.3140   33.8980 C.3   156  ARG156      0.2205
     19  NE        19.1730   42.9020   35.0560 N.pl3 156  ARG156     -0.0865
     20  CZ        18.7680   43.1160   36.3110 C.cat 156  ARG156      0.5346
     21  NH1       17.5960   43.7270   36.5260 N.pl3 156  ARG156      0.1354
     22  NH2       19.5090   42.7220   37.3460 N.pl3 156  ARG156      0.1354
     23  N         16.9160   39.1150   35.5420 N.3   202  GLY202     -0.1210
     24  CA        16.4910   40.4220   36.0460 C.3   202  GLY202      0.1956
     25  C         15.4880   41.0990   35.1330 C.2   202  GLY202      0.2611
     26  O         15.5430   40.9400   33.8890 O.2   202  GLY202     -0.2717
     27  N         14.6180   41.9030   35.7390 N.am  203  ASN203     -0.1974
     28  CA        13.6550   42.6010   34.9170 C.3   203  ASN203      0.1688
     29  C         14.2920   43.7970   34.1770 C.2   203  ASN203      0.2292
     30  O         15.3440   44.3250   34.5640 O.2   203  ASN203     -0.2864
     31  CB        12.4380   43.0330   35.7410 C.3   203  ASN203      0.1181
     32  CG        12.6530   44.3790   36.4340 C.2   203  ASN203      0.2629
     33  OD1       12.5960   45.4260   35.8000 O.2   203  ASN203     -0.2716
     34  ND2       12.8200   44.3740   37.7750 N.am  203  ASN203     -0.0877
     35  N         12.2190   46.4910   32.9780 N.3   205  LEU205     -0.1245
     36  CA        11.1470   47.5210   32.9340 C.3   205  LEU205      0.1561
     37  C         11.7460   48.9080   33.1440 C.2   205  LEU205      0.2260
     38  O         12.7780   49.0460   33.7540 O.2   205  LEU205     -0.2867
     39  CB        10.1870   47.3320   34.1320 C.3   205  LEU205      0.0270
     40  CG         9.3260   46.0610   33.9710 C.3   205  LEU205      0.0019
     41  CD1        8.4640   45.9530   35.2510 C.3   205  LEU205      0.0001
     42  CD2        8.4380   46.0940   32.7530 C.3   205  LEU205      0.0001
     43  N         20.4690   37.3820   47.7920 N.3   333  ASP333     -0.1239
     44  CA        19.4040   38.3350   47.4710 C.3   333  ASP333      0.1674
     45  C         18.0960   37.5290   47.3150 C.2   333  ASP333      0.2266
     46  O         17.9540   36.8540   46.2960 O.2   333  ASP333     -0.2867
     47  CB        19.8120   38.9870   46.1480 C.3   333  ASP333      0.1410
     48  CG        18.7950   39.9230   45.6050 C.2   333  ASP333      0.3668
     49  OD1       17.8370   40.1950   46.3460 O.co2 333  ASP333     -0.2456
     50  OD2       18.9760   40.4240   44.4760 O.co2 333  ASP333     -0.2456
     51  N         11.5170   41.5360   42.7210 N.3   371  GLU371     -0.1245
     52  CA        12.3720   41.3090   41.5360 C.3   371  GLU371      0.1567
     53  C         11.7050   41.6940   40.2220 C.2   371  GLU371      0.2260
     54  O         12.3840   41.8570   39.1900 O.2   371  GLU371     -0.2867
     55  CB        12.8690   39.8480   41.4670 C.3   371  GLU371      0.0388
     56  CG        13.7420   39.4100   42.6730 C.3   371  GLU371      0.1160
     57  CD        15.1570   40.0680   42.6870 C.2   371  GLU371      0.3649
     58  OE1       15.4050   41.0370   41.9240 O.co2 371  GLU371     -0.2457
     59  OE2       15.9800   39.6750   43.5430 O.co2 371  GLU371     -0.2457
     60  N          9.9550   44.4540   39.7780 N.3   373  GLY373     -0.1210
     61  CA         9.7550   45.9230   39.7100 C.3   373  GLY373      0.1956
     62  C          9.2320   46.5420   40.9900 C.2   373  GLY373      0.2611
     63  O          8.5240   47.5650   40.9310 O.2   373  GLY373     -0.2717
     64  N          9.6120   45.9730   42.1300 N.am  374  LEU374     -0.1979
     65  CA         9.2160   46.5850   43.4170 C.3   374  LEU374      0.1596
     66  C          7.6650   46.5420   43.5590 C.2   374  LEU374      0.2287
     67  O          7.0460   47.4420   44.1220 O.2   374  LEU374     -0.2864
     68  CB         9.7210   48.0600   43.5190 C.3   374  LEU374      0.0297
     69  CG        11.1610   48.3270   43.0090 C.3   374  LEU374      0.0022
     70  CD1       11.5020   49.8200   43.1630 C.3   374  LEU374      0.0001
     71  CD2       12.1630   47.3980   43.7420 C.3   374  LEU374      0.0001
     72  N         17.0540   44.2660   52.2420 N.3   399  ASP399     -0.1225
     73  CA        17.4130   43.2900   51.2080 C.3   399  ASP399      0.1805
     74  C         18.7860   42.7570   51.6280 C.2   399  ASP399      0.2598
     75  O         19.1070   42.8010   52.8470 O.2   399  ASP399     -0.2718
     76  CB        17.3990   43.9480   49.8440 C.3   399  ASP399      0.1424
     77  CG        17.3050   42.9080   48.6720 C.2   399  ASP399      0.3668
     78  OD1       17.3240   41.7060   48.9290 O.co2 399  ASP399     -0.2456
     79  OD2       17.1760   43.2990   47.5030 O.co2 399  ASP399     -0.2456
     80  N         19.5830   42.2790   50.6700 N.am  400  SER400     -0.1952
     81  CA        20.7930   41.4960   50.9920 C.3   400  SER400      0.1924
     82  C         21.5980   42.1330   52.1390 C.2   400  SER400      0.2314
     83  O         21.8630   43.3480   52.1410 O.2   400  SER400     -0.2863
     84  CB        21.6360   41.5110   49.7880 C.3   400  SER400      0.2116
     85  OG        20.8760   41.0720   48.6700 O.3   400  SER400     -0.2180
     86  N         17.5510   54.0150   43.6420 N.3   463  SER463     -0.1202
     87  CA        16.3750   53.1500   43.6100 C.3   463  SER463      0.2020
     88  C         16.8100   51.7280   43.2860 C.2   463  SER463      0.2619
     89  O         17.9710   51.3660   43.5770 O.2   463  SER463     -0.2717
     90  CB        15.3670   53.6650   42.6650 C.3   463  SER463      0.2103
     91  OG        14.2440   52.8110   42.6020 O.3   463  SER463     -0.2182
     92  N         15.9000   50.9120   42.7190 N.am  464  GLY464     -0.1942
     93  CA        16.2430   49.4890   42.5020 C.3   464  GLY464      0.2014
     94  C         16.0190   48.6770   43.8020 C.2   464  GLY464      0.2638
     95  O         16.4930   47.5520   43.9180 O.2   464  GLY464     -0.2714
     96  N         15.2400   49.2170   44.7400 N.am  465  ASN465     -0.1972
     97  CA        14.8130   48.4160   45.8950 C.3   465  ASN465      0.1688
     98  C         13.5670   48.9750   46.5640 C.2   465  ASN465      0.2292
     99  O         13.1020   50.0750   46.1930 O.2   465  ASN465     -0.2864
    100  CB        15.9610   48.1620   46.8620 C.3   465  ASN465      0.1181
    101  CG        15.9600   46.7060   47.3880 C.2   465  ASN465      0.2629
    102  OD1       15.0150   46.2600   48.0780 O.2   465  ASN465     -0.2716
    103  ND2       17.0270   45.9600   47.0600 N.am  465  ASN465     -0.0877
    104  N         19.1870   52.2590   54.4520 N.3   480  ARG480     -0.1245
    105  CA        19.5150   50.8630   54.2240 C.3   480  ARG480      0.1563
    106  C         20.9940   50.7030   54.6200 C.2   480  ARG480      0.2260
    107  O         21.7320   51.6840   54.6330 O.2   480  ARG480     -0.2867
    108  CB        19.3240   50.5330   52.7410 C.3   480  ARG480      0.0307
    109  CG        20.2970   51.2640   51.7930 C.3   480  ARG480      0.0489
    110  CD        19.9470   51.0860   50.2860 C.3   480  ARG480      0.2205
    111  NE        19.8040   49.6700   49.8710 N.pl3 480  ARG480     -0.0865
    112  CZ        19.7760   49.2640   48.5960 C.cat 480  ARG480      0.5346
    113  NH1       19.5670   47.9730   48.3230 N.pl3 480  ARG480      0.1354
    114  NH2       19.8740   50.1420   47.5880 N.pl3 480  ARG480      0.1354
    115  N         24.3680   47.4990   54.7440 N.3   482  ARG482     -0.1245
    116  CA        24.7480   46.0910   54.4920 C.3   482  ARG482      0.1563
    117  C         26.2490   46.0700   54.5830 C.2   482  ARG482      0.2260
    118  O         26.8730   47.1210   54.6380 O.2   482  ARG482     -0.2867
    119  CB        24.3330   45.5870   53.0870 C.3   482  ARG482      0.0307
    120  CG        24.8910   46.3910   51.8900 C.3   482  ARG482      0.0489
    121  CD        24.6220   45.6810   50.5560 C.3   482  ARG482      0.2205
    122  NE        23.1570   45.4380   50.4520 N.pl3 482  ARG482     -0.0865
    123  CZ        22.4720   45.4560   49.3090 C.cat 482  ARG482      0.5346
    124  NH1       21.1660   45.2040   49.2990 N.pl3 482  ARG482      0.1354
    125  NH2       23.1040   45.6930   48.1730 N.pl3 482  ARG482      0.1354
    126  N         28.0160   41.8900   43.2920 N.3   495  TYR495     -0.1241
    127  CA        28.8340   40.6790   43.5450 C.3   495  TYR495      0.1605
    128  C         28.7130   39.7340   42.3210 C.2   495  TYR495      0.2264
    129  O         27.6640   39.7450   41.6380 O.2   495  TYR495     -0.2867
    130  CB        28.4070   39.9930   44.8540 C.3   495  TYR495      0.0534
    131  CG        26.9280   39.6830   44.9470 C.ar  495  TYR495     -0.0201
    132  CD1       26.4360   38.4010   44.6580 C.ar  495  TYR495     -0.0009
    133  CD2       26.0250   40.6880   45.2940 C.ar  495  TYR495     -0.0009
    134  CE1       25.0180   38.1210   44.7420 C.ar  495  TYR495      0.0417
    135  CE2       24.6400   40.4150   45.3700 C.ar  495  TYR495      0.0417
    136  CZ        24.1960   39.1570   45.0970 C.ar  495  TYR495      0.1957
    137  OH        22.8440   38.9050   45.1390 O.3   495  TYR495     -0.2866
    138  N         21.9060   37.2580   41.0620 N.3   499  HIS499     -0.1241
    139  CA        20.7660   36.8210   40.2200 C.3   499  HIS499      0.1621
    140  C         21.0240   35.5580   39.3850 C.2   499  HIS499      0.2264
    141  O         20.2810   35.2560   38.4330 O.2   499  HIS499     -0.2867
    142  CB        20.2140   37.9390   39.3410 C.3   499  HIS499      0.0745
    143  CG        19.4710   39.0060   40.1070 C.ar  499  HIS499      0.0817
    144  ND1       18.8180   40.0300   39.4660 N.ar  499  HIS499     -0.2268
    145  CD2       19.3050   39.2110   41.4460 C.ar  499  HIS499      0.1154
    146  CE1       18.2100   40.7990   40.3750 C.ar  499  HIS499      0.1986
    147  NE2       18.4860   40.3130   41.5740 N.ar  499  HIS499     -0.2212
    148  N         18.8180   53.8090   37.1200 N.3   643  LYS643     -0.1231
    149  CA        17.8920   53.7230   38.2610 C.3   643  LYS643      0.1693
    150  C         18.5850   53.4140   39.5760 C.2   643  LYS643      0.2592
    151  O         18.1010   53.8040   40.6600 O.2   643  LYS643     -0.2718
    152  CB        16.9070   52.5780   37.9390 C.3   643  LYS643      0.0285
    153  CG        15.8410   52.4680   38.8880 C.3   643  LYS643      0.0035
    154  CD        14.8810   51.3700   38.4320 C.3   643  LYS643      0.0206
    155  CE        13.5050   51.6350   39.1390 C.3   643  LYS643      0.1093
    156  NZ        12.5640   50.5000   38.8690 N.3   643  LYS643     -0.1314
    157  N         19.7360   52.7230   39.5530 N.am  644  TYR644     -0.1976
    158  CA        20.3920   52.3820   40.8570 C.3   644  TYR644      0.1639
    159  C         21.0240   53.5670   41.5590 C.2   644  TYR644      0.2290
    160  O         21.2160   53.5240   42.7890 O.2   644  TYR644     -0.2864
    161  CB        21.5120   51.3670   40.6290 C.3   644  TYR644      0.0560
    162  CG        21.0640   49.9830   40.1870 C.ar  644  TYR644     -0.0198
    163  CD1       19.9260   49.3840   40.7210 C.ar  644  TYR644     -0.0009
    164  CD2       21.8160   49.2710   39.2280 C.ar  644  TYR644     -0.0009
    165  CE1       19.5140   48.0610   40.2700 C.ar  644  TYR644      0.0417
    166  CE2       21.4520   47.9680   38.8090 C.ar  644  TYR644      0.0417
    167  CZ        20.3080   47.3760   39.3480 C.ar  644  TYR644      0.1957
    168  OH        19.9360   46.1220   38.9310 O.3   644  TYR644     -0.2866
@<TRIPOS>BOND
     1    15    14    2
     2    14    13    1
     3    42    40    1
     4    13    16    1
     5    13    12    1
     6    36    35    1
     7    36    37    1
     8    36    39    1
     9    16    17    1
    10    37    38    2
    11     4     3    2
    12    17    18    1
    13    26    25    2
    14    18    19    1
    15    40    39    1
    16    40    41    1
    17    29    30    2
    18    29    28    1
    19    12     3   am
    20     3     2    1
    21    28    27    1
    22    28    31    1
    23    19    20    2
    24    25    27   am
    25    25    24    1
    26    10     8   ar
    27    10    11   ar
    28    23    24    1
    29     8     6   ar
    30     1     2    1
    31     2     5    1
    32    31    32    1
    33    33    32    2
    34    11     9   ar
    35     6     5    1
    36     6     7   ar
    37    20    21    1
    38    20    22    1
    39    32    34   am
    40     9     7   ar
    41   148   149    1
    42   152   149    1
    43   152   153    1
    44   149   150    1
    45   154   153    1
    46   154   155    1
    47   141   140    2
    48   166   164   ar
    49   166   167   ar
    50   156   155    1
    51   168   167    1
    52    54    53    2
    53   164   162   ar
    54   142   143    1
    55   142   139    1
    56   167   165   ar
    57   140   139    1
    58   144   143   ar
    59   144   146   ar
    60   157   150   am
    61   157   158    1
    62   150   151    2
    63    61    60    1
    64    61    62    1
    65   143   145   ar
    66   162   161    1
    67   162   163   ar
    68   139   138    1
    69    53    52    1
    70   165   163   ar
    71   146   147   ar
    72   161   158    1
    73   158   159    1
    74    63    62    2
    75    62    64   am
    76   145   147   ar
    77    55    52    1
    78    55    56    1
    79    52    51    1
    80   159   160    2
    81   129   128    2
    82    58    57   ar
    83    64    65    1
    84   128   127    1
    85    93    92    1
    86    93    94    1
    87    91    90    1
    88    90    87    1
    89    56    57    1
    90    57    59   ar
    91    92    88   am
    92    69    70    1
    93    69    68    1
    94    69    71    1
    95    88    89    2
    96    88    87    1
    97   126   127    1
    98    65    68    1
    99    65    66    1
   100   127   130    1
   101    66    67    2
   102    87    86    1
   103    94    95    2
   104    94    96   am
   105    50    48   ar
   106   132   134   ar
   107   132   131   ar
   108    96    97    1
   109   134   136   ar
   110   130   131    1
   111   131   133   ar
   112   136   137    1
   113   136   135   ar
   114   133   135   ar
   115    48    47    1
   116    48    49   ar
   117    97    98    1
   118    97   100    1
   119    47    44    1
   120    99    98    2
   121    46    45    2
   122   100   101    1
   123   103   101   am
   124    45    44    1
   125   101   102    2
   126    44    43    1
   127    79    77   ar
   128   114   112    1
   129   125   123    1
   130   113   112    1
   131   112   111    2
   132    85    84    1
   133    77    78   ar
   134    77    76    1
   135   124   123    1
   136   123   122    2
   137    84    81    1
   138    76    73    1
   139   111   110    1
   140   110   109    1
   141   122   121    1
   142   121   120    1
   143    80    81    1
   144    80    74   am
   145    81    82    1
   146    73    74    1
   147    73    72    1
   148    74    75    2
   149   109   108    1
   150   120   119    1
   151    82    83    2
   152   108   105    1
   153   119   116    1
   154   105   104    1
   155   105   106    1
   156   116   117    1
   157   116   115    1
   158   117   118    2
   159   106   107    2
