@<TRIPOS>MOLECULE
tmp/2xejA06.pdb
 191 179 0 0 0
SMALL
GASTEIGER

@<TRIPOS>ATOM
      1  N         21.6950   50.1410   36.0060 N.3   155  PHE155     -0.1227
      2  CA        20.5310   49.2420   35.9740 C.3   155  PHE155      0.1736
      3  C         20.2270   48.7650   34.5560 C.2   155  PHE155      0.2595
      4  O         20.2300   49.5510   33.5920 O.2   155  PHE155     -0.2718
      5  CB        19.3290   49.9720   36.5880 C.3   155  PHE155      0.0547
      6  CG        18.0260   49.2110   36.5010 C.ar  155  PHE155     -0.0202
      7  CD1       17.8950   47.9670   37.1620 C.ar  155  PHE155     -0.0042
      8  CD2       16.8920   49.7990   35.8750 C.ar  155  PHE155     -0.0042
      9  CE1       16.6940   47.2290   37.1480 C.ar  155  PHE155     -0.0003
     10  CE2       15.6810   49.0650   35.8350 C.ar  155  PHE155     -0.0003
     11  CZ        15.5850   47.7790   36.4580 C.ar  155  PHE155     -0.0000
     12  N         19.9490   47.4650   34.4190 N.am  156  ARG156     -0.1980
     13  CA        19.7870   46.8840   33.0550 C.3   156  ARG156      0.1597
     14  C         18.5150   47.4380   32.3580 C.2   156  ARG156      0.2287
     15  O         18.4760   47.4890   31.1400 O.2   156  ARG156     -0.2864
     16  CB        19.7180   45.3480   33.1750 C.3   156  ARG156      0.0334
     17  CG        18.4230   44.8760   33.9320 C.3   156  ARG156      0.0492
     18  CD        18.3800   43.2970   34.1380 C.3   156  ARG156      0.2205
     19  NE        19.1560   42.8640   35.3300 N.pl3 156  ARG156     -0.0865
     20  CZ        18.7680   43.1160   36.5730 C.cat 156  ARG156      0.5346
     21  NH1       17.5960   43.7260   36.7720 N.pl3 156  ARG156      0.1354
     22  NH2       19.4920   42.6880   37.6160 N.pl3 156  ARG156      0.1354
     23  N         14.6360   41.8970   35.9980 N.3   203  ASN203     -0.1240
     24  CA        13.6620   42.5860   35.1510 C.3   203  ASN203      0.1653
     25  C         14.2950   43.7530   34.3890 C.2   203  ASN203      0.2266
     26  O         15.3320   44.2880   34.8000 O.2   203  ASN203     -0.2867
     27  CB        12.4180   43.0430   35.9260 C.3   203  ASN203      0.1155
     28  CG        12.6250   44.4030   36.6530 C.2   203  ASN203      0.2627
     29  OD1       12.6460   45.4750   36.0190 O.2   203  ASN203     -0.2716
     30  ND2       12.7920   44.3490   37.9870 N.am  203  ASN203     -0.0877
     31  N          9.8810   51.5060   35.2540 N.3   207  LEU207     -0.1245
     32  CA         8.6200   51.8810   35.9050 C.3   207  LEU207      0.1561
     33  C          8.6400   53.2980   36.4470 C.2   207  LEU207      0.2260
     34  O          7.5680   53.8640   36.7120 O.2   207  LEU207     -0.2867
     35  CB         8.3930   50.9430   37.1230 C.3   207  LEU207      0.0270
     36  CG         8.0700   49.5070   36.6860 C.3   207  LEU207      0.0019
     37  CD1        8.0050   48.6590   38.0410 C.3   207  LEU207      0.0001
     38  CD2        6.6750   49.4880   35.9620 C.3   207  LEU207      0.0001
     39  N         20.4830   37.3490   48.0280 N.3   333  ASP333     -0.1239
     40  CA        19.3980   38.2900   47.6570 C.3   333  ASP333      0.1674
     41  C         18.0700   37.5080   47.5010 C.2   333  ASP333      0.2266
     42  O         17.8760   36.8090   46.4990 O.2   333  ASP333     -0.2867
     43  CB        19.8120   38.9590   46.3440 C.3   333  ASP333      0.1410
     44  CG        18.7850   39.9300   45.8380 C.2   333  ASP333      0.3668
     45  OD1       17.8190   40.1590   46.6060 O.co2 333  ASP333     -0.2456
     46  OD2       18.9420   40.4320   44.6840 O.co2 333  ASP333     -0.2456
     47  N         11.5040   41.5420   42.9080 N.3   371  GLU371     -0.1245
     48  CA        12.3750   41.2870   41.7600 C.3   371  GLU371      0.1567
     49  C         11.7040   41.6630   40.4570 C.2   371  GLU371      0.2260
     50  O         12.3730   41.8540   39.4550 O.2   371  GLU371     -0.2867
     51  CB        12.8130   39.8100   41.7020 C.3   371  GLU371      0.0388
     52  CG        13.7390   39.3590   42.8670 C.3   371  GLU371      0.1160
     53  CD        15.1480   40.0310   42.8730 C.2   371  GLU371      0.3649
     54  OE1       15.4550   40.9880   42.1400 O.co2 371  GLU371     -0.2457
     55  OE2       15.9740   39.6230   43.7090 O.co2 371  GLU371     -0.2457
     56  N          9.9320   44.4490   40.0670 N.3   373  GLY373     -0.1210
     57  CA         9.7210   45.9010   39.9500 C.3   373  GLY373      0.1956
     58  C          9.2410   46.5580   41.2430 C.2   373  GLY373      0.2611
     59  O          8.4810   47.5510   41.1710 O.2   373  GLY373     -0.2717
     60  N          9.6420   46.0060   42.3870 N.am  374  LEU374     -0.1979
     61  CA         9.2830   46.5960   43.6940 C.3   374  LEU374      0.1596
     62  C          7.7360   46.5380   43.8130 C.2   374  LEU374      0.2287
     63  O          7.1100   47.4170   44.3790 O.2   374  LEU374     -0.2864
     64  CB         9.7790   48.0580   43.8250 C.3   374  LEU374      0.0297
     65  CG        11.1560   48.3800   43.2270 C.3   374  LEU374      0.0022
     66  CD1       11.5800   49.8540   43.3690 C.3   374  LEU374      0.0001
     67  CD2       12.2170   47.4400   43.8510 C.3   374  LEU374      0.0001
     68  N         16.9610   44.2980   52.4750 N.3   399  ASP399     -0.1225
     69  CA        17.3490   43.3070   51.4650 C.3   399  ASP399      0.1805
     70  C         18.7450   42.7680   51.9020 C.2   399  ASP399      0.2598
     71  O         19.0650   42.8030   53.1010 O.2   399  ASP399     -0.2718
     72  CB        17.3360   43.9300   50.0690 C.3   399  ASP399      0.1424
     73  CG        17.2290   42.8820   48.9350 C.2   399  ASP399      0.3668
     74  OD1       17.2890   41.6850   49.2500 O.co2 399  ASP399     -0.2456
     75  OD2       17.1360   43.2950   47.7540 O.co2 399  ASP399     -0.2456
     76  N         19.5030   42.2190   50.9560 N.am  400  SER400     -0.1952
     77  CA        20.7830   41.5120   51.2100 C.3   400  SER400      0.1924
     78  C         21.5840   42.1380   52.3580 C.2   400  SER400      0.2314
     79  O         21.8770   43.3380   52.3410 O.2   400  SER400     -0.2863
     80  CB        21.6090   41.4970   49.9540 C.3   400  SER400      0.2116
     81  OG        20.8150   40.9810   48.9110 O.3   400  SER400     -0.2180
     82  N         23.9100   58.7750   49.4550 N.3   460  LYS460     -0.1245
     83  CA        22.5010   59.0690   49.1310 C.3   460  LYS460      0.1561
     84  C         21.7880   57.7760   48.8100 C.2   460  LYS460      0.2260
     85  O         22.4230   56.8350   48.3240 O.2   460  LYS460     -0.2867
     86  CB        22.4370   59.9460   47.8610 C.3   460  LYS460      0.0271
     87  CG        23.3050   61.1970   47.9170 C.3   460  LYS460      0.0035
     88  CD        23.0250   62.1510   46.7470 C.3   460  LYS460      0.0206
     89  CE        23.5300   61.5860   45.4520 C.3   460  LYS460      0.1093
     90  NZ        25.0120   61.6770   45.4040 N.3   460  LYS460     -0.1314
     91  N         17.9230   53.8530   43.9600 N.3   463  SER463     -0.1202
     92  CA        16.7040   53.0630   43.9230 C.3   463  SER463      0.2020
     93  C         17.0250   51.6330   43.5090 C.2   463  SER463      0.2619
     94  O         18.1820   51.1770   43.6950 O.2   463  SER463     -0.2717
     95  CB        15.6530   53.7290   43.0520 C.3   463  SER463      0.2103
     96  OG        14.4640   52.9710   43.1000 O.3   463  SER463     -0.2182
     97  N         16.0150   50.8920   43.0200 N.am  464  GLY464     -0.1942
     98  CA        16.2310   49.4840   42.7240 C.3   464  GLY464      0.2014
     99  C         16.0530   48.6610   44.0000 C.2   464  GLY464      0.2638
    100  O         16.5210   47.5280   44.1080 O.2   464  GLY464     -0.2714
    101  N         15.3000   49.2120   44.9440 N.am  465  ASN465     -0.1972
    102  CA        14.9020   48.3980   46.1260 C.3   465  ASN465      0.1688
    103  C         13.6430   48.9570   46.7660 C.2   465  ASN465      0.2292
    104  O         13.1910   50.0410   46.3700 O.2   465  ASN465     -0.2864
    105  CB        16.0480   48.1760   47.1050 C.3   465  ASN465      0.1181
    106  CG        16.0420   46.7420   47.6390 C.2   465  ASN465      0.2629
    107  OD1       15.0990   46.3060   48.3140 O.2   465  ASN465     -0.2716
    108  ND2       17.0450   45.9730   47.2450 N.am  465  ASN465     -0.0877
    109  N         19.1920   52.3050   54.6300 N.3   480  ARG480     -0.1245
    110  CA        19.5160   50.8980   54.4240 C.3   480  ARG480      0.1563
    111  C         20.9760   50.7250   54.8580 C.2   480  ARG480      0.2260
    112  O         21.7550   51.6780   54.8520 O.2   480  ARG480     -0.2867
    113  CB        19.3720   50.5390   52.9200 C.3   480  ARG480      0.0307
    114  CG        20.4720   51.1960   51.9840 C.3   480  ARG480      0.0489
    115  CD        20.0430   51.0950   50.5090 C.3   480  ARG480      0.2205
    116  NE        19.9030   49.6710   50.0660 N.pl3 480  ARG480     -0.0865
    117  CZ        19.8680   49.2890   48.7850 C.cat 480  ARG480      0.5346
    118  NH1       20.0130   50.1770   47.7870 N.pl3 480  ARG480      0.1354
    119  NH2       19.6730   47.9940   48.5060 N.pl3 480  ARG480      0.1354
    120  N         24.3050   47.4750   54.9520 N.3   482  ARG482     -0.1245
    121  CA        24.7030   46.0740   54.7510 C.3   482  ARG482      0.1563
    122  C         26.2060   46.0440   54.7990 C.2   482  ARG482      0.2260
    123  O         26.8470   47.1010   54.7650 O.2   482  ARG482     -0.2867
    124  CB        24.2260   45.5760   53.3590 C.3   482  ARG482      0.0307
    125  CG        24.7350   46.4330   52.1730 C.3   482  ARG482      0.0489
    126  CD        24.5280   45.6910   50.8290 C.3   482  ARG482      0.2205
    127  NE        23.0730   45.4540   50.6660 N.pl3 482  ARG482     -0.0865
    128  CZ        22.4390   45.3570   49.5000 C.cat 482  ARG482      0.5346
    129  NH1       23.0970   45.5100   48.3580 N.pl3 482  ARG482      0.1354
    130  NH2       21.1280   45.1260   49.4660 N.pl3 482  ARG482      0.1354
    131  N         28.0450   41.8840   43.5660 N.3   495  TYR495     -0.1241
    132  CA        28.8310   40.6540   43.8010 C.3   495  TYR495      0.1605
    133  C         28.6880   39.7170   42.5780 C.2   495  TYR495      0.2264
    134  O         27.6500   39.7560   41.8930 O.2   495  TYR495     -0.2867
    135  CB        28.4180   39.9660   45.1080 C.3   495  TYR495      0.0534
    136  CG        26.9380   39.6580   45.1830 C.ar  495  TYR495     -0.0201
    137  CD1       26.4420   38.3670   44.9130 C.ar  495  TYR495     -0.0009
    138  CD2       26.0290   40.6780   45.5300 C.ar  495  TYR495     -0.0009
    139  CE1       25.0230   38.1090   45.0060 C.ar  495  TYR495      0.0417
    140  CE2       24.6640   40.4210   45.6070 C.ar  495  TYR495      0.0417
    141  CZ        24.1790   39.1610   45.3310 C.ar  495  TYR495      0.1957
    142  OH        22.8170   38.9480   45.4200 O.3   495  TYR495     -0.2866
    143  N         21.8990   37.1870   41.3060 N.3   499  HIS499     -0.1241
    144  CA        20.7320   36.7740   40.4490 C.3   499  HIS499      0.1621
    145  C         20.9830   35.5210   39.5980 C.2   499  HIS499      0.2264
    146  O         20.2370   35.2180   38.6650 O.2   499  HIS499     -0.2867
    147  CB        20.2420   37.9130   39.5680 C.3   499  HIS499      0.0745
    148  CG        19.4760   39.0040   40.3230 C.ar  499  HIS499      0.0817
    149  ND1       18.8210   40.0130   39.6580 N.ar  499  HIS499     -0.2268
    150  CD2       19.2530   39.2180   41.6490 C.ar  499  HIS499      0.1154
    151  CE1       18.1970   40.8000   40.5380 C.ar  499  HIS499      0.1986
    152  NE2       18.4330   40.3190   41.7480 N.ar  499  HIS499     -0.2212
    153  N         27.1140   71.7700   43.8110 N.3   556  LYS556     -0.1245
    154  CA        27.3400   70.7970   42.7460 C.3   556  LYS556      0.1561
    155  C         26.5430   71.1690   41.4910 C.2   556  LYS556      0.2260
    156  O         27.0770   71.1850   40.3710 O.2   556  LYS556     -0.2867
    157  CB        26.9630   69.3710   43.1960 C.3   556  LYS556      0.0271
    158  CG        27.1950   68.2800   42.1040 C.3   556  LYS556      0.0035
    159  CD        26.5920   66.9300   42.6040 C.3   556  LYS556      0.0206
    160  CE        26.6780   65.7440   41.5800 C.3   556  LYS556      0.1093
    161  NZ        25.5420   65.7960   40.5380 N.3   556  LYS556     -0.1314
    162  N         18.9130   53.7390   37.4120 N.3   643  LYS643     -0.1231
    163  CA        17.9650   53.6680   38.5110 C.3   643  LYS643      0.1693
    164  C         18.6530   53.3380   39.8330 C.2   643  LYS643      0.2592
    165  O         18.1720   53.7090   40.9210 O.2   643  LYS643     -0.2718
    166  CB        16.9560   52.5520   38.1670 C.3   643  LYS643      0.0285
    167  CG        15.8220   52.4760   39.2350 C.3   643  LYS643      0.0035
    168  CD        14.7690   51.4340   38.7770 C.3   643  LYS643      0.0206
    169  CE        13.4380   51.6500   39.5630 C.3   643  LYS643      0.1093
    170  NZ        12.5750   50.4620   39.2380 N.3   643  LYS643     -0.1314
    171  N         19.7970   52.6520   39.7860 N.am  644  TYR644     -0.1976
    172  CA        20.4610   52.3580   41.0650 C.3   644  TYR644      0.1639
    173  C         21.0700   53.5390   41.7820 C.2   644  TYR644      0.2290
    174  O         21.2840   53.4630   42.9820 O.2   644  TYR644     -0.2864
    175  CB        21.5840   51.3400   40.9030 C.3   644  TYR644      0.0560
    176  CG        21.1530   49.9520   40.4510 C.ar  644  TYR644     -0.0198
    177  CD1       20.0290   49.3260   41.0110 C.ar  644  TYR644     -0.0009
    178  CD2       21.8930   49.2650   39.4810 C.ar  644  TYR644     -0.0009
    179  CE1       19.6150   48.0110   40.5750 C.ar  644  TYR644      0.0417
    180  CE2       21.5180   47.9490   39.0430 C.ar  644  TYR644      0.0417
    181  CZ        20.3850   47.3410   39.6340 C.ar  644  TYR644      0.1957
    182  OH        19.9940   46.0760   39.2410 O.3   644  TYR644     -0.2866
    183  N         20.3730   60.8360   42.3320 N.3   647  GLU647     -0.1245
    184  CA        20.8020   62.1280   41.8220 C.3   647  GLU647      0.1567
    185  C         20.2220   63.2020   42.7290 C.2   647  GLU647      0.2260
    186  O         19.0800   63.0950   43.1270 O.2   647  GLU647     -0.2867
    187  CB        20.2520   62.3000   40.3820 C.3   647  GLU647      0.0388
    188  CG        20.8610   63.5820   39.6830 C.3   647  GLU647      0.1160
    189  CD        22.4060   63.5470   39.7530 C.2   647  GLU647      0.3649
    190  OE1       22.9920   62.7690   38.9820 O.co2 647  GLU647     -0.2457
    191  OE2       23.0370   64.2590   40.6060 O.co2 647  GLU647     -0.2457
@<TRIPOS>BOND
     1    15    14    2
     2    14    13    1
     3    13    16    1
     4    13    12    1
     5    16    17    1
     6     4     3    2
     7    17    18    1
     8    18    19    1
     9    25    26    2
    10    25    24    1
    11    12     3   am
    12     3     2    1
    13    24    27    1
    14    24    23    1
    15    31    32    1
    16    19    20    2
    17    10     8   ar
    18    10    11   ar
    19     8     6   ar
    20    32    33    1
    21    32    35    1
    22    27    28    1
    23    38    36    1
    24     2     1    1
    25     2     5    1
    26    29    28    2
    27    33    34    2
    28    11     9   ar
    29     6     5    1
    30     6     7   ar
    31    20    21    1
    32    20    22    1
    33    28    30   am
    34    36    35    1
    35    36    37    1
    36     9     7   ar
    37   162   163    1
    38   166   163    1
    39   166   167    1
    40   163   164    1
    41   146   145    2
    42   168   167    1
    43   168   169    1
    44   190   189   ar
    45   180   178   ar
    46   180   181   ar
    47   170   169    1
    48   182   181    1
    49    50    49    2
    50   178   176   ar
    51   147   148    1
    52   147   144    1
    53   145   144    1
    54   181   179   ar
    55   149   148   ar
    56   149   151   ar
    57   188   189    1
    58   188   187    1
    59   189   191   ar
    60   171   164   am
    61   171   172    1
    62   164   165    2
    63    57    56    1
    64    57    58    1
    65   148   150   ar
    66   156   155    2
    67   187   184    1
    68   144   143    1
    69   176   175    1
    70   176   177   ar
    71    49    48    1
    72   151   152   ar
    73   161   160    1
    74   179   177   ar
    75   175   172    1
    76   172   173    1
    77    59    58    2
    78    58    60   am
    79   155   154    1
    80   160   159    1
    81   150   152   ar
    82    51    48    1
    83    51    52    1
    84    48    47    1
    85   173   174    2
    86   184   183    1
    87   184   185    1
    88   134   133    2
    89   158   159    1
    90   158   157    1
    91    54    53   ar
    92    60    61    1
    93   133   132    1
    94    98    97    1
    95    98    99    1
    96   185   186    2
    97   154   157    1
    98   154   153    1
    99    52    53    1
   100    53    55   ar
   101    97    93   am
   102    95    96    1
   103    95    92    1
   104    65    66    1
   105    65    64    1
   106    65    67    1
   107    93    94    2
   108    93    92    1
   109   131   132    1
   110    61    62    1
   111    61    64    1
   112   132   135    1
   113    62    63    2
   114    92    91    1
   115    99   100    2
   116    99   101   am
   117    46    44   ar
   118   137   139   ar
   119   137   136   ar
   120   101   102    1
   121   139   141   ar
   122   135   136    1
   123   136   138   ar
   124   141   142    1
   125   141   140   ar
   126    90    89    1
   127    89    88    1
   128   138   140   ar
   129    44    43    1
   130    44    45   ar
   131   102   103    1
   132   102   105    1
   133    43    40    1
   134   104   103    2
   135    42    41    2
   136    88    87    1
   137   105   106    1
   138   108   106   am
   139    41    40    1
   140   106   107    2
   141    40    39    1
   142    75    73   ar
   143   118   117    1
   144    86    87    1
   145    86    83    1
   146    85    84    2
   147   129   128    1
   148   119   117    1
   149   117   116    2
   150    84    83    1
   151    81    80    1
   152    73    74   ar
   153    73    72    1
   154    83    82    1
   155   130   128    1
   156   128   127    2
   157    80    77    1
   158   116   115    1
   159    72    69    1
   160   115   114    1
   161   127   126    1
   162   126   125    1
   163    76    77    1
   164    76    70   am
   165    77    78    1
   166    69    70    1
   167    69    68    1
   168    70    71    2
   169   114   113    1
   170   125   124    1
   171    79    78    2
   172   113   110    1
   173   124   121    1
   174   110   109    1
   175   110   111    1
   176   121   122    1
   177   121   120    1
   178   123   122    2
   179   112   111    2
