@<TRIPOS>MOLECULE
tmp/2xelA01.pdb
 139 132 0 0 0
SMALL
GASTEIGER

@<TRIPOS>ATOM
      1  N         18.6770   46.3530   35.4550 N.3   264  LYS264     -0.1245
      2  CA        18.4520   47.6190   34.7530 C.3   264  LYS264      0.1561
      3  C         16.9860   48.0070   34.5830 C.2   264  LYS264      0.2260
      4  O         16.6390   49.1810   34.6730 O.2   264  LYS264     -0.2867
      5  CB        19.1200   47.5820   33.3750 C.3   264  LYS264      0.0271
      6  CG        20.6350   47.5250   33.4050 C.3   264  LYS264      0.0035
      7  CD        21.2020   47.0030   32.0860 C.3   264  LYS264      0.0206
      8  CE        20.6860   47.8140   30.9010 C.3   264  LYS264      0.1093
      9  NZ        21.1180   47.2910   29.5570 N.3   264  LYS264     -0.1314
     10  N         14.8930   52.1240   26.8730 N.3   419  ALA419     -0.1245
     11  CA        16.1090   51.4440   26.4650 C.3   419  ALA419      0.1562
     12  C         17.2980   52.3630   26.7060 C.2   419  ALA419      0.2260
     13  O         18.3290   51.9340   27.2210 O.2   419  ALA419     -0.2867
     14  CB        16.0230   51.0730   24.9910 C.3   419  ALA419      0.0290
     15  N         20.3660   51.7250   29.5070 N.3   423  ALA423     -0.1245
     16  CA        21.7350   51.6460   29.0210 C.3   423  ALA423      0.1562
     17  C         22.6080   52.6440   29.7740 C.2   423  ALA423      0.2260
     18  O         23.7400   52.3400   30.1380 O.2   423  ALA423     -0.2867
     19  CB        21.7720   51.9320   27.5250 C.3   423  ALA423      0.0290
     20  N         22.9780   51.2630   33.5000 N.3   426  GLY426     -0.1210
     21  CA        23.8330   50.0910   33.5230 C.3   426  GLY426      0.1956
     22  C         25.2870   50.4230   33.2440 C.2   426  GLY426      0.2611
     23  O         26.1970   49.8790   33.8780 O.2   426  GLY426     -0.2717
     24  N         25.5170   51.3220   32.2910 N.am  427  ARG427     -0.1979
     25  CA        26.8780   51.7040   31.9650 C.3   427  ARG427      0.1597
     26  C         27.4660   52.5110   33.1130 C.2   427  ARG427      0.2287
     27  O         28.6170   52.3170   33.4890 O.2   427  ARG427     -0.2864
     28  CB        26.8980   52.4880   30.6570 C.3   427  ARG427      0.0334
     29  CG        26.4810   51.6230   29.4810 C.3   427  ARG427      0.0492
     30  CD        26.4830   52.3590   28.1510 C.3   427  ARG427      0.2205
     31  NE        25.8960   51.5300   27.1020 N.pl3 427  ARG427     -0.0865
     32  CZ        26.0510   51.7460   25.8010 C.cat 427  ARG427      0.5346
     33  NH1       26.7780   52.7650   25.3730 N.pl3 427  ARG427      0.1354
     34  NH2       25.4780   50.9430   24.9260 N.pl3 427  ARG427      0.1354
     35  N         28.5090   50.2360   35.7830 N.3   430  LEU430     -0.1245
     36  CA        29.7230   49.5340   35.3840 C.3   430  LEU430      0.1561
     37  C         30.9430   50.4360   35.5270 C.2   430  LEU430      0.2260
     38  O         32.0130   49.9890   35.9400 O.2   430  LEU430     -0.2867
     39  CB        29.6040   49.0330   33.9430 C.3   430  LEU430      0.0270
     40  CG        30.8050   48.2630   33.3920 C.3   430  LEU430      0.0019
     41  CD1       31.0680   47.0130   34.2190 C.3   430  LEU430      0.0001
     42  CD2       30.5900   47.9070   31.9290 C.3   430  LEU430      0.0001
     43  N         18.3950   43.0330   24.3150 N.3   589  ASP589     -0.1225
     44  CA        18.8380   44.2720   24.9450 C.3   589  ASP589      0.1790
     45  C         19.2780   45.3040   23.9070 C.2   589  ASP589      0.2440
     46  O         20.4070   45.7960   23.9440 O.2   589  ASP589     -0.2733
     47  CB        19.9910   43.9690   25.8950 C.3   589  ASP589      0.1423
     48  CG        20.2960   45.1170   26.8190 C.2   589  ASP589      0.3668
     49  OD1       19.3350   45.7630   27.2890 O.co2 589  ASP589     -0.2456
     50  OD2       21.4900   45.3650   27.0900 O.co2 589  ASP589     -0.2456
     51  N         18.3780   45.6570   22.9750 N.am  590  PRO590     -0.2718
     52  CA        18.6440   46.6230   21.9110 C.3   590  PRO590      0.1535
     53  C         18.6610   48.0980   22.3270 C.2   590  PRO590      0.2598
     54  O         18.0590   48.4930   23.3240 O.2   590  PRO590     -0.2715
     55  CB        17.5280   46.3310   20.9210 C.3   590  PRO590      0.0310
     56  CG        16.3780   46.0790   21.8370 C.3   590  PRO590      0.0237
     57  CD        16.9940   45.1560   22.8780 C.3   590  PRO590      0.0939
     58  N         19.3570   48.8970   21.5250 N.am  591  LEU591     -0.1978
     59  CA        19.4790   50.3380   21.7170 C.3   591  LEU591      0.1596
     60  C         19.7560   50.9640   20.3490 C.2   591  LEU591      0.2287
     61  O         20.7630   50.6550   19.7130 O.2   591  LEU591     -0.2864
     62  CB        20.6360   50.6600   22.6590 C.3   591  LEU591      0.0297
     63  CG        20.9000   52.1440   22.9170 C.3   591  LEU591      0.0022
     64  CD1       19.6760   52.7860   23.5740 C.3   591  LEU591      0.0001
     65  CD2       22.1220   52.2850   23.8210 C.3   591  LEU591      0.0001
     66  N         22.9480   56.3640   20.5450 N.3   596  GLU596     -0.1245
     67  CA        24.3410   56.3230   20.9710 C.3   596  GLU596      0.1567
     68  C         25.1170   57.4360   20.3030 C.2   596  GLU596      0.2260
     69  O         25.9040   58.1310   20.9570 O.2   596  GLU596     -0.2867
     70  CB        24.9660   54.9790   20.6230 C.3   596  GLU596      0.0388
     71  CG        24.3160   53.8380   21.3530 C.3   596  GLU596      0.1160
     72  CD        25.0080   52.5380   21.1020 C.2   596  GLU596      0.3649
     73  OE1       25.0870   52.1250   19.9240 O.co2 596  GLU596     -0.2457
     74  OE2       25.4780   51.9320   22.0850 O.co2 596  GLU596     -0.2457
     75  N         35.3620   51.4400   24.8050 N.3   614  PRO614     -0.2102
     76  CA        35.0980   50.0720   24.2840 C.3   614  PRO614      0.1504
     77  C         34.6180   49.1320   25.3670 C.2   614  PRO614      0.2576
     78  O         33.5830   48.4880   25.2080 O.2   614  PRO614     -0.2718
     79  CB        36.4500   49.7200   23.6380 C.3   614  PRO614      0.0282
     80  CG        37.0050   51.0490   23.2210 C.3   614  PRO614      0.0208
     81  CD        36.7070   51.9060   24.4240 C.3   614  PRO614      0.0893
     82  N         35.3600   49.0360   26.4640 N.am  615  ASN615     -0.1961
     83  CA        34.9710   48.1240   27.5570 C.3   615  ASN615      0.1819
     84  C         33.7230   48.5080   28.3330 C.2   615  ASN615      0.2621
     85  O         33.4680   47.9570   29.4050 O.2   615  ASN615     -0.2715
     86  CB        36.1620   48.0140   28.5250 C.3   615  ASN615      0.1195
     87  CG        37.3630   47.3350   27.8960 C.2   615  ASN615      0.2630
     88  OD1       37.3160   46.1480   27.5530 O.2   615  ASN615     -0.2716
     89  ND2       38.4500   48.0860   27.7380 N.am  615  ASN615     -0.0877
     90  N         32.9330   49.4300   27.7950 N.am  616  ILE616     -0.1963
     91  CA        31.7010   49.8420   28.4550 C.3   616  ILE616      0.1727
     92  C         30.5640   50.0070   27.4570 C.2   616  ILE616      0.2616
     93  O         29.4460   49.5450   27.6920 O.2   616  ILE616     -0.2715
     94  CB        31.8930   51.1760   29.2150 C.3   616  ILE616      0.0290
     95  CG1       32.8320   50.9700   30.4040 C.3   616  ILE616      0.0022
     96  CG2       30.5530   51.7080   29.6870 C.3   616  ILE616      0.0023
     97  CD1       33.0770   52.2260   31.2140 C.3   616  ILE616      0.0001
     98  N         30.8590   50.6600   26.3390 N.am  617  ALA617     -0.1963
     99  CA        29.8630   50.9100   25.3040 C.3   617  ALA617      0.1728
    100  C         29.8040   49.8190   24.2420 C.2   617  ALA617      0.2617
    101  O         28.8660   49.7810   23.4440 O.2   617  ALA617     -0.2715
    102  CB        30.1410   52.2520   24.6440 C.3   617  ALA617      0.0334
    103  N         30.8000   48.9350   24.2310 N.am  618  SER618     -0.1936
    104  CA        30.8560   47.8600   23.2400 C.3   618  SER618      0.2055
    105  C         30.1130   46.5920   23.6460 C.2   618  SER618      0.2642
    106  O         29.8800   46.3320   24.8280 O.2   618  SER618     -0.2714
    107  CB        32.3140   47.4940   22.9280 C.3   618  SER618      0.2130
    108  OG        33.0220   48.5850   22.3610 O.3   618  SER618     -0.2179
    109  N         29.7420   45.8040   22.6460 N.am  619  ARG619     -0.1977
    110  CA        29.0500   44.5500   22.8880 C.3   619  ARG619      0.1597
    111  C         29.7540   43.4510   22.1190 C.2   619  ARG619      0.2287
    112  O         30.0190   43.5980   20.9270 O.2   619  ARG619     -0.2864
    113  CB        27.5940   44.6160   22.4180 C.3   619  ARG619      0.0334
    114  CG        26.8200   43.3110   22.6460 C.3   619  ARG619      0.0492
    115  CD        26.0970   43.3100   23.9840 C.3   619  ARG619      0.2205
    116  NE        24.9050   44.1490   23.9200 N.pl3 619  ARG619     -0.0865
    117  CZ        23.7680   43.7880   23.3320 C.cat 619  ARG619      0.5346
    118  NH1       23.6640   42.5950   22.7650 N.pl3 619  ARG619      0.1354
    119  NH2       22.7440   44.6300   23.2880 N.pl3 619  ARG619      0.1354
    120  N         24.7460   40.3220   17.8770 N.3   626  PHE626     -0.1241
    121  CA        25.4070   40.6360   19.1330 C.3   626  PHE626      0.1605
    122  C         25.1840   39.4680   20.0840 C.2   626  PHE626      0.2264
    123  O         24.2340   38.6930   19.9250 O.2   626  PHE626     -0.2867
    124  CB        24.8210   41.9110   19.7430 C.3   626  PHE626      0.0534
    125  CG        25.1600   43.1590   18.9790 C.ar  626  PHE626     -0.0203
    126  CD1       26.4830   43.5980   18.8890 C.ar  626  PHE626     -0.0042
    127  CD2       24.1610   43.8950   18.3430 C.ar  626  PHE626     -0.0042
    128  CE1       26.8090   44.7500   18.1780 C.ar  626  PHE626     -0.0003
    129  CE2       24.4740   45.0530   17.6270 C.ar  626  PHE626     -0.0003
    130  CZ        25.8040   45.4790   17.5450 C.ar  626  PHE626     -0.0000
    131  N         25.8370   35.8970   27.5810 N.3   632  GLN632     -0.1245
    132  CA        26.8740   36.6700   28.2460 C.3   632  GLN632      0.1566
    133  C         26.9190   36.2570   29.7110 C.2   632  GLN632      0.2260
    134  O         27.9800   35.9490   30.2540 O.2   632  GLN632     -0.2867
    135  CB        26.5600   38.1580   28.1270 C.3   632  GLN632      0.0367
    136  CG        27.7460   39.0610   28.3470 C.3   632  GLN632      0.0905
    137  CD        27.3700   40.5300   28.3000 C.2   632  GLN632      0.2608
    138  OE1       26.6920   40.9850   27.3720 O.2   632  GLN632     -0.2717
    139  NE2       27.8150   41.2850   29.3000 N.am  632  GLN632     -0.0878
@<TRIPOS>BOND
     1   130   129   ar
     2   130   128   ar
     3   129   127   ar
     4   120   121    1
     5   128   126   ar
     6   127   125   ar
     7   126   125   ar
     8   125   124    1
     9   121   124    1
    10   121   122    1
    11    61    60    2
    12    73    72   ar
    13   123   122    2
    14    68    69    2
    15    68    67    1
    16    60    59    1
    17    66    67    1
    18    70    67    1
    19    70    71    1
    20    55    56    1
    21    55    52    1
    22   112   111    2
    23    72    71    1
    24    72    74   ar
    25    58    59    1
    26    58    53   am
    27    59    62    1
    28    56    57    1
    29    52    53    1
    30    52    51    1
    31   111   110    1
    32    53    54    2
    33   108   107    1
    34   113   114    1
    35   113   110    1
    36   114   115    1
    37   109   110    1
    38   109   105   am
    39    62    63    1
    40   118   117    1
    41    57    51    1
    42    63    64    1
    43    63    65    1
    44   107   104    1
    45    51    45   am
    46    80    79    1
    47    80    81    1
    48   104   105    1
    49   104   103    1
    50   119   117    1
    51   117   116    2
    52   101   100    2
    53    79    76    1
    54   105   106    2
    55    45    46    2
    56    45    44    1
    57   116   115    1
    58   103   100   am
    59   100    99    1
    60    76    75    1
    61    76    77    1
    62    43    44    1
    63    81    75    1
    64   102    99    1
    65    34    32    1
    66    44    47    1
    67    14    11    1
    68    78    77    2
    69    99    98    1
    70    77    82   am
    71    33    32    1
    72    32    31    2
    73    47    48    1
    74    98    92   am
    75    82    83    1
    76    11    12    1
    77    11    10    1
    78    12    13    2
    79    48    50   ar
    80    48    49   ar
    81    31    30    1
    82   138   137    2
    83    92    93    2
    84    92    91    1
    85    19    16    1
    86    88    87    2
    87    83    84    1
    88    83    86    1
    89   131   132    1
    90    89    87   am
    91    90    84   am
    92    90    91    1
    93    87    86    1
    94   135   132    1
    95   135   136    1
    96    30    29    1
    97   132   133    1
    98   137   136    1
    99   137   139   am
   100    84    85    2
   101    91    94    1
   102    16    15    1
   103    16    17    1
   104    94    96    1
   105    94    95    1
   106    29    28    1
   107     9     8    1
   108   133   134    2
   109    17    18    2
   110    95    97    1
   111    28    25    1
   112     8     7    1
   113    42    40    1
   114    25    24    1
   115    25    26    1
   116     7     6    1
   117    24    22   am
   118    26    27    2
   119    22    21    1
   120    22    23    2
   121     5     6    1
   122     5     2    1
   123    40    39    1
   124    40    41    1
   125    20    21    1
   126    39    36    1
   127     3     4    2
   128     3     2    1
   129     2     1    1
   130    36    37    1
   131    36    35    1
   132    37    38    2
