@<TRIPOS>MOLECULE
tmp/2xelA00.pdb
 227 223 0 0 0
SMALL
GASTEIGER

@<TRIPOS>ATOM
      1  N         22.3300   34.4680   66.8070 N.3   114  ILE114     -0.1231
      2  CA        22.0020   34.2050   65.4160 C.3   114  ILE114      0.1692
      3  C         22.9660   33.2830   64.6990 C.2   114  ILE114      0.2592
      4  O         22.6870   32.8340   63.5830 O.2   114  ILE114     -0.2718
      5  CB        21.9310   35.5050   64.6230 C.3   114  ILE114      0.0266
      6  CG1       23.3140   36.1510   64.5970 C.3   114  ILE114      0.0019
      7  CG2       20.9070   36.4520   65.2610 C.3   114  ILE114      0.0020
      8  CD1       23.4070   37.3670   63.7180 C.3   114  ILE114      0.0001
      9  N         24.1040   32.9970   65.3130 N.am  115  TYR115     -0.1976
     10  CA        25.0530   32.1130   64.6640 C.3   115  TYR115      0.1639
     11  C         25.1030   30.7480   65.3310 C.2   115  TYR115      0.2290
     12  O         25.0610   30.6410   66.5560 O.2   115  TYR115     -0.2864
     13  CB        26.4420   32.7380   64.6550 C.3   115  TYR115      0.0560
     14  CG        26.5320   34.0080   63.8430 C.ar  115  TYR115     -0.0198
     15  CD1       26.3510   33.9880   62.4620 C.ar  115  TYR115     -0.0009
     16  CD2       26.8080   35.2330   64.4520 C.ar  115  TYR115     -0.0009
     17  CE1       26.4410   35.1520   61.7060 C.ar  115  TYR115      0.0417
     18  CE2       26.9000   36.4050   63.7020 C.ar  115  TYR115      0.0417
     19  CZ        26.7110   36.3540   62.3280 C.ar  115  TYR115      0.1957
     20  OH        26.7540   37.5100   61.5840 O.3   115  TYR115     -0.2866
     21  N         18.6600   35.6000   60.2770 N.3   126  ASN126     -0.1226
     22  CA        18.4800   37.0430   60.3090 C.3   126  ASN126      0.1770
     23  C         17.7080   37.4890   61.5470 C.2   126  ASN126      0.2439
     24  O         16.5680   37.0840   61.7620 O.2   126  ASN126     -0.2733
     25  CB        17.7410   37.5010   59.0570 C.3   126  ASN126      0.1168
     26  CG        17.8030   38.9990   58.8670 C.2   126  ASN126      0.2627
     27  OD1       17.9060   39.7560   59.8360 O.2   126  ASN126     -0.2716
     28  ND2       17.7310   39.4420   57.6130 N.am  126  ASN126     -0.0877
     29  N         18.3280   38.3290   62.3860 N.am  127  PRO127     -0.2718
     30  CA        17.6730   38.8190   63.6050 C.3   127  PRO127      0.1535
     31  C         16.6830   39.9610   63.3680 C.2   127  PRO127      0.2599
     32  O         15.7560   40.1610   64.1530 O.2   127  PRO127     -0.2715
     33  CB        18.8510   39.2600   64.4630 C.3   127  PRO127      0.0310
     34  CG        19.8360   39.7530   63.4240 C.3   127  PRO127      0.0237
     35  CD        19.7650   38.6630   62.3920 C.3   127  PRO127      0.0939
     36  N         16.8810   40.7010   62.2800 N.am  128  PHE128     -0.1960
     37  CA        16.0290   41.8420   61.9600 C.3   128  PHE128      0.1771
     38  C         16.0370   42.8940   63.0650 C.2   128  PHE128      0.2619
     39  O         15.0160   43.5040   63.3690 O.2   128  PHE128     -0.2715
     40  CB        14.5930   41.4020   61.6710 C.3   128  PHE128      0.0574
     41  CG        14.3740   40.9860   60.2530 C.ar  128  PHE128     -0.0200
     42  CD1       14.6910   41.8520   59.2140 C.ar  128  PHE128     -0.0042
     43  CD2       13.8960   39.7160   59.9480 C.ar  128  PHE128     -0.0042
     44  CE1       14.5450   41.4640   57.8810 C.ar  128  PHE128     -0.0003
     45  CE2       13.7450   39.3170   58.6210 C.ar  128  PHE128     -0.0003
     46  CZ        14.0740   40.1990   57.5800 C.ar  128  PHE128     -0.0000
     47  N         17.2050   43.0940   63.6630 N.am  129  LYS129     -0.1963
     48  CA        17.3790   44.0920   64.7040 C.3   129  LYS129      0.1728
     49  C         18.8660   44.1560   64.9670 C.2   129  LYS129      0.2616
     50  O         19.6050   43.2750   64.5440 O.2   129  LYS129     -0.2715
     51  CB        16.6280   43.7010   65.9830 C.3   129  LYS129      0.0311
     52  CG        17.3160   42.6520   66.8300 C.3   129  LYS129      0.0038
     53  CD        16.6990   42.6020   68.2160 C.3   129  LYS129      0.0206
     54  CE        17.5360   41.7460   69.1540 C.3   129  LYS129      0.1093
     55  NZ        16.9640   41.6710   70.5250 N.3   129  LYS129     -0.1314
     56  N         19.3160   45.1910   65.6620 N.am  130  ARG130     -0.1963
     57  CA        20.7400   45.3220   65.9420 C.3   130  ARG130      0.1729
     58  C         21.1550   44.5260   67.1680 C.2   130  ARG130      0.2616
     59  O         20.4150   44.4450   68.1480 O.2   130  ARG130     -0.2715
     60  CB        21.1150   46.7940   66.1550 C.3   130  ARG130      0.0348
     61  CG        20.7340   47.7230   65.0070 C.3   130  ARG130      0.0492
     62  CD        21.3270   49.1410   65.1680 C.3   130  ARG130      0.2205
     63  NE        20.9590   49.8230   66.4160 N.pl3 130  ARG130     -0.0865
     64  CZ        21.5950   49.6870   67.5820 C.cat 130  ARG130      0.5346
     65  NH1       22.6520   48.8890   67.6930 N.pl3 130  ARG130      0.1354
     66  NH2       21.1790   50.3610   68.6450 N.pl3 130  ARG130      0.1354
     67  N         22.3410   43.9330   67.0980 N.am  131  ILE131     -0.1977
     68  CA        22.9070   43.1760   68.2070 C.3   131  ILE131      0.1596
     69  C         24.3650   43.6230   68.2700 C.2   131  ILE131      0.2287
     70  O         25.0810   43.5400   67.2770 O.2   131  ILE131     -0.2864
     71  CB        22.8320   41.6600   67.9680 C.3   131  ILE131      0.0276
     72  CG1       21.3850   41.2460   67.6870 C.3   131  ILE131      0.0022
     73  CG2       23.3390   40.9190   69.2020 C.3   131  ILE131      0.0022
     74  CD1       21.2430   39.7810   67.3400 C.3   131  ILE131      0.0001
     75  N         29.4460   43.2950   66.6640 N.3   134  TYR134     -0.1241
     76  CA        30.3810   43.5730   65.5730 C.3   134  TYR134      0.1605
     77  C         31.3810   44.7080   65.8340 C.2   134  TYR134      0.2264
     78  O         32.0250   45.1940   64.9050 O.2   134  TYR134     -0.2867
     79  CB        29.6000   43.8670   64.2920 C.3   134  TYR134      0.0534
     80  CG        28.5970   42.7920   63.9210 C.ar  134  TYR134     -0.0201
     81  CD1       29.0170   41.5420   63.4830 C.ar  134  TYR134     -0.0009
     82  CD2       27.2240   43.0310   64.0050 C.ar  134  TYR134     -0.0009
     83  CE1       28.1010   40.5580   63.1350 C.ar  134  TYR134      0.0417
     84  CE2       26.3000   42.0510   63.6590 C.ar  134  TYR134      0.0417
     85  CZ        26.7470   40.8210   63.2250 C.ar  134  TYR134      0.1957
     86  OH        25.8460   39.8480   62.8730 O.3   134  TYR134     -0.2866
     87  N         17.9610   33.0520   50.6200 N.3   179  GLU179     -0.1231
     88  CA        16.9530   33.6440   49.7620 C.3   179  GLU179      0.1699
     89  C         16.9820   35.1450   50.0330 C.2   179  GLU179      0.2593
     90  O         17.6770   35.6050   50.9390 O.2   179  GLU179     -0.2718
     91  CB        15.5720   33.0480   50.0530 C.3   179  GLU179      0.0402
     92  CG        15.0830   33.2400   51.4650 C.3   179  GLU179      0.1161
     93  CD        13.6610   32.7300   51.6470 C.2   179  GLU179      0.3649
     94  OE1       13.4580   31.4970   51.6830 O.co2 179  GLU179     -0.2457
     95  OE2       12.7440   33.5690   51.7370 O.co2 179  GLU179     -0.2457
     96  N         16.2430   35.9130   49.2480 N.am  180  SER180     -0.1938
     97  CA        16.2390   37.3560   49.4320 C.3   180  SER180      0.2055
     98  C         15.8420   37.7820   50.8420 C.2   180  SER180      0.2644
     99  O         14.8240   37.3300   51.3770 O.2   180  SER180     -0.2714
    100  CB        15.3090   38.0120   48.4290 C.3   180  SER180      0.2130
    101  OG        15.2360   39.3930   48.6830 O.3   180  SER180     -0.2179
    102  N         16.6500   38.6630   51.4290 N.am  181  GLY181     -0.1939
    103  CA        16.3760   39.1500   52.7720 C.3   181  GLY181      0.2014
    104  C         17.0410   38.3580   53.8880 C.2   181  GLY181      0.2639
    105  O         17.1070   38.8140   55.0200 O.2   181  GLY181     -0.2714
    106  N         17.5460   37.1730   53.5720 N.am  182  ALA182     -0.1963
    107  CA        18.1700   36.3150   54.5740 C.3   182  ALA182      0.1728
    108  C         19.3150   36.9390   55.3830 C.2   182  ALA182      0.2617
    109  O         19.4670   36.6270   56.5600 O.2   182  ALA182     -0.2715
    110  CB        18.6400   35.0200   53.9120 C.3   182  ALA182      0.0334
    111  N         20.1230   37.8020   54.7600 N.am  183  GLY183     -0.1940
    112  CA        21.2260   38.4300   55.4700 C.3   183  GLY183      0.2014
    113  C         22.5920   38.2490   54.8190 C.2   183  GLY183      0.2639
    114  O         23.6240   38.4140   55.4730 O.2   183  GLY183     -0.2714
    115  N         22.6110   37.9230   53.5300 N.am  184  LYS184     -0.1963
    116  CA        23.8650   37.7190   52.8050 C.3   184  LYS184      0.1728
    117  C         24.7710   38.9460   52.7460 C.2   184  LYS184      0.2617
    118  O         25.9750   38.8610   53.0080 O.2   184  LYS184     -0.2715
    119  CB        23.5740   37.2750   51.3760 C.3   184  LYS184      0.0311
    120  CG        22.9460   35.8940   51.2380 C.3   184  LYS184      0.0038
    121  CD        22.6670   35.6140   49.7710 C.3   184  LYS184      0.0206
    122  CE        21.7320   36.6600   49.1650 C.3   184  LYS184      0.1093
    123  NZ        20.3330   36.5720   49.6760 N.3   184  LYS184     -0.1314
    124  N         24.1860   40.0840   52.3860 N.am  185  THR185     -0.1937
    125  CA        24.9210   41.3280   52.2660 C.3   185  THR185      0.2028
    126  C         25.4530   41.7950   53.6130 C.2   185  THR185      0.2642
    127  O         26.6300   42.1440   53.7430 O.2   185  THR185     -0.2714
    128  CB        24.0330   42.4440   51.6710 C.3   185  THR185      0.1808
    129  OG1       23.7190   42.1300   50.3120 O.3   185  THR185     -0.2208
    130  CG2       24.7450   43.7950   51.7150 C.3   185  THR185      0.0379
    131  N         24.5850   41.8060   54.6160 N.am  186  GLU186     -0.1963
    132  CA        24.9910   42.2540   55.9360 C.3   186  GLU186      0.1733
    133  C         26.1890   41.4360   56.4130 C.2   186  GLU186      0.2616
    134  O         27.1630   41.9960   56.9030 O.2   186  GLU186     -0.2715
    135  CB        23.8140   42.1420   56.9040 C.3   186  GLU186      0.0429
    136  CG        23.6600   43.3220   57.8460 C.3   186  GLU186      0.1163
    137  CD        23.5860   44.6720   57.1430 C.2   186  GLU186      0.3649
    138  OE1       22.9660   44.7720   56.0640 O.co2 186  GLU186     -0.2457
    139  OE2       24.1370   45.6520   57.6880 O.co2 186  GLU186     -0.2457
    140  N         26.1360   40.1210   56.2460 N.am  187  ASN187     -0.1972
    141  CA        27.2530   39.2830   56.6590 C.3   187  ASN187      0.1688
    142  C         28.4800   39.4970   55.7840 C.2   187  ASN187      0.2292
    143  O         29.6080   39.4050   56.2620 O.2   187  ASN187     -0.2864
    144  CB        26.8570   37.8120   56.6620 C.3   187  ASN187      0.1181
    145  CG        26.0230   37.4450   57.8770 C.2   187  ASN187      0.2629
    146  OD1       24.7990   37.5990   57.8810 O.2   187  ASN187     -0.2716
    147  ND2       26.6910   36.9740   58.9290 N.am  187  ASN187     -0.0877
    148  N         30.5310   42.1590   57.1240 N.3   190  LYS190     -0.1245
    149  CA        31.2930   41.7980   58.3100 C.3   190  LYS190      0.1561
    150  C         32.5530   41.0480   57.9380 C.2   190  LYS190      0.2260
    151  O         33.5940   41.2280   58.5650 O.2   190  LYS190     -0.2867
    152  CB        30.4440   40.9600   59.2640 C.3   190  LYS190      0.0271
    153  CG        29.1120   41.6030   59.6180 C.3   190  LYS190      0.0035
    154  CD        29.2780   43.0500   60.0550 C.3   190  LYS190      0.0206
    155  CE        27.9210   43.7120   60.2500 C.3   190  LYS190      0.1093
    156  NZ        28.0390   45.1620   60.5780 N.3   190  LYS190     -0.1314
    157  N         12.7610   42.7470   50.8040 N.3   232  ASN232     -0.1225
    158  CA        13.9130   43.3150   51.4830 C.3   232  ASN232      0.1785
    159  C         14.0100   44.8200   51.2190 C.2   232  ASN232      0.2597
    160  O         14.0450   45.2590   50.0690 O.2   232  ASN232     -0.2718
    161  CB        15.1730   42.6030   50.9850 C.3   232  ASN232      0.1169
    162  CG        16.4210   43.0840   51.6710 C.2   232  ASN232      0.2627
    163  OD1       16.3660   43.9470   52.5410 O.2   232  ASN232     -0.2716
    164  ND2       17.5630   42.5310   51.2830 N.am  232  ASN232     -0.0877
    165  N         14.0460   45.6090   52.2860 N.am  233  ASN233     -0.1960
    166  CA        14.1200   47.0550   52.1350 C.3   233  ASN233      0.1819
    167  C         15.4260   47.5000   51.5010 C.2   233  ASN233      0.2621
    168  O         15.4720   48.5340   50.8320 O.2   233  ASN233     -0.2715
    169  CB        13.9270   47.7440   53.4840 C.3   233  ASN233      0.1195
    170  CG        12.4870   47.7130   53.9460 C.2   233  ASN233      0.2630
    171  OD1       11.5640   47.9070   53.1530 O.2   233  ASN233     -0.2716
    172  ND2       12.2860   47.4830   55.2310 N.am  233  ASN233     -0.0877
    173  N         16.4810   46.7150   51.7070 N.am  234  ASN234     -0.1958
    174  CA        17.7840   47.0180   51.1280 C.3   234  ASN234      0.1819
    175  C         18.2040   45.8540   50.2210 C.2   234  ASN234      0.2622
    176  O         19.2640   45.2400   50.4100 O.2   234  ASN234     -0.2715
    177  CB        18.8390   47.2110   52.2170 C.3   234  ASN234      0.1195
    178  CG        20.1110   47.8030   51.6710 C.2   234  ASN234      0.2630
    179  OD1       20.1030   48.5760   50.7090 O.2   234  ASN234     -0.2716
    180  ND2       21.2280   47.4390   52.2880 N.am  234  ASN234     -0.0877
    181  N         17.3680   45.5440   49.2390 N.am  235  SER235     -0.1936
    182  CA        17.6750   44.4400   48.3430 C.3   235  SER235      0.2055
    183  C         18.7750   44.7680   47.3410 C.2   235  SER235      0.2643
    184  O         18.7550   45.8230   46.7060 O.2   235  SER235     -0.2714
    185  CB        16.4110   44.0080   47.5950 C.3   235  SER235      0.2130
    186  OG        16.6840   42.9350   46.7230 O.3   235  SER235     -0.2179
    187  N         19.7420   43.8640   47.2150 N.am  236  SER236     -0.1949
    188  CA        20.8480   44.0200   46.2670 C.3   236  SER236      0.1924
    189  C         20.2980   43.6040   44.9190 C.2   236  SER236      0.2314
    190  O         19.9110   42.4530   44.7450 O.2   236  SER236     -0.2863
    191  CB        21.9930   43.0750   46.6120 C.3   236  SER236      0.2116
    192  OG        22.2870   43.0950   47.9900 O.3   236  SER236     -0.2180
    193  N         28.5630   37.6920   47.1380 N.3   453  ASP453     -0.1225
    194  CA        27.3120   38.2650   47.6220 C.3   453  ASP453      0.1805
    195  C         26.3590   38.4680   46.4400 C.2   453  ASP453      0.2598
    196  O         26.3220   39.5370   45.8330 O.2   453  ASP453     -0.2718
    197  CB        27.5900   39.5940   48.3260 C.3   453  ASP453      0.1424
    198  CG        26.3450   40.2200   48.8940 C.2   453  ASP453      0.3668
    199  OD1       25.3960   39.4690   49.1730 O.co2 453  ASP453     -0.2456
    200  OD2       26.3140   41.4570   49.0740 O.co2 453  ASP453     -0.2456
    201  N         25.5950   37.4240   46.1300 N.am  454  ILE454     -0.1966
    202  CA        24.6460   37.4120   45.0120 C.3   454  ILE454      0.1727
    203  C         23.2290   37.7970   45.4110 C.2   454  ILE454      0.2617
    204  O         22.8740   37.7660   46.5910 O.2   454  ILE454     -0.2715
    205  CB        24.5000   35.9990   44.4250 C.3   454  ILE454      0.0290
    206  CG1       23.8530   35.1040   45.4900 C.3   454  ILE454      0.0022
    207  CG2       25.8580   35.4490   43.9600 C.3   454  ILE454      0.0023
    208  CD1       23.6270   33.6790   45.0580 C.3   454  ILE454      0.0001
    209  N         22.4140   38.1450   44.4150 N.am  455  SER455     -0.1936
    210  CA        21.0080   38.4470   44.6650 C.3   455  SER455      0.2055
    211  C         20.3860   37.0850   45.0170 C.2   455  SER455      0.2643
    212  O         20.4910   36.1250   44.2550 O.2   455  SER455     -0.2714
    213  CB        20.3400   39.0210   43.4110 C.3   455  SER455      0.2130
    214  OG        20.7950   40.3370   43.1360 O.3   455  SER455     -0.2179
    215  N         19.7540   37.0070   46.1770 N.am  456  GLY456     -0.1954
    216  CA        19.1680   35.7550   46.6160 C.3   456  GLY456      0.1869
    217  C         17.8870   35.2870   45.9470 C.2   456  GLY456      0.2309
    218  O         17.1610   36.0450   45.3150 O.2   456  GLY456     -0.2863
    219  N          9.8230   40.5730   57.6920 N.3   661  GLN661     -0.1245
    220  CA        10.9640   41.3960   58.0850 C.3   661  GLN661      0.1566
    221  C         10.8370   41.8510   59.5330 C.2   661  GLN661      0.2260
    222  O         11.2720   42.9410   59.9010 O.2   661  GLN661     -0.2867
    223  CB        11.1030   42.5940   57.1390 C.3   661  GLN661      0.0367
    224  CG        11.6710   42.1930   55.7770 C.3   661  GLN661      0.0905
    225  CD        11.6660   43.3110   54.7490 C.2   661  GLN661      0.2608
    226  OE1       10.7150   43.4510   53.9730 O.2   661  GLN661     -0.2717
    227  NE2       12.7340   44.1130   54.7320 N.am  661  GLN661     -0.0878
@<TRIPOS>BOND
     1   214   213    1
     2   213   210    1
     3   207   205    1
     4   212   211    2
     5   209   210    1
     6   209   203   am
     7   205   202    1
     8   205   206    1
     9   210   211    1
    10   190   189    2
    11   189   188    1
    12   202   203    1
    13   202   201    1
    14   211   215   am
    15   208   206    1
    16   218   217    2
    17   203   204    2
    18   196   195    2
    19   217   216    1
    20   201   195   am
    21   215   216    1
    22   188   191    1
    23   188   187    1
    24   195   194    1
    25   191   192    1
    26   184   183    2
    27   186   185    1
    28   193   194    1
    29   187   183   am
    30   183   182    1
    31   185   182    1
    32   194   197    1
    33   197   198    1
    34   182   181    1
    35   100   101    1
    36   100    97    1
    37   198   200   ar
    38   198   199   ar
    39   122   123    1
    40   122   121    1
    41   181   175   am
    42    96    97    1
    43    96    89   am
    44    97    98    1
    45    88    89    1
    46    88    91    1
    47    88    87    1
    48   121   120    1
    49    89    90    2
    50    91    92    1
    51   160   159    2
    52   175   176    2
    53   175   174    1
    54   129   128    1
    55   179   178    2
    56   157   158    1
    57   168   167    2
    58    98    99    2
    59    98   102   am
    60   161   158    1
    61   161   162    1
    62   174   173    1
    63   174   177    1
    64   159   158    1
    65   159   165   am
    66   120   119    1
    67   164   162   am
    68   119   116    1
    69   102   103    1
    70    92    93    1
    71   167   173   am
    72   167   166    1
    73    93    94   ar
    74    93    95   ar
    75   162   163    2
    76   128   130    1
    77   128   125    1
    78   178   177    1
    79   178   180   am
    80   166   165    1
    81   166   169    1
    82   125   124    1
    83   125   126    1
    84   124   117   am
    85   117   116    1
    86   117   118    2
    87   103   104    1
    88   116   115    1
    89   171   170    2
    90   169   170    1
    91   115   113   am
    92   106   104   am
    93   106   107    1
    94   126   127    2
    95   126   131   am
    96   104   105    2
    97   110   107    1
    98   170   172   am
    99   226   225    2
   100   107   108    1
   101   131   132    1
   102   227   225   am
   103   225   224    1
   104   111   108   am
   105   111   112    1
   106   113   112    1
   107   113   114    2
   108   108   109    2
   109   224   223    1
   110   142   143    2
   111   142   141    1
   112   132   133    1
   113   132   135    1
   114   138   137   ar
   115   140   133   am
   116   140   141    1
   117   133   134    2
   118   141   144    1
   119   144   145    1
   120   135   136    1
   121   148   149    1
   122   223   220    1
   123   137   139   ar
   124   137   136    1
   125    46    44   ar
   126    46    45   ar
   127    28    26   am
   128   219   220    1
   129   145   146    2
   130   145   147   am
   131    44    42   ar
   132   150   149    1
   133   150   151    2
   134   220   221    1
   135   149   152    1
   136    45    43   ar
   137    26    25    1
   138    26    27    2
   139    25    22    1
   140    42    41   ar
   141   152   153    1
   142   221   222    2
   143   153   154    1
   144    43    41   ar
   145   154   155    1
   146   155   156    1
   147    41    40    1
   148    21    22    1
   149    22    23    1
   150    23    24    2
   151    23    29   am
   152    20    19    1
   153    40    37    1
   154    17    19   ar
   155    17    15   ar
   156    37    36    1
   157    37    38    1
   158    36    31   am
   159    19    18   ar
   160    29    35    1
   161    29    30    1
   162    35    34    1
   163    15    14   ar
   164    86    85    1
   165    38    39    2
   166    38    47   am
   167    83    85   ar
   168    83    81   ar
   169    85    84   ar
   170    31    30    1
   171    31    32    2
   172    34    33    1
   173    81    80   ar
   174     4     3    2
   175    30    33    1
   176    84    82   ar
   177    47    48    1
   178    18    16   ar
   179     8     6    1
   180    14    16   ar
   181    14    13    1
   182    80    82   ar
   183    80    79    1
   184    79    76    1
   185    50    49    2
   186     6     5    1
   187     5     7    1
   188     5     2    1
   189    13    10    1
   190    10     9    1
   191    10    11    1
   192     3     9   am
   193     3     2    1
   194    48    49    1
   195    48    51    1
   196    78    77    2
   197    49    56   am
   198    61    62    1
   199    61    60    1
   200    62    63    1
   201    11    12    2
   202     2     1    1
   203    76    77    1
   204    76    75    1
   205    56    57    1
   206    57    60    1
   207    57    58    1
   208    51    52    1
   209    63    64    2
   210    52    53    1
   211    67    58   am
   212    67    68    1
   213    58    59    2
   214    70    69    2
   215    74    72    1
   216    64    65    1
   217    64    66    1
   218    72    71    1
   219    71    68    1
   220    71    73    1
   221    68    69    1
   222    53    54    1
   223    54    55    1
