@<TRIPOS>MOLECULE
tmp/2xemB00.pdb
 154 143 0 0 0
SMALL
GASTEIGER

@<TRIPOS>ATOM
      1  N        -21.4350   17.9380   18.1680 N.3     1  ASP1       -0.1239
      2  CA       -20.2470   18.2680   17.3720 C.3     1  ASP1        0.1674
      3  C        -19.0090   17.5420   17.9450 C.2     1  ASP1        0.2266
      4  O        -18.4980   17.9550   18.9920 O.2     1  ASP1       -0.2867
      5  CB       -20.0360   19.8040   17.3490 C.3     1  ASP1        0.1410
      6  CG       -19.5830   20.3730   16.0140 C.2     1  ASP1        0.3668
      7  OD1      -18.4840   19.9830   15.5410 O.co2   1  ASP1       -0.2456
      8  OD2      -20.2980   21.2610   15.4670 O.co2   1  ASP1       -0.2456
      9  N        -15.0040   15.9430   17.5180 N.3     3  TYR3       -0.1241
     10  CA       -13.7380   15.7470   16.8340 C.3     3  TYR3        0.1605
     11  C        -13.4800   14.2500   16.6760 C.2     3  TYR3        0.2264
     12  O        -13.5680   13.5130   17.6420 O.2     3  TYR3       -0.2867
     13  CB       -12.6040   16.4490   17.5980 C.3     3  TYR3        0.0534
     14  CG       -11.2640   16.1960   16.9600 C.ar    3  TYR3       -0.0201
     15  CD1      -10.8860   16.8720   15.8070 C.ar    3  TYR3       -0.0009
     16  CD2      -10.4130   15.2050   17.4490 C.ar    3  TYR3       -0.0009
     17  CE1       -9.6830   16.5950   15.1750 C.ar    3  TYR3        0.0417
     18  CE2       -9.2040   14.9250   16.8310 C.ar    3  TYR3        0.0417
     19  CZ        -8.8400   15.6290   15.6970 C.ar    3  TYR3        0.1957
     20  OH        -7.6420   15.3830   15.0810 O.3     3  TYR3       -0.2866
     21  N         -6.1580   13.6870   21.5970 N.3    33  ARG33      -0.1231
     22  CA        -5.9740   15.0780   22.0870 C.3    33  ARG33       0.1694
     23  C         -4.8010   15.7830   21.3800 C.2    33  ARG33       0.2591
     24  O         -4.8620   16.9800   21.1030 O.2    33  ARG33      -0.2718
     25  CB        -5.8410   15.1110   23.6300 C.3    33  ARG33       0.0321
     26  CG        -4.5170   14.5110   24.1250 C.3    33  ARG33       0.0489
     27  CD        -4.3700   14.3900   25.6210 C.3    33  ARG33       0.2205
     28  NE        -2.9820   14.0620   25.9450 N.pl3  33  ARG33      -0.0865
     29  CZ        -2.5170   13.8770   27.1700 C.cat  33  ARG33       0.5346
     30  NH1       -3.3350   13.9290   28.2110 N.pl3  33  ARG33       0.1354
     31  NH2       -1.2270   13.6290   27.3660 N.pl3  33  ARG33       0.1354
     32  N         -3.7630   15.0090   21.0300 N.am   34  GLU34      -0.1979
     33  CA        -2.5410   15.5230   20.3920 C.3    34  GLU34       0.1602
     34  C         -2.7810   15.8690   18.9480 C.2    34  GLU34       0.2287
     35  O         -2.4040   16.9620   18.5260 O.2    34  GLU34      -0.2864
     36  CB        -1.3660   14.5530   20.5600 C.3    34  GLU34       0.0415
     37  CG        -0.9220   14.4510   22.0090 C.3    34  GLU34       0.1163
     38  CD        -0.2210   13.1610   22.3980 C.2    34  GLU34       0.3649
     39  OE1       -0.3310   12.7560   23.5820 O.co2  34  GLU34      -0.2457
     40  OE2        0.4490   12.5650   21.5260 O.co2  34  GLU34      -0.2457
     41  N         -5.7900   16.6530   17.8170 N.3    36  PHE36      -0.1227
     42  CA        -6.6030   17.8600   17.9370 C.3    36  PHE36       0.1736
     43  C         -5.7260   19.1230   18.0450 C.2    36  PHE36       0.2595
     44  O         -6.0470   20.1250   17.4050 O.2    36  PHE36      -0.2718
     45  CB        -7.5610   17.7890   19.1390 C.3    36  PHE36       0.0547
     46  CG        -8.4700   18.9920   19.2620 C.ar   36  PHE36      -0.0202
     47  CD1       -9.6340   19.0870   18.5020 C.ar   36  PHE36      -0.0042
     48  CD2       -8.1600   20.0370   20.1320 C.ar   36  PHE36      -0.0042
     49  CE1      -10.4780   20.2020   18.6130 C.ar   36  PHE36      -0.0003
     50  CE2       -8.9950   21.1590   20.2330 C.ar   36  PHE36      -0.0003
     51  CZ       -10.1500   21.2340   19.4790 C.ar   36  PHE36      -0.0000
     52  N         -4.6730   19.0850   18.8970 N.am   37  LEU37      -0.1980
     53  CA        -3.7730   20.2130   19.0970 C.3    37  LEU37       0.1596
     54  C         -3.1100   20.5720   17.7930 C.2    37  LEU37       0.2287
     55  O         -3.1100   21.7330   17.4180 O.2    37  LEU37      -0.2864
     56  CB        -2.6930   19.9140   20.1470 C.3    37  LEU37       0.0297
     57  CG        -2.8320   20.4300   21.5910 C.3    37  LEU37       0.0022
     58  CD1       -1.4360   20.6440   22.2000 C.3    37  LEU37       0.0001
     59  CD2       -3.6040   21.7700   21.6810 C.3    37  LEU37       0.0001
     60  N          4.4910   24.1570   23.7520 N.3    48  LEU48      -0.1245
     61  CA         4.8590   23.0500   24.6460 C.3    48  LEU48       0.1561
     62  C          6.3720   22.9300   24.8220 C.2    48  LEU48       0.2260
     63  O          6.8310   22.4870   25.8750 O.2    48  LEU48      -0.2867
     64  CB         4.2290   21.7060   24.2310 C.3    48  LEU48       0.0270
     65  CG         2.6950   21.6140   24.2950 C.3    48  LEU48       0.0019
     66  CD1        2.2130   20.3000   23.7560 C.3    48  LEU48       0.0001
     67  CD2        2.1580   21.8490   25.7180 C.3    48  LEU48       0.0001
     68  N          0.8020   20.9720   29.2830 N.3    54  LEU54      -0.1245
     69  CA        -0.5410   20.3780   29.3820 C.3    54  LEU54       0.1561
     70  C         -0.4290   19.0350   30.1010 C.2    54  LEU54       0.2260
     71  O          0.0220   18.0510   29.5500 O.2    54  LEU54      -0.2867
     72  CB        -1.2710   20.2660   28.0320 C.3    54  LEU54       0.0270
     73  CG        -1.4790   21.6070   27.2910 C.3    54  LEU54       0.0019
     74  CD1       -1.8520   21.4070   25.8310 C.3    54  LEU54       0.0001
     75  CD2       -2.4950   22.4460   27.9680 C.3    54  LEU54       0.0001
     76  N        -14.0830   12.7200   20.2250 N.3    77  MET77      -0.1230
     77  CA       -13.7790   13.5550   21.3830 C.3    77  MET77       0.1702
     78  C        -14.7170   14.7340   21.4810 C.2    77  MET77       0.2592
     79  O        -14.9930   15.3840   20.4860 O.2    77  MET77      -0.2718
     80  CB       -12.3370   14.0670   21.3300 C.3    77  MET77       0.0401
     81  CG       -11.9070   14.7910   22.6150 C.3    77  MET77       0.0596
     82  SD       -10.1780   15.2500   22.6080 S.3    77  MET77      -0.1393
     83  CE       -10.1450   16.4070   21.2670 C.3    77  MET77       0.0692
     84  N        -15.1770   15.0220   22.6970 N.am   78  MET78      -0.1965
     85  CA       -16.0250   16.1820   22.9760 C.3    78  MET78       0.1736
     86  C        -15.4830   16.9230   24.1730 C.2    78  MET78       0.2616
     87  O        -14.9660   16.3120   25.1020 O.2    78  MET78      -0.2715
     88  CB       -17.4600   15.7340   23.2610 C.3    78  MET78       0.0427
     89  CG       -18.1310   15.1810   22.0580 C.3    78  MET78       0.0599
     90  SD       -19.9170   15.2370   22.1640 S.3    78  MET78      -0.1393
     91  CE       -20.2270   16.9780   21.6530 C.3    78  MET78       0.0692
     92  N        -15.6340   18.2460   24.1550 N.am   79  LEU79      -0.1977
     93  CA       -15.4280   19.0900   25.3320 C.3    79  LEU79       0.1596
     94  C        -16.5430   18.8650   26.3440 C.2    79  LEU79       0.2287
     95  O        -17.7130   19.0720   26.0520 O.2    79  LEU79      -0.2864
     96  CB       -15.3120   20.5750   24.9490 C.3    79  LEU79       0.0297
     97  CG       -15.1150   21.5660   26.0990 C.3    79  LEU79       0.0022
     98  CD1      -13.7570   21.3600   26.8070 C.3    79  LEU79       0.0001
     99  CD2      -15.2860   22.9930   25.6000 C.3    79  LEU79       0.0001
    100  N         -9.2450   21.4910   31.3470 N.3    87  ILE87      -0.1245
    101  CA       -10.0560   21.0370   30.2320 C.3    87  ILE87       0.1561
    102  C        -10.4270   19.5690   30.5050 C.2    87  ILE87       0.2260
    103  O         -9.5360   18.7270   30.6260 O.2    87  ILE87      -0.2867
    104  CB        -9.2650   21.1490   28.8930 C.3    87  ILE87       0.0252
    105  CG1       -8.7760   22.5920   28.6350 C.3    87  ILE87       0.0019
    106  CG2      -10.1060   20.5960   27.7220 C.3    87  ILE87       0.0019
    107  CD1       -7.6420   22.7100   27.6470 C.3    87  ILE87       0.0001
    108  N        -12.3820   16.4970   28.7610 N.3    89  MET89      -0.1245
    109  CA       -12.8060   15.9240   27.4870 C.3    89  MET89       0.1570
    110  C        -13.4540   14.5710   27.7320 C.2    89  MET89       0.2261
    111  O        -13.0600   13.8640   28.6580 O.2    89  MET89      -0.2867
    112  CB       -11.5870   15.6830   26.5810 C.3    89  MET89       0.0387
    113  CG       -10.9300   16.9410   26.0790 C.3    89  MET89       0.0595
    114  SD        -9.1840   16.5280   25.7260 S.3    89  MET89      -0.1393
    115  CE        -8.4720   16.7270   27.2860 C.3    89  MET89       0.0692
    116  N         -7.1550   17.5830   31.5980 N.3   111  VAL111     -0.1245
    117  CA        -5.8100   18.1480   31.4550 C.3   111  VAL111      0.1561
    118  C         -5.7100   19.5500   32.1320 C.2   111  VAL111      0.2260
    119  O         -6.6840   20.2990   32.1180 O.2   111  VAL111     -0.2867
    120  CB        -5.2700   18.0970   29.9860 C.3   111  VAL111      0.0252
    121  CG1       -5.3690   16.6830   29.3850 C.3   111  VAL111      0.0019
    122  CG2       -5.9090   19.1520   29.0800 C.3   111  VAL111      0.0019
    123  N         -6.4250   27.7910   21.8920 N.3   130  LEU130     -0.1245
    124  CA        -6.9900   26.5310   22.3640 C.3   130  LEU130      0.1561
    125  C         -8.4380   26.7290   22.8220 C.2   130  LEU130      0.2260
    126  O         -9.3230   25.9990   22.3710 O.2   130  LEU130     -0.2867
    127  CB        -6.1080   25.8820   23.4560 C.3   130  LEU130      0.0270
    128  CG        -6.5350   24.5110   24.0260 C.3   130  LEU130      0.0019
    129  CD1       -6.7300   23.4630   22.9270 C.3   130  LEU130      0.0001
    130  CD2       -5.5130   24.0110   25.0380 C.3   130  LEU130      0.0001
    131  N        -10.5000   27.0160   19.6130 N.3   133  ALA133     -0.1231
    132  CA       -10.6260   25.7370   18.9110 C.3   133  ALA133      0.1694
    133  C        -11.6240   24.8230   19.6140 C.2   133  ALA133      0.2591
    134  O        -12.4220   24.1770   18.9420 O.2   133  ALA133     -0.2718
    135  CB        -9.2690   25.0570   18.8120 C.3   133  ALA133      0.0304
    136  N        -11.5930   24.8090   20.9670 N.am  134  LEU134     -0.1980
    137  CA       -12.4060   23.9720   21.8530 C.3   134  LEU134      0.1596
    138  C        -13.9110   24.1960   21.6890 C.2   134  LEU134      0.2287
    139  O        -14.6650   23.2180   21.6900 O.2   134  LEU134     -0.2864
    140  CB       -12.0070   24.2190   23.3140 C.3   134  LEU134      0.0297
    141  CG       -10.8190   23.4240   23.8270 C.3   134  LEU134      0.0022
    142  CD1      -10.0660   24.1980   24.8630 C.3   134  LEU134      0.0001
    143  CD2      -11.2700   22.1990   24.4880 C.3   134  LEU134      0.0001
    144  N        -15.7060   25.2770   18.9560 N.3   136  ARG136     -0.1245
    145  CA       -16.1120   24.6640   17.6780 C.3   136  ARG136      0.1563
    146  C        -16.3870   23.1640   17.8240 C.2   136  ARG136      0.2260
    147  O        -17.5300   22.7530   18.0230 O.2   136  ARG136     -0.2867
    148  CB       -15.0350   24.8790   16.5940 C.3   136  ARG136      0.0307
    149  CG       -15.0010   26.2830   15.9850 C.3   136  ARG136      0.0489
    150  CD       -15.9810   26.4460   14.8310 C.3   136  ARG136      0.2205
    151  NE       -16.0730   27.8350   14.3750 N.pl3 136  ARG136     -0.0865
    152  CZ       -17.1040   28.3410   13.7020 C.cat 136  ARG136      0.5346
    153  NH1      -18.1520   27.5800   13.4080 N.pl3 136  ARG136      0.1354
    154  NH2      -17.1000   29.6130   13.3270 N.pl3 136  ARG136      0.1354
@<TRIPOS>BOND
     1   154   152    1
     2   153   152    1
     3   152   151    2
     4   151   150    1
     5   150   149    1
     6    20    19    1
     7    17    19   ar
     8    17    15   ar
     9     8     6   ar
    10     7     6   ar
    11    19    18   ar
    12    15    14   ar
    13   149   148    1
    14     6     5    1
    15   148   145    1
    16    11    10    1
    17    11    12    2
    18    18    16   ar
    19    10     9    1
    20    10    13    1
    21    14    16   ar
    22    14    13    1
    23     5     2    1
    24     2     3    1
    25     2     1    1
    26    44    43    2
    27    55    54    2
    28   145   146    1
    29   145   144    1
    30    54    53    1
    31    41    42    1
    32   146   147    2
    33    42    43    1
    34    42    45    1
    35     3     4    2
    36    43    52   am
    37    47    49   ar
    38    47    46   ar
    39    35    34    2
    40    49    51   ar
    41   135   132    1
    42    52    53    1
    43   132   131    1
    44   132   133    1
    45   134   133    2
    46    34    33    1
    47    53    56    1
    48    45    46    1
    49    46    48   ar
    50    51    50   ar
    51   133   136   am
    52    48    50   ar
    53    56    57    1
    54    76    77    1
    55    33    36    1
    56    33    32    1
    57    79    78    2
    58    36    37    1
    59   136   137    1
    60    32    23   am
    61    24    23    2
    62    83    82    1
    63    80    77    1
    64    80    81    1
    65    23    22    1
    66    77    78    1
    67    78    84   am
    68    40    38   ar
    69    57    59    1
    70    57    58    1
    71    21    22    1
    72    91    90    1
    73   138   139    2
    74   138   137    1
    75   137   140    1
    76   123   124    1
    77    37    38    1
    78    89    90    1
    79    89    88    1
    80    22    25    1
    81   124   125    1
    82   124   127    1
    83   126   125    2
    84    38    39   ar
    85    82    81    1
    86    84    85    1
    87   129   128    1
    88    85    88    1
    89    85    86    1
    90   140   141    1
    91   127   128    1
    92    25    26    1
    93    60    61    1
    94    66    65    1
    95   141   143    1
    96   141   142    1
    97   128   130    1
    98    26    27    1
    99    92    86   am
   100    92    93    1
   101    86    87    2
   102    64    65    1
   103    64    61    1
   104    65    67    1
   105    61    62    1
   106    62    63    2
   107    96    93    1
   108    96    97    1
   109    93    94    1
   110    99    97    1
   111    27    28    1
   112   114   113    1
   113   114   115    1
   114    74    73    1
   115    28    29    2
   116    95    94    2
   117   113   112    1
   118    97    98    1
   119   112   109    1
   120    29    31    1
   121    29    30    1
   122    73    75    1
   123    73    72    1
   124   109   110    1
   125   109   108    1
   126   107   105    1
   127   106   104    1
   128   110   111    2
   129    72    69    1
   130   105   104    1
   131   104   101    1
   132   122   120    1
   133    68    69    1
   134    69    70    1
   135   121   120    1
   136    71    70    2
   137   120   117    1
   138   101   102    1
   139   101   100    1
   140   102   103    2
   141   117   116    1
   142   117   118    1
   143   119   118    2
