@<TRIPOS>MOLECULE
tmp/2xeyA00.pdb
 124 115 0 0 0
SMALL
GASTEIGER

@<TRIPOS>ATOM
      1  N          3.0790   -9.0670   22.8310 N.3    10  LEU10      -0.1231
      2  CA         2.3900   -8.3270   21.7870 C.3    10  LEU10       0.1693
      3  C          2.2320   -9.0450   20.4520 C.2    10  LEU10       0.2592
      4  O          1.1550   -9.0520   19.8740 O.2    10  LEU10      -0.2718
      5  CB         3.1250   -7.0120   21.5370 C.3    10  LEU10       0.0284
      6  CG         3.2350   -6.0050   22.6740 C.3    10  LEU10       0.0019
      7  CD1        3.6810   -6.6870   23.9330 C.3    10  LEU10       0.0001
      8  CD2        4.2130   -4.9260   22.3060 C.3    10  LEU10       0.0001
      9  N          3.2980   -9.6550   19.9570 N.am   11  GLY11      -0.1957
     10  CA         3.2050  -10.3190   18.6760 C.3    11  GLY11       0.1869
     11  C          3.9340  -11.6280   18.4860 C.2    11  GLY11       0.2309
     12  O          4.7670  -11.7480   17.5940 O.2    11  GLY11      -0.2863
     13  N          7.3810  -11.0410   20.7540 N.3    14  VAL14      -0.1245
     14  CA         7.3850   -9.6880   21.2640 C.3    14  VAL14       0.1561
     15  C          6.4550   -9.6170   22.4600 C.2    14  VAL14       0.2260
     16  O          5.2920   -9.9660   22.3570 O.2    14  VAL14      -0.2867
     17  CB         6.9260   -8.7060   20.1860 C.3    14  VAL14       0.0252
     18  CG1        6.6300   -7.3610   20.7820 C.3    14  VAL14       0.0019
     19  CG2        7.9710   -8.5930   19.1090 C.3    14  VAL14       0.0019
     20  N          8.3010   -2.4630   24.2730 N.3    27  ALA27      -0.1245
     21  CA         8.0970   -3.6680   23.5180 C.3    27  ALA27       0.1562
     22  C          9.4580   -4.2970   23.4480 C.2    27  ALA27       0.2260
     23  O         10.4280   -3.6610   23.0780 O.2    27  ALA27      -0.2867
     24  CB         7.5890   -3.3500   22.1540 C.3    27  ALA27       0.0290
     25  N         11.7500   -7.4760   22.0750 N.3    29  LYS29      -0.1245
     26  CA        11.8110   -8.5570   21.1270 C.3    29  LYS29       0.1561
     27  C         12.6610   -9.6400   21.7320 C.2    29  LYS29       0.2260
     28  O         13.7380   -9.3720   22.2470 O.2    29  LYS29      -0.2867
     29  CB        12.4160   -8.0780   19.8120 C.3    29  LYS29       0.0271
     30  CG        11.9800   -8.8740   18.6060 C.3    29  LYS29       0.0035
     31  CD        12.3270   -8.1630   17.3280 C.3    29  LYS29       0.0206
     32  CE        11.7920   -8.9130   16.1320 C.3    29  LYS29       0.1093
     33  NZ        12.1060   -8.2010   14.8690 N.3    29  LYS29      -0.1314
     34  N          9.3870    3.5570   14.6350 N.3    51  VAL51      -0.1245
     35  CA         9.4020    3.0180   15.9900 C.3    51  VAL51       0.1561
     36  C         10.7300    3.2960   16.6690 C.2    51  VAL51       0.2260
     37  O         11.7870    3.1210   16.0720 O.2    51  VAL51      -0.2867
     38  CB         9.1810    1.5010   15.9910 C.3    51  VAL51       0.0252
     39  CG1        9.4250    0.9360   17.3690 C.3    51  VAL51       0.0019
     40  CG2        7.7880    1.1620   15.5120 C.3    51  VAL51       0.0019
     41  N         12.1250   -1.6140   22.2870 N.3    67  LEU67      -0.1231
     42  CA        11.4330   -0.8460   21.2790 C.3    67  LEU67       0.1693
     43  C         10.2240   -0.1380   21.8280 C.2    67  LEU67       0.2592
     44  O          9.6490   -0.5410   22.8270 O.2    67  LEU67      -0.2718
     45  CB        11.0090   -1.7720   20.1510 C.3    67  LEU67       0.0284
     46  CG        12.1850   -2.3260   19.3690 C.3    67  LEU67       0.0019
     47  CD1       11.8840   -3.6880   18.8210 C.3    67  LEU67       0.0001
     48  CD2       12.5690   -1.3600   18.2910 C.3    67  LEU67       0.0001
     49  N          9.8350    0.9210   21.1470 N.am   68  GLU68      -0.1966
     50  CA         8.7160    1.7220   21.5750 C.3    68  GLU68       0.1733
     51  C          7.4760    0.8630   21.5810 C.2    68  GLU68       0.2616
     52  O          7.3320   -0.0230   20.7600 O.2    68  GLU68      -0.2715
     53  CB         8.5410    2.8890   20.6120 C.3    68  GLU68       0.0429
     54  CG         7.2840    3.6770   20.8030 C.3    68  GLU68       0.1163
     55  CD         7.1670    4.7930   19.8110 C.2    68  GLU68       0.3649
     56  OE1        8.0930    4.9710   19.0120 O.co2  68  GLU68      -0.2457
     57  OE2        6.1440    5.4940   19.8300 O.co2  68  GLU68      -0.2457
     58  N          6.5930    1.1060   22.5350 N.am   69  TYR69      -0.1960
     59  CA         5.3690    0.3360   22.6310 C.3    69  TYR69       0.1771
     60  C          4.2500    1.1240   22.0140 C.2    69  TYR69       0.2620
     61  O          4.0670    2.2940   22.3190 O.2    69  TYR69      -0.2715
     62  CB         5.0120    0.0270   24.0770 C.3    69  TYR69       0.0574
     63  CG         3.6380   -0.5720   24.2210 C.ar   69  TYR69      -0.0198
     64  CD1        3.3890   -1.8650   23.8220 C.ar   69  TYR69      -0.0009
     65  CD2        2.5890    0.1560   24.7550 C.ar   69  TYR69      -0.0009
     66  CE1        2.1450   -2.4210   23.9500 C.ar   69  TYR69       0.0417
     67  CE2        1.3410   -0.3960   24.8830 C.ar   69  TYR69       0.0417
     68  CZ         1.1290   -1.6870   24.4780 C.ar   69  TYR69       0.1957
     69  OH        -0.1040   -2.2610   24.5910 O.3    69  TYR69      -0.2866
     70  N          3.5090    0.4830   21.1270 N.am   70  CYS70      -0.1954
     71  CA         2.4160    1.1620   20.4860 C.3    70  CYS70       0.1843
     72  C          1.1060    0.6150   21.0180 C.2    70  CYS70       0.2626
     73  O          0.7520   -0.5260   20.7600 O.2    70  CYS70      -0.2714
     74  CB         2.5340    0.9820   18.9730 C.3    70  CYS70       0.0997
     75  SG         4.0520    1.6520   18.2850 S.3    70  CYS70      -0.0797
     76  N          0.4240    1.4270   21.8160 N.am   71  SER71      -0.1950
     77  CA        -0.8420    1.0420   22.4280 C.3    71  SER71       0.1924
     78  C         -1.9130    0.8790   21.3700 C.2    71  SER71       0.2314
     79  O         -2.8700    0.1390   21.5440 O.2    71  SER71      -0.2863
     80  CB        -1.2570    2.0090   23.5380 C.3    71  SER71       0.2116
     81  OG        -1.6480    3.2650   23.0430 O.3    71  SER71      -0.2180
     82  N         -1.8260   -0.5460   18.4140 N.3    73  GLY73      -0.1210
     83  CA        -1.9480   -1.8150   17.7380 C.3    73  GLY73       0.1956
     84  C         -1.5500   -1.6130   16.3090 C.2    73  GLY73       0.2611
     85  O         -0.8690   -0.6590   16.0060 O.2    73  GLY73      -0.2717
     86  N         -1.9430   -2.5120   15.4270 N.am   74  GLU74      -0.1979
     87  CA        -1.5520   -2.3590   14.0400 C.3    74  GLU74       0.1602
     88  C         -2.6560   -1.8230   13.1440 C.2    74  GLU74       0.2287
     89  O         -3.8230   -2.0640   13.3640 O.2    74  GLU74      -0.2864
     90  CB        -0.9420   -3.6400   13.4950 C.3    74  GLU74       0.0415
     91  CG        -1.9180   -4.7260   13.2250 C.3    74  GLU74       0.1163
     92  CD        -1.2550   -6.0550   13.0990 C.2    74  GLU74       0.3649
     93  OE1       -0.3520   -6.3430   13.8930 O.co2  74  GLU74      -0.2457
     94  OE2       -1.6400   -6.8160   12.2090 O.co2  74  GLU74      -0.2457
     95  N         -5.7490   -3.6750   11.7530 N.3    77  ASP77      -0.1239
     96  CA        -7.0080   -3.8290   12.4640 C.3    77  ASP77       0.1674
     97  C         -7.9520   -2.6390   12.3570 C.2    77  ASP77       0.2266
     98  O         -9.0820   -2.6910   12.8140 O.2    77  ASP77      -0.2867
     99  CB        -6.7380   -4.1710   13.9220 C.3    77  ASP77       0.1410
    100  CG        -6.2310   -5.5720   14.0940 C.2    77  ASP77       0.3668
    101  OD1       -6.8900   -6.5030   13.6050 O.co2  77  ASP77      -0.2456
    102  OD2       -5.1710   -5.7420   14.7160 O.co2  77  ASP77      -0.2456
    103  N          2.4270    0.5370   12.9130 N.3   120  LEU120     -0.1245
    104  CA         1.8560    0.5250   14.2400 C.3   120  LEU120      0.1561
    105  C          1.2970    1.8650   14.6380 C.2   120  LEU120      0.2260
    106  O          1.7400    2.8920   14.1610 O.2   120  LEU120     -0.2867
    107  CB         2.8910    0.0620   15.2610 C.3   120  LEU120      0.0270
    108  CG         3.4600   -1.3440   15.1020 C.3   120  LEU120      0.0019
    109  CD1        4.3240   -1.6850   16.2840 C.3   120  LEU120      0.0001
    110  CD2        2.3710   -2.3700   14.9380 C.3   120  LEU120      0.0001
    111  N          7.3690   -0.2480   11.7580 N.3   130  SER130     -0.1202
    112  CA         7.9030   -1.2720   12.6490 C.3   130  SER130      0.2020
    113  C          8.5500   -2.4830   11.9940 C.2   130  SER130      0.2618
    114  O          8.0180   -3.0460   11.0510 O.2   130  SER130     -0.2717
    115  CB         6.7970   -1.7680   13.5760 C.3   130  SER130      0.2103
    116  OG         7.0310   -3.1070   13.9600 O.3   130  SER130     -0.2182
    117  N          9.7090   -2.8730   12.5110 N.am  131  ASP131     -0.1973
    118  CA        10.3800   -4.1020   12.1010 C.3   131  ASP131      0.1709
    119  C         11.3860   -3.8820   10.9840 C.2   131  ASP131      0.2293
    120  O         11.0210   -3.7520    9.8220 O.2   131  ASP131     -0.2864
    121  CB         9.3630   -5.1740   11.7130 C.3   131  ASP131      0.1436
    122  CG         9.9390   -6.5680   11.7700 C.2   131  ASP131      0.3671
    123  OD1       11.1540   -6.7200   11.5630 O.co2 131  ASP131     -0.2456
    124  OD2        9.1740   -7.5160   12.0170 O.co2 131  ASP131     -0.2456
@<TRIPOS>BOND
     1   120   119    2
     2   119   118    1
     3   114   113    2
     4   123   122   ar
     5   121   122    1
     6   121   118    1
     7    95    96    1
     8   111   112    1
     9   122   124   ar
    10   113   117   am
    11   113   112    1
    12   118   117    1
    13    94    92   ar
    14    97    96    1
    15    97    98    2
    16    96    99    1
    17   112   115    1
    18   103   104    1
    19    92    91    1
    20    92    93   ar
    21    88    89    2
    22    88    87    1
    23    91    90    1
    24    90    87    1
    25   115   116    1
    26   101   100   ar
    27    99   100    1
    28    87    86    1
    29   100   102   ar
    30   106   105    2
    31   104   105    1
    32   104   107    1
    33    34    35    1
    34    33    32    1
    35   110   108    1
    36   108   107    1
    37   108   109    1
    38    86    84   am
    39    40    38    1
    40    35    38    1
    41    35    36    1
    42    38    39    1
    43    85    84    2
    44    37    36    2
    45    32    31    1
    46    84    83    1
    47    31    30    1
    48    12    11    2
    49    83    82    1
    50    75    74    1
    51    48    46    1
    52    11    10    1
    53    30    29    1
    54    10     9    1
    55    47    46    1
    56    74    71    1
    57    56    55   ar
    58    19    17    1
    59    46    45    1
    60    55    57   ar
    61    55    54    1
    62    29    26    1
    63     4     3    2
    64     9     3   am
    65    45    42    1
    66    17    18    1
    67    17    14    1
    68     3     2    1
    69    71    72    1
    70    71    70    1
    71    53    54    1
    72    53    50    1
    73    13    14    1
    74    52    51    2
    75    73    72    2
    76    72    76   am
    77    26    27    1
    78    26    25    1
    79    70    60   am
    80    49    50    1
    81    49    43   am
    82    14    15    1
    83    42    43    1
    84    42    41    1
    85    78    79    2
    86    78    77    1
    87     5     2    1
    88     5     6    1
    89    50    51    1
    90    51    58   am
    91    27    28    2
    92     2     1    1
    93    76    77    1
    94    43    44    2
    95    60    61    2
    96    60    59    1
    97    24    21    1
    98     8     6    1
    99    16    15    2
   100    77    80    1
   101    58    59    1
   102    59    62    1
   103     6     7    1
   104    81    80    1
   105    23    22    2
   106    22    21    1
   107    21    20    1
   108    64    66   ar
   109    64    63   ar
   110    66    68   ar
   111    62    63    1
   112    63    65   ar
   113    68    69    1
   114    68    67   ar
   115    65    67   ar
