@<TRIPOS>MOLECULE
tmp/2xezA00.pdb
 135 125 0 0 0
SMALL
GASTEIGER

@<TRIPOS>ATOM
      1  N         17.2780   -6.7370    5.8100 N.3     9  LEU9       -0.1231
      2  CA        17.8920   -5.8460    6.7920 C.3     9  LEU9        0.1693
      3  C         17.9170   -6.4650    8.1810 C.2     9  LEU9        0.2592
      4  O         18.9500   -6.4730    8.8440 O.2     9  LEU9       -0.2718
      5  CB        17.1480   -4.5100    6.8510 C.3     9  LEU9        0.0284
      6  CG        17.1050   -3.6370    5.5960 C.3     9  LEU9        0.0019
      7  CD1       16.3500   -2.3570    5.8970 C.3     9  LEU9        0.0001
      8  CD2       18.5090   -3.3340    5.0750 C.3     9  LEU9        0.0001
      9  N         16.7700   -6.9690    8.6230 N.am   10  GLY10      -0.1957
     10  CA        16.6630   -7.5840    9.9330 C.3    10  GLY10       0.1869
     11  C         16.1380   -9.0050    9.8680 C.2    10  GLY10       0.2309
     12  O         15.3660   -9.3530    8.9730 O.2    10  GLY10      -0.2863
     13  N         12.7130   -8.1600    7.8710 N.3    12  VAL12      -0.1245
     14  CA        12.6320   -6.8030    7.3530 C.3    12  VAL12       0.1561
     15  C         13.5290   -6.6710    6.1300 C.2    12  VAL12       0.2260
     16  O         14.6610   -7.1530    6.1340 O.2    12  VAL12      -0.2867
     17  CB        13.0640   -5.7730    8.4140 C.3    12  VAL12       0.0252
     18  CG1       12.8690   -4.3550    7.8980 C.3    12  VAL12       0.0019
     19  CG2       12.2830   -5.9820    9.6920 C.3    12  VAL12       0.0019
     20  N         11.6430    0.6530    4.4180 N.3    25  ALA25      -0.1245
     21  CA        11.7970   -0.6380    5.0620 C.3    25  ALA25       0.1562
     22  C         10.4680   -1.3530    5.1020 C.2    25  ALA25       0.2260
     23  O          9.4500   -0.7650    5.4220 O.2    25  ALA25      -0.2867
     24  CB        12.3480   -0.4720    6.4570 C.3    25  ALA25       0.0290
     25  N          8.5080   -4.4930    6.7550 N.3    27  LYS27      -0.1245
     26  CA         8.4360   -5.5420    7.7600 C.3    27  LYS27       0.1561
     27  C          7.4460   -6.6030    7.2960 C.2    27  LYS27       0.2260
     28  O          6.2680   -6.3070    7.0670 O.2    27  LYS27      -0.2867
     29  CB         7.9910   -4.9550    9.1010 C.3    27  LYS27       0.0271
     30  CG         8.4070   -5.7640   10.3180 C.3    27  LYS27       0.0035
     31  CD         7.3450   -5.7030   11.4100 C.3    27  LYS27       0.0206
     32  CE         7.9610   -5.6690   12.8000 C.3    27  LYS27       0.1093
     33  NZ         8.6160   -4.3490   13.0630 N.3    27  LYS27      -0.1314
     34  N         10.6810    6.3880   13.9360 N.3    49  VAL49      -0.1245
     35  CA        10.5990    5.8140   12.5900 C.3    49  VAL49       0.1561
     36  C          9.2190    6.0380   11.9390 C.2    49  VAL49       0.2260
     37  O          8.2090    5.5150   12.4130 O.2    49  VAL49      -0.2867
     38  CB        10.9440    4.3060   12.6060 C.3    49  VAL49       0.0252
     39  CG1       10.8180    3.7100   11.2200 C.3    49  VAL49       0.0019
     40  CG2       12.3420    4.0980   13.1500 C.3    49  VAL49       0.0019
     41  N          7.8800    1.2640    6.5060 N.3    63  LEU63      -0.1231
     42  CA         8.5370    2.0540    7.5370 C.3    63  LEU63       0.1693
     43  C          9.7420    2.8050    6.9850 C.2    63  LEU63       0.2592
     44  O         10.4460    2.3120    6.1020 O.2    63  LEU63      -0.2718
     45  CB         8.9780    1.1350    8.6730 C.3    63  LEU63       0.0284
     46  CG         7.8330    0.3890    9.3580 C.3    63  LEU63       0.0019
     47  CD1        8.3390   -0.8310   10.1070 C.3    63  LEU63       0.0001
     48  CD2        7.0680    1.3350   10.2790 C.3    63  LEU63       0.0001
     49  N          9.9700    4.0000    7.5140 N.am   64  GLU64      -0.1966
     50  CA        11.1180    4.8080    7.1270 C.3    64  GLU64       0.1733
     51  C         12.3820    3.9690    7.0860 C.2    64  GLU64       0.2616
     52  O         12.5730    3.0740    7.9120 O.2    64  GLU64      -0.2715
     53  CB        11.3020    5.9610    8.1130 C.3    64  GLU64       0.0429
     54  CG        12.6080    6.7200    7.9600 C.3    64  GLU64       0.1163
     55  CD        12.6910    7.9060    8.9020 C.2    64  GLU64       0.3649
     56  OE1       13.6210    8.7320    8.7440 O.co2  64  GLU64      -0.2457
     57  OE2       11.8270    8.0110    9.8010 O.co2  64  GLU64      -0.2457
     58  N         13.2470    4.2460    6.1190 N.am   65  TYR65      -0.1960
     59  CA        14.5090    3.5380    6.0550 C.3    65  TYR65       0.1771
     60  C         15.6220    4.3510    6.7120 C.2    65  TYR65       0.2619
     61  O         15.8000    5.5430    6.4320 O.2    65  TYR65      -0.2715
     62  CB        14.8720    3.1720    4.6210 C.3    65  TYR65       0.0574
     63  CG        16.2460    2.5640    4.5130 C.ar   65  TYR65      -0.0198
     64  CD1       16.5170    1.3200    5.0640 C.ar   65  TYR65      -0.0009
     65  CD2       17.2780    3.2400    3.8710 C.ar   65  TYR65      -0.0009
     66  CE1       17.7760    0.7600    4.9700 C.ar   65  TYR65       0.0417
     67  CE2       18.5420    2.6910    3.7730 C.ar   65  TYR65       0.0417
     68  CZ        18.7870    1.4500    4.3240 C.ar   65  TYR65       0.1957
     69  OH        20.0450    0.8990    4.2270 O.3    65  TYR65      -0.2866
     70  N         16.3660    3.7030    7.5960 N.am   66  CYS66      -0.1968
     71  CA        17.4730    4.3650    8.2510 C.3    66  CYS66       0.1712
     72  C         18.7800    3.7470    7.7680 C.2    66  CYS66       0.2296
     73  O         19.1170    2.6280    8.1290 O.2    66  CYS66      -0.2864
     74  CB        17.3200    4.2300    9.7680 C.3    66  CYS66       0.0983
     75  SG        15.6740    4.6540   10.3870 S.3    66  CYS66      -0.0798
     76  N         21.6330    2.5960   10.3800 N.3    69  GLY69      -0.1210
     77  CA        21.5420    1.3080   11.0350 C.3    69  GLY69       0.1956
     78  C         21.3420    1.4900   12.5160 C.2    69  GLY69       0.2611
     79  O         21.0860    2.5930   12.9680 O.2    69  GLY69      -0.2717
     80  N         21.4190    0.4070   13.2720 N.am   70  GLU70      -0.1979
     81  CA        21.2160    0.4870   14.7140 C.3    70  GLU70       0.1602
     82  C         22.3560    1.1150   15.5180 C.2    70  GLU70       0.2287
     83  O         23.5210    0.9850   15.1780 O.2    70  GLU70      -0.2864
     84  CB        20.7690   -0.8570   15.2950 C.3    70  GLU70       0.0415
     85  CG        21.8120   -1.9330   15.3410 C.3    70  GLU70       0.1163
     86  CD        21.1960   -3.3040   15.4430 C.2    70  GLU70       0.3649
     87  OE1       20.0720   -3.4850   14.9610 O.co2  70  GLU70      -0.2457
     88  OE2       21.8400   -4.2080   15.9910 O.co2  70  GLU70      -0.2457
     89  N         25.4760   -0.8390   16.7370 N.3    73  ASP73      -0.1239
     90  CA        26.6950   -0.9250   15.9460 C.3    73  ASP73       0.1674
     91  C         27.6620    0.2510   16.1000 C.2    73  ASP73       0.2266
     92  O         28.8020    0.1740   15.6760 O.2    73  ASP73      -0.2867
     93  CB        26.3650   -1.2090   14.4830 C.3    73  ASP73       0.1410
     94  CG        25.8040   -2.5980   14.2840 C.2    73  ASP73       0.3668
     95  OD1       26.3200   -3.5350   14.9140 O.co2  73  ASP73      -0.2456
     96  OD2       24.8460   -2.7540   13.5070 O.co2  73  ASP73      -0.2456
     97  N         19.4680   -1.9550   19.7830 N.3   113  GLU113     -0.1231
     98  CA        18.8890   -2.6640   18.6360 C.3   113  GLU113      0.1699
     99  C         17.6570   -1.9740   18.0380 C.2   113  GLU113      0.2592
    100  O         17.3660   -2.1320   16.8530 O.2   113  GLU113     -0.2718
    101  CB        18.5180   -4.1010   19.0150 C.3   113  GLU113      0.0402
    102  CG        19.6720   -4.9530   19.4550 C.3   113  GLU113      0.1161
    103  CD        20.0020   -4.7960   20.9270 C.2   113  GLU113      0.3649
    104  OE1       19.6980   -3.7370   21.5220 O.co2 113  GLU113     -0.2457
    105  OE2       20.5760   -5.7480   21.4930 O.co2 113  GLU113     -0.2457
    106  N         16.9270   -1.2210   18.8550 N.am  114  ASN114     -0.1974
    107  CA        15.7080   -0.5600   18.3930 C.3   114  ASN114      0.1688
    108  C         15.8730    0.9330   18.2320 C.2   114  ASN114      0.2292
    109  O         14.8880    1.6650   18.1490 O.2   114  ASN114     -0.2864
    110  CB        14.5440   -0.8180   19.3520 C.3   114  ASN114      0.1181
    111  CG        14.0680   -2.2560   19.3240 C.2   114  ASN114      0.2629
    112  OD1       14.1420   -2.9310   18.2920 O.2   114  ASN114     -0.2716
    113  ND2       13.5700   -2.7320   20.4600 N.am  114  ASN114     -0.0877
    114  N         17.5210    3.2710   15.6760 N.3   116  LEU116     -0.1245
    115  CA        18.1040    3.3900   14.3600 C.3   116  LEU116      0.1561
    116  C         18.6780    4.7680   14.0790 C.2   116  LEU116      0.2260
    117  O         18.2660    5.7500   14.6650 O.2   116  LEU116     -0.2867
    118  CB        17.0690    3.0100   13.3130 C.3   116  LEU116      0.0270
    119  CG        16.4660    1.6320   13.5540 C.3   116  LEU116      0.0019
    120  CD1       15.3840    1.3330   12.5570 C.3   116  LEU116      0.0001
    121  CD2       17.5270    0.5680   13.5200 C.3   116  LEU116      0.0001
    122  N         12.4870    2.7050   17.1650 N.3   126  SER126     -0.1202
    123  CA        11.9410    1.7320   16.2290 C.3   126  SER126      0.2020
    124  C         11.3500    0.4520   16.8180 C.2   126  SER126      0.2618
    125  O         11.8560   -0.0850   17.7870 O.2   126  SER126     -0.2717
    126  CB        13.0110    1.3790   15.1940 C.3   126  SER126      0.2103
    127  OG        12.8270    0.0830   14.6760 O.3   126  SER126     -0.2182
    128  N         10.2640   -0.0060   16.2000 N.am  127  ASP127     -0.1973
    129  CA         9.5940   -1.2700   16.5030 C.3   127  ASP127      0.1709
    130  C          8.5510   -1.0990   17.5950 C.2   127  ASP127      0.2293
    131  O          8.8800   -1.0930   18.7700 O.2   127  ASP127     -0.2864
    132  CB        10.5970   -2.3660   16.8680 C.3   127  ASP127      0.1436
    133  CG         9.9660   -3.7470   16.9160 C.2   127  ASP127      0.3671
    134  OD1        8.7550   -3.8660   16.6710 O.co2 127  ASP127     -0.2456
    135  OD2       10.6860   -4.7200   17.1970 O.co2 127  ASP127     -0.2456
@<TRIPOS>BOND
     1    67    65   ar
     2    67    68   ar
     3    65    63   ar
     4    69    68    1
     5    68    66   ar
     6    20    21    1
     7    63    62    1
     8    63    64   ar
     9    62    59    1
    10    66    64   ar
    11    21    22    1
    12    21    24    1
    13     8     6    1
    14    22    23    2
    15     6     7    1
    16     6     5    1
    17     1     2    1
    18    59    58    1
    19    59    60    1
    20    44    43    2
    21    58    51   am
    22    15    16    2
    23    15    14    1
    24    61    60    2
    25    41    42    1
    26    60    70   am
    27    25    26    1
    28     2     5    1
    29     2     3    1
    30    43    49   am
    31    43    42    1
    32    28    27    2
    33    51    50    1
    34    51    52    2
    35    50    49    1
    36    50    53    1
    37    27    26    1
    38    14    13    1
    39    14    17    1
    40    42    45    1
    41    70    71    1
    42    26    29    1
    43    72    73    2
    44    72    71    1
    45    18    17    1
    46    54    53    1
    47    54    55    1
    48     3     9   am
    49     3     4    2
    50    71    74    1
    51    17    19    1
    52     9    10    1
    53    45    46    1
    54    56    55   ar
    55    55    57   ar
    56    12    11    2
    57    29    30    1
    58    46    47    1
    59    46    48    1
    60    74    75    1
    61    11    10    1
    62    30    31    1
    63    76    77    1
    64    77    78    1
    65    39    38    1
    66    31    32    1
    67    36    37    2
    68    36    35    1
    69    78    79    2
    70    78    80   am
    71   120   119    1
    72    35    38    1
    73    35    34    1
    74    38    40    1
    75    32    33    1
    76    80    81    1
    77   118   119    1
    78   118   115    1
    79    96    94   ar
    80   121   119    1
    81   116   115    1
    82   116   117    2
    83    94    93    1
    84    94    95   ar
    85   115   114    1
    86    93    90    1
    87   127   126    1
    88    81    84    1
    89    81    82    1
    90    87    86   ar
    91    83    82    2
    92   126   123    1
    93    84    85    1
    94    85    86    1
    95    86    88   ar
    96    92    91    2
    97    90    91    1
    98    90    89    1
    99   128   129    1
   100   128   124   am
   101   123   124    1
   102   123   122    1
   103   129   132    1
   104   129   130    1
   105   134   133   ar
   106   124   125    2
   107   100    99    2
   108   132   133    1
   109   133   135   ar
   110   130   131    2
   111    99    98    1
   112    99   106   am
   113   109   108    2
   114   108   107    1
   115   112   111    2
   116   107   106    1
   117   107   110    1
   118    98   101    1
   119    98    97    1
   120   101   102    1
   121   111   110    1
   122   111   113   am
   123   102   103    1
   124   103   105   ar
   125   103   104   ar
