@<TRIPOS>MOLECULE
tmp/2xf0A00.pdb
 141 131 0 0 0
SMALL
GASTEIGER

@<TRIPOS>ATOM
      1  N         14.2660   -8.9470    3.7710 N.3    12  LEU12      -0.1231
      2  CA        14.7580   -7.9600    4.7190 C.3    12  LEU12       0.1693
      3  C         14.7150   -8.5030    6.1490 C.2    12  LEU12       0.2592
      4  O         15.6760   -8.3560    6.9080 O.2    12  LEU12      -0.2718
      5  CB        13.9450   -6.6650    4.6080 C.3    12  LEU12       0.0284
      6  CG        14.1390   -5.8200    3.3440 C.3    12  LEU12       0.0019
      7  CD1       13.1530   -4.6560    3.3060 C.3    12  LEU12       0.0001
      8  CD2       15.5790   -5.3150    3.2400 C.3    12  LEU12       0.0001
      9  N         13.6000   -9.1340    6.5090 N.am   13  GLY13      -0.1957
     10  CA        13.4300   -9.6950    7.8380 C.3    13  GLY13       0.1869
     11  C         12.3260  -10.7320    7.9080 C.2    13  GLY13       0.2309
     12  O         12.5370  -11.9050    7.5970 O.2    13  GLY13      -0.2863
     13  N          9.3830   -9.9670    5.6250 N.3    15  VAL15      -0.1245
     14  CA         9.4680   -8.6500    5.0160 C.3    15  VAL15       0.1561
     15  C         10.4270   -8.6790    3.8410 C.2    15  VAL15       0.2260
     16  O         11.5910   -9.0510    3.9900 O.2    15  VAL15      -0.2867
     17  CB         9.9460   -7.5800    6.0240 C.3    15  VAL15       0.0252
     18  CG1        9.9870   -6.2100    5.3700 C.3    15  VAL15       0.0019
     19  CG2        9.0370   -7.5520    7.2360 C.3    15  VAL15       0.0019
     20  N          8.9070   -1.3820    1.8180 N.3    28  ALA28      -0.1245
     21  CA         8.9910   -2.6120    2.5860 C.3    28  ALA28       0.1562
     22  C          7.6630   -3.3540    2.4780 C.2    28  ALA28       0.2260
     23  O          6.5940   -2.7420    2.4810 O.2    28  ALA28      -0.2867
     24  CB         9.3310   -2.3050    4.0390 C.3    28  ALA28       0.0290
     25  N          5.2390   -6.5410    3.9060 N.3    30  LYS30      -0.1245
     26  CA         4.9880   -7.5050    4.9570 C.3    30  LYS30       0.1561
     27  C          4.0360   -8.5520    4.4120 C.2    30  LYS30       0.2260
     28  O          2.9560   -8.2270    3.9260 O.2    30  LYS30      -0.2867
     29  CB         4.3690   -6.8160    6.1740 C.3    30  LYS30       0.0271
     30  CG         3.9820   -7.7630    7.2930 C.3    30  LYS30       0.0035
     31  CD         5.1900   -8.1820    8.1090 C.3    30  LYS30       0.0206
     32  CE         5.5680   -7.1140    9.1170 C.3    30  LYS30       0.1093
     33  NZ         4.5080   -6.9350   10.1460 N.3    30  LYS30      -0.1314
     34  N          7.8460    4.3870   11.2470 N.3    51  VAL51      -0.1245
     35  CA         7.8120    3.8950    9.8800 C.3    51  VAL51       0.1561
     36  C          6.4620    4.1810    9.2420 C.2    51  VAL51       0.2260
     37  O          5.4150    3.9470    9.8410 O.2    51  VAL51      -0.2867
     38  CB         8.0900    2.3860    9.8230 C.3    51  VAL51       0.0252
     39  CG1        7.8510    1.8550    8.4250 C.3    51  VAL51       0.0019
     40  CG2        9.5070    2.0930   10.2740 C.3    51  VAL51       0.0019
     41  N          5.0260   -0.6260    3.7790 N.3    65  LEU65      -0.1231
     42  CA         5.6880    0.1970    4.7900 C.3    65  LEU65       0.1693
     43  C          6.9370    0.9060    4.2610 C.2    65  LEU65       0.2592
     44  O          7.6040    0.4340    3.3380 O.2    65  LEU65      -0.2718
     45  CB         6.0550   -0.6680    5.9960 C.3    65  LEU65       0.0284
     46  CG         4.8700   -1.3820    6.6460 C.3    65  LEU65       0.0019
     47  CD1        5.3090   -2.6470    7.3790 C.3    65  LEU65       0.0001
     48  CD2        4.1010   -0.4290    7.5610 C.3    65  LEU65       0.0001
     49  N          7.2470    2.0510    4.8530 N.am   66  GLU66      -0.1966
     50  CA         8.4340    2.8070    4.4790 C.3    66  GLU66       0.1733
     51  C          9.6920    1.9330    4.5090 C.2    66  GLU66       0.2616
     52  O          9.9230    1.1730    5.4520 O.2    66  GLU66      -0.2715
     53  CB         8.5890    4.0170    5.4040 C.3    66  GLU66       0.0429
     54  CG         9.8650    4.8090    5.2120 C.3    66  GLU66       0.1163
     55  CD         9.9600    6.0040    6.1500 C.2    66  GLU66       0.3649
     56  OE1       10.7000    6.9520    5.8090 O.co2  66  GLU66      -0.2457
     57  OE2        9.2970    5.9990    7.2170 O.co2  66  GLU66      -0.2457
     58  N         10.5240    2.0510    3.4860 N.am   67  TYR67      -0.1960
     59  CA        11.7580    1.2930    3.4780 C.3    67  TYR67       0.1771
     60  C         12.8760    2.1640    4.0090 C.2    67  TYR67       0.2620
     61  O         13.0690    3.2860    3.5560 O.2    67  TYR67      -0.2715
     62  CB        12.0970    0.7960    2.0750 C.3    67  TYR67       0.0574
     63  CG        13.5010    0.2520    1.9580 C.ar   67  TYR67      -0.0198
     64  CD1       13.8360   -0.9730    2.5060 C.ar   67  TYR67      -0.0009
     65  CD2       14.4920    0.9690    1.3060 C.ar   67  TYR67      -0.0009
     66  CE1       15.1150   -1.4710    2.4050 C.ar   67  TYR67       0.0417
     67  CE2       15.7700    0.4790    1.1990 C.ar   67  TYR67       0.0417
     68  CZ        16.0770   -0.7410    1.7510 C.ar   67  TYR67       0.1957
     69  OH        17.3520   -1.2340    1.6490 O.3    67  TYR67      -0.2866
     70  N         13.6060    1.6440    4.9860 N.am   68  CYS68      -0.1954
     71  CA        14.7170    2.3850    5.5490 C.3    68  CYS68       0.1843
     72  C         16.0050    1.7860    5.0180 C.2    68  CYS68       0.2626
     73  O         16.3340    0.6440    5.3120 O.2    68  CYS68      -0.2714
     74  CB        14.6760    2.3100    7.0750 C.3    68  CYS68       0.0997
     75  SG        13.0760    2.7210    7.7980 S.3    68  CYS68      -0.0797
     76  N         16.7330    2.5850    4.2450 N.am   69  SER69      -0.1950
     77  CA        17.9410    2.1500    3.5600 C.3    69  SER69       0.1924
     78  C         18.9970    1.7540    4.5630 C.2    69  SER69       0.2314
     79  O         19.7270    0.7870    4.3760 O.2    69  SER69      -0.2863
     80  CB        18.4760    3.2760    2.6840 C.3    69  SER69       0.2116
     81  OG        17.4180    3.9730    2.0560 O.3    69  SER69      -0.2180
     82  N         18.7620    0.4330    7.5710 N.3    71  GLY71      -0.1210
     83  CA        18.6390   -0.8200    8.2850 C.3    71  GLY71       0.1956
     84  C         18.5030   -0.5950    9.7730 C.2    71  GLY71       0.2611
     85  O         18.1210    0.4820   10.2030 O.2    71  GLY71      -0.2717
     86  N         18.7720   -1.6320   10.5510 N.am   72  GLU72      -0.1979
     87  CA        18.6640   -1.5760   12.0050 C.3    72  GLU72       0.1602
     88  C         19.7150   -0.7440   12.7360 C.2    72  GLU72       0.2287
     89  O         20.8620   -0.6580   12.3250 O.2    72  GLU72      -0.2864
     90  CB        18.6820   -2.9840   12.5880 C.3    72  GLU72       0.0415
     91  CG        17.7390   -3.9500   11.9310 C.3    72  GLU72       0.1163
     92  CD        17.7820   -5.3020   12.5750 C.2    72  GLU72       0.3649
     93  OE1       18.4850   -5.4530   13.5830 O.co2  72  GLU72      -0.2457
     94  OE2       17.1150   -6.2160   12.0790 O.co2  72  GLU72      -0.2457
     95  N         22.7700   -2.7880   13.9560 N.3    75  ASP75      -0.1239
     96  CA        23.9930   -2.8490   13.1690 C.3    75  ASP75       0.1674
     97  C         24.9850   -1.7380   13.5170 C.2    75  ASP75       0.2266
     98  O         26.1900   -1.9470   13.4870 O.2    75  ASP75      -0.2867
     99  CB        23.6640   -2.8800   11.6810 C.3    75  ASP75       0.1410
    100  CG        22.9300   -4.1420   11.2840 C.2    75  ASP75       0.3668
    101  OD1       23.3370   -5.2310   11.7290 O.co2  75  ASP75      -0.2456
    102  OD2       21.9430   -4.0470   10.5320 O.co2  75  ASP75      -0.2456
    103  N         16.5530   -3.6620   17.1770 N.3   115  GLU115     -0.1231
    104  CA        16.1280   -4.3860   15.9850 C.3   115  GLU115      0.1699
    105  C         14.8810   -3.7760   15.3510 C.2   115  GLU115      0.2592
    106  O         14.5740   -4.0420   14.1820 O.2   115  GLU115     -0.2718
    107  CB        15.8890   -5.8610   16.3030 C.3   115  GLU115      0.0402
    108  CG        17.1340   -6.5840   16.7830 C.3   115  GLU115      0.1161
    109  CD        17.2100   -6.6990   18.2990 C.2   115  GLU115      0.3649
    110  OE1       17.1340   -5.6670   19.0010 O.co2 115  GLU115     -0.2457
    111  OE2       17.3510   -7.8400   18.7900 O.co2 115  GLU115     -0.2457
    112  N         14.1770   -2.9550   16.1280 N.am  116  ASN116     -0.1974
    113  CA        12.9140   -2.3500   15.7080 C.3   116  ASN116      0.1688
    114  C         13.0240   -0.8550   15.6610 C.2   116  ASN116      0.2292
    115  O         12.0310   -0.1440   15.7390 O.2   116  ASN116     -0.2864
    116  CB        11.7890   -2.7180   16.6770 C.3   116  ASN116      0.1181
    117  CG        11.2890   -4.1330   16.4800 C.2   116  ASN116      0.2629
    118  OD1       11.4570   -4.7240   15.4100 O.2   116  ASN116     -0.2716
    119  ND2       10.6590   -4.6810   17.5120 N.am  116  ASN116     -0.0877
    120  N         14.6420    1.4470   12.9750 N.3   118  LEU118     -0.1245
    121  CA        15.2280    1.4560   11.6470 C.3   118  LEU118      0.1561
    122  C         15.8140    2.8280   11.2650 C.2   118  LEU118      0.2260
    123  O         15.4070    3.8640   11.7900 O.2   118  LEU118     -0.2867
    124  CB        14.1910    0.9990   10.6220 C.3   118  LEU118      0.0270
    125  CG        13.6950   -0.4400   10.8320 C.3   118  LEU118      0.0019
    126  CD1       12.6660   -0.8320    9.7770 C.3   118  LEU118      0.0001
    127  CD2       14.8540   -1.4300   10.8490 C.3   118  LEU118      0.0001
    128  N          9.6130    0.8710   14.3440 N.3   128  SER128     -0.1202
    129  CA         9.2130   -0.1150   13.3420 C.3   128  SER128      0.2020
    130  C          8.5030   -1.3340   13.9440 C.2   128  SER128      0.2618
    131  O          8.7740   -1.7120   15.0810 O.2   128  SER128     -0.2717
    132  CB        10.4360   -0.5660   12.5310 C.3   128  SER128      0.2103
    133  OG        10.2240   -1.8260   11.9160 O.3   128  SER128     -0.2182
    134  N          7.5890   -1.9230   13.1670 N.am  129  ASP129     -0.1973
    135  CA         6.8050   -3.1110   13.5580 C.3   129  ASP129      0.1709
    136  C          5.7990   -2.9070   14.7100 C.2   129  ASP129      0.2293
    137  O          6.1760   -2.8950   15.8840 O.2   129  ASP129     -0.2864
    138  CB         7.7150   -4.3100   13.8430 C.3   129  ASP129      0.1436
    139  CG         6.9650   -5.6410   13.7930 C.2   129  ASP129      0.3671
    140  OD1        5.7260   -5.6350   13.9110 O.co2 129  ASP129     -0.2456
    141  OD2        7.6150   -6.7000   13.6400 O.co2 129  ASP129     -0.2456
@<TRIPOS>BOND
     1    67    65   ar
     2    67    68   ar
     3    65    63   ar
     4    69    68    1
     5    68    66   ar
     6    20    21    1
     7    63    62    1
     8    63    64   ar
     9    81    80    1
    10    62    59    1
    11    66    64   ar
    12    22    23    2
    13    22    21    1
    14    21    24    1
    15    80    77    1
    16     8     6    1
    17     7     6    1
    18    44    43    2
    19     6     5    1
    20    59    58    1
    21    59    60    1
    22    58    51   am
    23    61    60    2
    24    77    76    1
    25    77    78    1
    26     1     2    1
    27    41    42    1
    28    15    16    2
    29    15    14    1
    30    25    26    1
    31    28    27    2
    32    60    70   am
    33    76    72   am
    34    43    42    1
    35    43    49   am
    36    79    78    2
    37    27    26    1
    38    50    51    1
    39    50    49    1
    40    50    53    1
    41    51    52    2
    42     5     2    1
    43     2     3    1
    44    42    45    1
    45    26    29    1
    46    70    71    1
    47    14    13    1
    48    14    17    1
    49    72    73    2
    50    72    71    1
    51    54    53    1
    52    54    55    1
    53    18    17    1
    54    71    74    1
    55    56    55   ar
    56    45    46    1
    57    17    19    1
    58     3     9   am
    59     3     4    2
    60    55    57   ar
    61    29    30    1
    62     9    10    1
    63    46    47    1
    64    46    48    1
    65    74    75    1
    66    30    31    1
    67    82    83    1
    68    12    11    2
    69    10    11    1
    70    31    32    1
    71    83    84    1
    72    39    38    1
    73    32    33    1
    74    36    37    2
    75    36    35    1
    76    84    85    2
    77    84    86   am
    78   126   125    1
    79    38    35    1
    80    38    40    1
    81    35    34    1
    82   102   100   ar
    83    86    87    1
    84   124   125    1
    85   124   121    1
    86   125   127    1
    87   122   121    1
    88   122   123    2
    89   100    99    1
    90   100   101   ar
    91   121   120    1
    92    99    96    1
    93   133   132    1
    94    91    92    1
    95    91    90    1
    96    87    90    1
    97    87    88    1
    98    94    92   ar
    99    89    88    2
   100   132   129    1
   101    92    93   ar
   102   134   135    1
   103   134   130   am
   104    96    97    1
   105    96    95    1
   106   129   130    1
   107   129   128    1
   108    98    97    2
   109   135   138    1
   110   135   136    1
   111   141   139   ar
   112   139   138    1
   113   139   140   ar
   114   130   131    2
   115   106   105    2
   116   136   137    2
   117   105   104    1
   118   105   112   am
   119   118   117    2
   120   114   113    1
   121   114   115    2
   122   113   112    1
   123   113   116    1
   124   104   107    1
   125   104   103    1
   126   107   108    1
   127   117   116    1
   128   117   119   am
   129   108   109    1
   130   109   111   ar
   131   109   110   ar
