@<TRIPOS>MOLECULE
tmp/2xf2A00.pdb
 230 222 0 0 0
SMALL
GASTEIGER

@<TRIPOS>ATOM
      1  N        -24.2990   61.8690   11.8430 N.3    60  ARG60      -0.1231
      2  CA       -25.2350   62.9840   11.9740 C.3    60  ARG60       0.1694
      3  C        -26.2310   62.9490   10.8060 C.2    60  ARG60       0.2592
      4  O        -25.8420   62.6480    9.6730 O.2    60  ARG60      -0.2718
      5  CB       -24.4570   64.2880   11.9360 C.3    60  ARG60       0.0321
      6  CG       -23.4900   64.4700   13.1070 C.3    60  ARG60       0.0489
      7  CD       -22.4420   65.5230   12.7010 C.3    60  ARG60       0.2205
      8  NE       -21.6320   66.0090   13.8180 N.pl3  60  ARG60      -0.0865
      9  CZ       -20.6550   65.3240   14.4060 C.cat  60  ARG60       0.5346
     10  NH1      -20.3550   64.0830   14.0070 N.pl3  60  ARG60       0.1354
     11  NH2      -19.9740   65.8860   15.4050 N.pl3  60  ARG60       0.1354
     12  N        -27.4960   63.2590   11.0840 N.am   61  ALA61      -0.1966
     13  CA       -28.5720   63.1850   10.0710 C.3    61  ALA61       0.1728
     14  C        -28.2940   64.1370    8.9030 C.2    61  ALA61       0.2616
     15  O        -28.6430   63.8520    7.7510 O.2    61  ALA61      -0.2715
     16  CB       -29.9210   63.5070   10.7200 C.3    61  ALA61       0.0334
     17  N        -27.6690   65.2720    9.2130 N.am   62  VAL62      -0.1963
     18  CA       -27.0960   66.1560    8.2020 C.3    62  VAL62       0.1727
     19  C        -25.7390   66.5670    8.7510 C.2    62  VAL62       0.2616
     20  O        -25.5120   66.4600    9.9590 O.2    62  VAL62      -0.2715
     21  CB       -27.9670   67.4120    7.9440 C.3    62  VAL62       0.0290
     22  CG1      -29.1640   67.0630    7.0190 C.3    62  VAL62       0.0023
     23  CG2      -28.4630   68.0230    9.2730 C.3    62  VAL62       0.0023
     24  N        -24.8430   67.0110    7.8580 N.am   63  HIS63      -0.1973
     25  CA       -23.4640   67.3860    8.2210 C.3    63  HIS63       0.1656
     26  C        -22.6440   66.2210    8.7080 C.2    63  HIS63       0.2291
     27  O        -21.7550   66.3990    9.5460 O.2    63  HIS63      -0.2864
     28  CB       -23.4160   68.4860    9.2780 C.3    63  HIS63       0.0771
     29  CG       -24.1460   69.7200    8.8820 C.ar   63  HIS63       0.0820
     30  ND1      -23.5030   70.8290    8.3830 N.ar   63  HIS63      -0.2267
     31  CD2      -25.4660   70.0190    8.9000 C.ar   63  HIS63       0.1154
     32  CE1      -24.3900   71.7640    8.1130 C.ar   63  HIS63       0.1986
     33  NE2      -25.5870   71.3000    8.4230 N.ar   63  HIS63      -0.2212
     34  N        -16.3210   72.8780   14.3270 N.3   100  ARG100     -0.1245
     35  CA       -16.4540   71.8220   13.3290 C.3   100  ARG100      0.1563
     36  C        -16.9900   72.4290   12.0460 C.2   100  ARG100      0.2260
     37  O        -17.8930   73.2760   12.0860 O.2   100  ARG100     -0.2867
     38  CB       -17.3800   70.6960   13.8320 C.3   100  ARG100      0.0307
     39  CG       -17.3680   69.4340   12.9370 C.3   100  ARG100      0.0489
     40  CD       -18.1120   68.2570   13.6010 C.3   100  ARG100      0.2205
     41  NE       -18.2360   67.0790   12.7280 N.pl3 100  ARG100     -0.0865
     42  CZ       -19.1370   66.9470   11.7490 C.cat 100  ARG100      0.5346
     43  NH1      -19.9950   67.9300   11.4790 N.pl3 100  ARG100      0.1354
     44  NH2      -19.1720   65.8250   11.0190 N.pl3 100  ARG100      0.1354
     45  N        -18.2050   71.4270    7.8940 N.3   102  SER102     -0.1217
     46  CA       -18.8590   70.2520    7.3010 C.3   102  SER102      0.1889
     47  C        -19.4870   70.5520    5.9470 C.2   102  SER102      0.2288
     48  O        -19.5870   71.7060    5.5490 O.2   102  SER102     -0.2866
     49  CB       -19.9330   69.7330    8.2660 C.3   102  SER102      0.2089
     50  OG       -20.8460   70.7840    8.5670 O.3   102  SER102     -0.2183
     51  N        -21.2670   73.6660    6.8190 N.3   119  GLY119     -0.1210
     52  CA       -21.4420   73.9950    8.2260 C.3   119  GLY119      0.1956
     53  C        -20.2420   74.7320    8.7900 C.2   119  GLY119      0.2612
     54  O        -19.1040   74.5530    8.3340 O.2   119  GLY119     -0.2717
     55  N        -20.5030   75.5510    9.7990 N.am  120  PHE120     -0.1962
     56  CA       -19.4710   76.3360   10.4630 C.3   120  PHE120      0.1771
     57  C        -19.9630   76.4500   11.8970 C.2   120  PHE120      0.2619
     58  O        -20.6820   77.3860   12.2410 O.2   120  PHE120     -0.2715
     59  CB       -19.3950   77.7040    9.7640 C.3   120  PHE120      0.0574
     60  CG       -18.1450   78.5070   10.0650 C.ar  120  PHE120     -0.0200
     61  CD1      -17.7850   78.8160   11.3790 C.ar  120  PHE120     -0.0042
     62  CD2      -17.3750   79.0180    9.0200 C.ar  120  PHE120     -0.0042
     63  CE1      -16.6360   79.5880   11.6500 C.ar  120  PHE120     -0.0003
     64  CE2      -16.2460   79.7870    9.2730 C.ar  120  PHE120     -0.0003
     65  CZ       -15.8740   80.0690   10.5960 C.ar  120  PHE120     -0.0000
     66  N        -19.6460   75.4470   12.7180 N.am  121  ALA121     -0.1977
     67  CA       -20.1970   75.3650   14.0630 C.3   121  ALA121      0.1597
     68  C        -19.1100   75.6850   15.0910 C.2   121  ALA121      0.2287
     69  O        -18.0480   75.0560   15.0950 O.2   121  ALA121     -0.2864
     70  CB       -20.7860   73.9730   14.2990 C.3   121  ALA121      0.0319
     71  N        -24.2440   77.7360   15.7940 N.3   134  VAL134     -0.1231
     72  CA       -24.2410   76.6430   14.8330 C.3   134  VAL134      0.1692
     73  C        -24.6050   77.2480   13.4630 C.2   134  VAL134      0.2593
     74  O        -25.7810   77.3880   13.1160 O.2   134  VAL134     -0.2718
     75  CB       -25.2080   75.5280   15.2610 C.3   134  VAL134      0.0266
     76  CG1      -25.0780   74.3210   14.3360 C.3   134  VAL134      0.0020
     77  CG2      -24.9140   75.1010   16.7070 C.3   134  VAL134      0.0020
     78  N        -23.5770   77.6170   12.7060 N.am  135  GLY135     -0.1942
     79  CA       -23.7560   78.4100   11.4950 C.3   135  GLY135      0.2014
     80  C        -23.3760   77.7170   10.2060 C.2   135  GLY135      0.2638
     81  O        -23.1620   76.5100   10.1830 O.2   135  GLY135     -0.2714
     82  N        -23.3150   78.4930    9.1280 N.am  136  ASN136     -0.1972
     83  CA       -23.0190   77.9700    7.7880 C.3   136  ASN136      0.1688
     84  C        -22.0740   78.9550    7.1100 C.2   136  ASN136      0.2292
     85  O        -21.8700   80.0680    7.6210 O.2   136  ASN136     -0.2864
     86  CB       -24.3010   77.9120    6.9220 C.3   136  ASN136      0.1181
     87  CG       -25.1440   76.6500    7.1290 C.2   136  ASN136      0.2629
     88  OD1      -24.6790   75.6110    7.6200 O.2   136  ASN136     -0.2716
     89  ND2      -26.4120   76.7360    6.7100 N.am  136  ASN136     -0.0877
     90  N        -30.6730   80.6040    4.4450 N.3   141  PHE141     -0.1241
     91  CA       -30.9730   79.1910    4.2700 C.3   141  PHE141      0.1605
     92  C        -32.1800   78.9820    3.3460 C.2   141  PHE141      0.2264
     93  O        -32.9150   79.9350    3.0630 O.2   141  PHE141     -0.2867
     94  CB       -31.1380   78.4760    5.6220 C.3   141  PHE141      0.0534
     95  CG       -31.0610   76.9890    5.5040 C.ar  141  PHE141     -0.0203
     96  CD1      -29.9150   76.3850    4.9840 C.ar  141  PHE141     -0.0042
     97  CD2      -32.1500   76.1950    5.8460 C.ar  141  PHE141     -0.0042
     98  CE1      -29.8430   74.9890    4.8270 C.ar  141  PHE141     -0.0003
     99  CE2      -32.0860   74.8050    5.7080 C.ar  141  PHE141     -0.0003
    100  CZ       -30.9390   74.2060    5.1980 C.ar  141  PHE141     -0.0000
    101  N        -38.7980   75.5370   10.2020 N.3   146  ALA146     -0.1245
    102  CA       -38.1080   74.2950   10.5370 C.3   146  ALA146      0.1562
    103  C        -38.9030   73.0390   10.1640 C.2   146  ALA146      0.2260
    104  O        -38.3150   71.9960    9.9070 O.2   146  ALA146     -0.2867
    105  CB       -37.7680   74.2640   12.0160 C.3   146  ALA146      0.0290
    106  N        -37.8840   71.0160    7.1590 N.3   149  PHE149     -0.1228
    107  CA       -36.5260   70.4820    7.0300 C.3   149  PHE149      0.1721
    108  C        -36.4790   69.0660    6.4590 C.2   149  PHE149      0.2437
    109  O        -35.6960   68.8140    5.5510 O.2   149  PHE149     -0.2733
    110  CB       -35.7720   70.5460    8.3610 C.3   149  PHE149      0.0547
    111  CG       -34.2920   70.4280    8.2190 C.ar  149  PHE149     -0.0202
    112  CD1      -33.5730   71.3650    7.4780 C.ar  149  PHE149     -0.0042
    113  CD2      -33.5980   69.4000    8.8520 C.ar  149  PHE149     -0.0042
    114  CE1      -32.1860   71.2800    7.3810 C.ar  149  PHE149     -0.0003
    115  CE2      -32.2080   69.3120    8.7540 C.ar  149  PHE149     -0.0003
    116  CZ       -31.5060   70.2520    8.0160 C.ar  149  PHE149     -0.0000
    117  N        -37.3120   68.1370    6.9750 N.am  150  PRO150     -0.2729
    118  CA       -37.2650   66.7900    6.4000 C.3   150  PRO150      0.1401
    119  C        -37.6530   66.7610    4.9240 C.2   150  PRO150      0.2269
    120  O        -37.1710   65.9010    4.1780 O.2   150  PRO150     -0.2865
    121  CB       -38.2760   66.0030    7.2530 C.3   150  PRO150      0.0296
    122  CG       -38.3160   66.7570    8.5470 C.3   150  PRO150      0.0237
    123  CD       -38.2750   68.1970    8.0870 C.3   150  PRO150      0.0939
    124  N        -24.2520   83.2060   11.3710 N.3   208  GLY208     -0.1210
    125  CA       -25.2590   82.5960   12.2390 C.3   208  GLY208      0.1956
    126  C        -26.6020   82.4020   11.5500 C.2   208  GLY208      0.2612
    127  O        -27.4610   81.6780   12.0550 O.2   208  GLY208     -0.2717
    128  N        -26.7640   83.0480   10.3880 N.am  209  VAL209     -0.1965
    129  CA       -27.9840   83.0550    9.5790 C.3   209  VAL209      0.1727
    130  C        -29.1270   83.8220   10.2340 C.2   209  VAL209      0.2616
    131  O        -29.5720   84.8430    9.6930 O.2   209  VAL209     -0.2715
    132  CB       -28.4530   81.6400    9.1180 C.3   209  VAL209      0.0290
    133  CG1      -29.7350   81.7420    8.2590 C.3   209  VAL209      0.0023
    134  CG2      -27.3370   80.9320    8.3620 C.3   209  VAL209      0.0023
    135  N        -29.6040   83.3290   11.3760 N.am  210  HIS210     -0.1973
    136  CA       -30.7520   83.9480   12.0560 C.3   210  HIS210      0.1656
    137  C        -30.4070   85.2610   12.7020 C.2   210  HIS210      0.2291
    138  O        -29.2740   85.5030   13.1130 O.2   210  HIS210     -0.2864
    139  CB       -31.2810   83.0400   13.1730 C.3   210  HIS210      0.0771
    140  CG       -31.4790   81.6260   12.7520 C.ar  210  HIS210      0.0820
    141  ND1      -32.4710   81.2500   11.8700 N.ar  210  HIS210     -0.2267
    142  CD2      -30.8000   80.4960   13.0710 C.ar  210  HIS210      0.1154
    143  CE1      -32.4050   79.9420   11.6790 C.ar  210  HIS210      0.1986
    144  NE2      -31.3970   79.4630   12.3890 N.ar  210  HIS210     -0.2212
    145  N        -18.6410   65.4460   19.1520 N.3   324  VAL324     -0.1245
    146  CA       -19.0720   66.7870   19.5760 C.3   324  VAL324      0.1561
    147  C        -20.5410   66.9920   19.1580 C.2   324  VAL324      0.2260
    148  O        -20.9400   66.6300   18.0490 O.2   324  VAL324     -0.2867
    149  CB       -18.1380   67.9420   19.0760 C.3   324  VAL324      0.0252
    150  CG1      -18.2150   68.1110   17.5520 C.3   324  VAL324      0.0019
    151  CG2      -18.4760   69.2540   19.7880 C.3   324  VAL324      0.0019
    152  N        -23.3060   69.7930   19.0500 N.3   326  PHE326     -0.1241
    153  CA       -23.6530   71.2130   19.1190 C.3   326  PHE326      0.1605
    154  C        -25.1530   71.3780   19.2690 C.2   326  PHE326      0.2264
    155  O        -25.9240   70.5310   18.8170 O.2   326  PHE326     -0.2867
    156  CB       -23.2540   71.9190   17.8280 C.3   326  PHE326      0.0534
    157  CG       -21.7760   72.0340   17.6280 C.ar  326  PHE326     -0.0203
    158  CD1      -21.0640   73.0830   18.1980 C.ar  326  PHE326     -0.0042
    159  CD2      -21.0930   71.0940   16.8480 C.ar  326  PHE326     -0.0042
    160  CE1      -19.6650   73.2050   17.9830 C.ar  326  PHE326     -0.0003
    161  CE2      -19.7020   71.2000   16.6540 C.ar  326  PHE326     -0.0003
    162  CZ       -18.9960   72.2640   17.2250 C.ar  326  PHE326     -0.0000
    163  N        -37.5840   79.1520   11.5890 N.3   342  LEU342     -0.1245
    164  CA       -36.5410   78.1680   11.3170 C.3   342  LEU342      0.1561
    165  C        -35.7030   77.9420   12.5840 C.2   342  LEU342      0.2260
    166  O        -35.4530   76.8000   12.9780 O.2   342  LEU342     -0.2867
    167  CB       -35.6760   78.6430   10.1380 C.3   342  LEU342      0.0270
    168  CG       -34.6950   77.6300    9.5440 C.3   342  LEU342      0.0019
    169  CD1      -35.4310   76.4850    8.8240 C.3   342  LEU342      0.0001
    170  CD2      -33.7860   78.3690    8.5710 C.3   342  LEU342      0.0001
    171  N        -37.8190   76.0870   15.5410 N.3   345  GLY345     -0.1210
    172  CA       -37.8820   74.6280   15.4430 C.3   345  GLY345      0.1956
    173  C        -36.5530   73.8990   15.5830 C.2   345  GLY345      0.2611
    174  O        -36.5140   72.7400   16.0360 O.2   345  GLY345     -0.2717
    175  N        -35.4620   74.5530   15.1810 N.am  346  ARG346     -0.1979
    176  CA       -34.1200   74.0020   15.3900 C.3   346  ARG346      0.1597
    177  C        -33.8950   73.6490   16.8360 C.2   346  ARG346      0.2287
    178  O        -33.2830   72.6370   17.1300 O.2   346  ARG346     -0.2864
    179  CB       -33.0260   74.9890   14.9560 C.3   346  ARG346      0.0334
    180  CG       -32.8610   75.0580   13.4360 C.3   346  ARG346      0.0492
    181  CD       -31.7760   76.0620   13.0820 C.3   346  ARG346      0.2205
    182  NE       -30.4280   75.5350   13.3050 N.pl3 346  ARG346     -0.0865
    183  CZ       -29.3470   76.3050   13.4030 C.cat 346  ARG346      0.5346
    184  NH1      -29.4660   77.6310   13.3330 N.pl3 346  ARG346      0.1354
    185  NH2      -28.1510   75.7580   13.5930 N.pl3 346  ARG346      0.1354
    186  N        -34.8270   70.0570   17.6810 N.3   349  SER349     -0.1202
    187  CA       -34.1370   69.0040   16.9650 C.3   349  SER349      0.2020
    188  C        -32.7870   68.6510   17.5790 C.2   349  SER349      0.2618
    189  O        -32.4400   67.4780   17.6810 O.2   349  SER349     -0.2717
    190  CB       -33.9440   69.4350   15.4980 C.3   349  SER349      0.2103
    191  OG       -33.1610   68.4960   14.7790 O.3   349  SER349     -0.2182
    192  N        -32.0110   69.6580   17.9850 N.am  350  TYR350     -0.1975
    193  CA       -30.6330   69.3580   18.3720 C.3   350  TYR350      0.1639
    194  C        -30.5590   68.6780   19.7280 C.2   350  TYR350      0.2290
    195  O        -29.6070   67.9650   19.9910 O.2   350  TYR350     -0.2864
    196  CB       -29.7660   70.6040   18.3960 C.3   350  TYR350      0.0560
    197  CG       -29.5060   71.2040   17.0370 C.ar  350  TYR350     -0.0198
    198  CD1      -30.5050   71.9080   16.3710 C.ar  350  TYR350     -0.0009
    199  CD2      -28.2450   71.1180   16.4500 C.ar  350  TYR350     -0.0009
    200  CE1      -30.2740   72.4830   15.1450 C.ar  350  TYR350      0.0417
    201  CE2      -27.9960   71.7040   15.1970 C.ar  350  TYR350      0.0417
    202  CZ       -29.0250   72.3850   14.5700 C.ar  350  TYR350      0.1957
    203  OH       -28.8330   72.9790   13.3490 O.3   350  TYR350     -0.2866
    204  N        -31.9480   64.8720   18.7510 N.3   353  THR353     -0.1203
    205  CA       -31.1200   64.0470   17.8670 C.3   353  THR353      0.1994
    206  C        -29.8880   63.4550   18.5870 C.2   353  THR353      0.2617
    207  O        -29.3740   62.4190   18.1850 O.2   353  THR353     -0.2717
    208  CB       -30.7110   64.8070   16.5740 C.3   353  THR353      0.1784
    209  OG1      -30.2840   63.8660   15.5830 O.3   353  THR353     -0.2211
    210  CG2      -29.5870   65.8440   16.8510 C.3   353  THR353      0.0376
    211  N        -29.4210   64.1080   19.6520 N.am  354  GLN354     -0.1979
    212  CA       -28.2630   63.5560   20.3800 C.3   354  GLN354      0.1601
    213  C        -28.6230   62.2400   21.0640 C.2   354  GLN354      0.2287
    214  O        -27.7430   61.4180   21.3180 O.2   354  GLN354     -0.2864
    215  CB       -27.6660   64.5340   21.4130 C.3   354  GLN354      0.0394
    216  CG       -27.4890   65.9870   20.9350 C.3   354  GLN354      0.0908
    217  CD       -26.8260   66.1520   19.5750 C.2   354  GLN354      0.2608
    218  OE1      -26.2850   65.2090   18.9920 O.2   354  GLN354     -0.2717
    219  NE2      -26.8590   67.3840   19.0670 N.am  354  GLN354     -0.0878
    220  N        -27.6210   59.7220   18.4860 N.3   357  ARG357     -0.1245
    221  CA       -26.1840   59.5630   18.2880 C.3   357  ARG357      0.1563
    222  C        -25.5090   58.8950   19.4740 C.2   357  ARG357      0.2260
    223  O        -24.6830   58.0130   19.3020 O.2   357  ARG357     -0.2867
    224  CB       -25.5400   60.9190   18.0410 C.3   357  ARG357      0.0307
    225  CG       -25.9060   61.5160   16.6830 C.3   357  ARG357      0.0489
    226  CD       -25.4610   62.9850   16.6010 C.3   357  ARG357      0.2205
    227  NE       -24.0200   63.1050   16.8280 N.pl3 357  ARG357     -0.0865
    228  CZ       -23.3510   64.2540   16.9050 C.cat 357  ARG357      0.5346
    229  NH1      -23.9940   65.4210   16.8120 N.pl3 357  ARG357      0.1354
    230  NH2      -22.0360   64.2260   17.0990 N.pl3 357  ARG357      0.1354
@<TRIPOS>BOND
     1    93    92    2
     2    92    91    1
     3   120   119    2
     4    91    90    1
     5    91    94    1
     6    98    96   ar
     7    98   100   ar
     8   119   118    1
     9    96    95   ar
    10   100    99   ar
    11    95    94    1
    12    95    97   ar
    13    48    47    2
    14   109   108    2
    15    99    97   ar
    16    47    46    1
    17   118   117    1
    18   118   121    1
    19   108   117   am
    20   108   107    1
    21    89    87   am
    22    51    52    1
    23    86    87    1
    24    86    83    1
    25   117   123    1
    26    22    21    1
    27   107   106    1
    28   107   110    1
    29    84    85    2
    30    84    83    1
    31    87    88    2
    32   121   122    1
    33    46    45    1
    34    46    49    1
    35   114   112   ar
    36   114   116   ar
    37   112   111   ar
    38    15    14    2
    39    83    82    1
    40    24    25    1
    41    24    19   am
    42    21    18    1
    43    21    23    1
    44   116   115   ar
    45   123   122    1
    46    32    30   ar
    47    32    33   ar
    48    18    19    1
    49    18    17    1
    50   111   110    1
    51   111   113   ar
    52    25    26    1
    53    25    28    1
    54    52    53    1
    55   133   132    1
    56    49    50    1
    57    54    53    2
    58   134   132    1
    59    30    29   ar
    60    33    31   ar
    61   170   168    1
    62    26    27    2
    63    19    20    2
    64   115   113   ar
    65    53    55   am
    66   169   168    1
    67    29    31   ar
    68    29    28    1
    69    14    17   am
    70    14    13    1
    71    62    64   ar
    72    62    60   ar
    73   132   129    1
    74    82    80   am
    75    64    65   ar
    76   168   167    1
    77   129   130    1
    78   129   128    1
    79     4     3    2
    80   131   130    2
    81    59    60    1
    82    59    56    1
    83    55    56    1
    84   104   103    2
    85    60    61   ar
    86    13    16    1
    87    13    12    1
    88   167   164    1
    89   103   102    1
    90    81    80    2
    91   101   102    1
    92    80    79    1
    93   130   135   am
    94   128   126   am
    95    56    57    1
    96   102   105    1
    97    65    63   ar
    98     3    12   am
    99     3     2    1
   100    44    42    1
   101   164   163    1
   102   164   165    1
   103   124   125    1
   104   135   136    1
   105    61    63   ar
   106    43    42    1
   107    79    78    1
   108   126   127    2
   109   126   125    1
   110   143   141   ar
   111   143   144   ar
   112    42    41    2
   113     1     2    1
   114   141   140   ar
   115    57    58    2
   116    57    66   am
   117     5     2    1
   118     5     6    1
   119    36    37    2
   120    36    35    1
   121   136   137    1
   122   136   139    1
   123   144   142   ar
   124   165   166    2
   125     7     6    1
   126     7     8    1
   127   137   138    2
   128    78    73   am
   129    66    67    1
   130    41    40    1
   131   140   142   ar
   132   140   139    1
   133    39    40    1
   134    39    38    1
   135   181   182    1
   136   181   180    1
   137    74    73    2
   138   182   183    2
   139    35    38    1
   140    35    34    1
   141   184   183    1
   142   203   202    1
   143   183   185    1
   144   180   179    1
   145    73    72    1
   146     8     9    2
   147    10     9    1
   148    67    70    1
   149    67    68    1
   150    76    75    1
   151     9    11    1
   152   202   200   ar
   153   202   201   ar
   154   191   190    1
   155    72    75    1
   156    72    71    1
   157   179   176    1
   158    68    69    2
   159   200   198   ar
   160   175   176    1
   161   175   173   am
   162   201   199   ar
   163    75    77    1
   164   176   177    1
   165   172   171    1
   166   172   173    1
   167   190   187    1
   168   209   208    1
   169   173   174    2
   170   198   197   ar
   171   199   197   ar
   172   208   210    1
   173   208   205    1
   174   226   225    1
   175   226   227    1
   176   161   159   ar
   177   161   162   ar
   178   225   224    1
   179   229   228    1
   180   227   228    2
   181   177   178    2
   182   159   157   ar
   183   228   230    1
   184   187   188    1
   185   187   186    1
   186   197   196    1
   187   162   160   ar
   188   150   149    1
   189   188   189    2
   190   188   192   am
   191   157   156    1
   192   157   158   ar
   193   156   153    1
   194   205   206    1
   195   205   204    1
   196   160   158   ar
   197   192   193    1
   198   224   221    1
   199   148   147    2
   200   207   206    2
   201   221   220    1
   202   221   222    1
   203   193   196    1
   204   193   194    1
   205   206   211   am
   206   155   154    2
   207   218   217    2
   208   152   153    1
   209   219   217   am
   210   149   146    1
   211   149   151    1
   212   153   154    1
   213   145   146    1
   214   147   146    1
   215   223   222    2
   216   217   216    1
   217   211   212    1
   218   194   195    2
   219   212   213    1
   220   212   215    1
   221   216   215    1
   222   213   214    2
