@<TRIPOS>MOLECULE
tmp/2xf3B00.pdb
 124 115 0 0 0
SMALL
GASTEIGER

@<TRIPOS>ATOM
      1  N        -19.2230   56.8880   60.3670 N.3    77  HIS77      -0.1241
      2  CA       -17.9350   56.5830   59.7470 C.3    77  HIS77       0.1621
      3  C        -18.1190   55.8700   58.4110 C.2    77  HIS77       0.2264
      4  O        -17.9450   54.6440   58.3340 O.2    77  HIS77      -0.2867
      5  CB       -17.0770   55.6910   60.6600 C.3    77  HIS77       0.0745
      6  CG       -16.8170   56.2610   62.0180 C.ar   77  HIS77       0.0817
      7  ND1      -15.8920   57.2570   62.2390 N.ar   77  HIS77      -0.2268
      8  CD2      -17.3290   55.9430   63.2310 C.ar   77  HIS77       0.1154
      9  CE1      -15.8660   57.5490   63.5300 C.ar   77  HIS77       0.1986
     10  NE2      -16.7290   56.7650   64.1540 N.ar   77  HIS77      -0.2212
     11  N        -16.7640   54.6670   54.8930 N.3    79  VAL79      -0.1245
     12  CA       -15.4790   54.4200   54.2290 C.3    79  VAL79       0.1561
     13  C        -15.7610   53.5540   52.9940 C.2    79  VAL79       0.2260
     14  O        -15.7670   52.3150   53.0660 O.2    79  VAL79      -0.2867
     15  CB       -14.4350   53.7050   55.1490 C.3    79  VAL79       0.0252
     16  CG1      -13.0930   53.5840   54.4370 C.3    79  VAL79       0.0019
     17  CG2      -14.2530   54.4240   56.4970 C.3    79  VAL79       0.0019
     18  N        -19.9390   52.5140   59.4060 N.3    84  TRP84      -0.1241
     19  CA       -20.2750   52.2630   60.8010 C.3    84  TRP84       0.1605
     20  C        -20.9890   53.4660   61.3650 C.2    84  TRP84       0.2264
     21  O        -20.5880   54.6120   61.1330 O.2    84  TRP84      -0.2867
     22  CB       -19.0170   51.9910   61.6330 C.3    84  TRP84       0.0550
     23  CG       -18.2550   50.7870   61.1610 C.ar   84  TRP84       0.0003
     24  CD1      -18.4260   49.4950   61.5830 C.ar   84  TRP84       0.0946
     25  CD2      -17.2280   50.7500   60.1600 C.ar   84  TRP84       0.0152
     26  NE1      -17.5610   48.6580   60.9200 N.ar   84  TRP84      -0.2442
     27  CE2      -16.8280   49.3950   60.0270 C.ar   84  TRP84       0.0810
     28  CE3      -16.6200   51.7230   59.3480 C.ar   84  TRP84       0.0012
     29  CZ2      -15.8280   48.9870   59.1240 C.ar   84  TRP84       0.0191
     30  CZ3      -15.6290   51.3160   58.4470 C.ar   84  TRP84       0.0001
     31  CH2      -15.2420   49.9560   58.3480 C.ar   84  TRP84       0.0015
     32  N        -22.2750   54.7790   65.1170 N.3    86  VAL86      -0.1245
     33  CA       -22.2890   54.5600   66.5640 C.3    86  VAL86       0.1561
     34  C        -23.5810   55.1550   67.1130 C.2    86  VAL86       0.2260
     35  O        -23.8900   56.3330   66.8600 O.2    86  VAL86      -0.2867
     36  CB       -21.0860   55.2360   67.2480 C.3    86  VAL86       0.0252
     37  CG1      -21.1290   54.9850   68.7540 C.3    86  VAL86       0.0019
     38  CG2      -19.7900   54.7190   66.6610 C.3    86  VAL86       0.0019
     39  N        -23.0730   49.5770   67.6240 N.3    96  ILE96      -0.1245
     40  CA       -22.6110   50.0130   66.3200 C.3    96  ILE96       0.1561
     41  C        -23.4140   49.3020   65.2560 C.2    96  ILE96       0.2260
     42  O        -23.5950   48.0830   65.3040 O.2    96  ILE96      -0.2867
     43  CB       -21.0930   49.8050   66.1390 C.3    96  ILE96       0.0252
     44  CG1      -20.3520   50.7290   67.1160 C.3    96  ILE96       0.0019
     45  CG2      -20.6790   50.0830   64.6700 C.3    96  ILE96       0.0019
     46  CD1      -18.8400   50.6310   67.1100 C.3    96  ILE96       0.0001
     47  N        -21.2140   48.0350   71.1670 N.3   115  GLU115     -0.1231
     48  CA       -20.1370   48.9010   70.7060 C.3   115  GLU115      0.1699
     49  C        -18.7550   48.2730   70.9110 C.2   115  GLU115      0.2592
     50  O        -18.4890   47.6540   71.9290 O.2   115  GLU115     -0.2718
     51  CB       -20.2050   50.2350   71.4450 C.3   115  GLU115      0.0402
     52  CG       -18.9880   51.0720   71.2780 C.3   115  GLU115      0.1161
     53  CD       -19.0470   52.3740   72.0360 C.2   115  GLU115      0.3649
     54  OE1      -19.2530   52.3890   73.2900 O.co2 115  GLU115     -0.2457
     55  OE2      -18.8020   53.3870   71.3640 O.co2 115  GLU115     -0.2457
     56  N        -17.8880   48.4610   69.9220 N.am  116  THR116     -0.1953
     57  CA       -16.4710   48.1330   70.0310 C.3   116  THR116      0.1897
     58  C        -15.7600   49.3550   70.5920 C.2   116  THR116      0.2313
     59  O        -15.7890   50.4240   69.9790 O.2   116  THR116     -0.2863
     60  CB       -15.9150   47.7770   68.6340 C.3   116  THR116      0.1794
     61  OG1      -16.6710   46.6890   68.0870 O.3   116  THR116     -0.2208
     62  CG2      -14.4640   47.3880   68.7360 C.3   116  THR116      0.0378
     63  N        -12.4820   51.4000   71.6220 N.3   118  ILE118     -0.1245
     64  CA       -11.0400   51.6070   71.4510 C.3   118  ILE118      0.1561
     65  C        -10.6900   52.9860   72.0170 C.2   118  ILE118      0.2260
     66  O        -11.1390   54.0040   71.4900 O.2   118  ILE118     -0.2867
     67  CB       -10.5930   51.5340   69.9630 C.3   118  ILE118      0.0252
     68  CG1      -11.1350   50.2750   69.2560 C.3   118  ILE118      0.0019
     69  CG2       -9.0790   51.5560   69.8740 C.3   118  ILE118      0.0019
     70  CD1      -12.2750   50.5500   68.3070 C.3   118  ILE118      0.0001
     71  N         -9.9330   53.4040   56.1330 N.3   355  LEU355     -0.1245
     72  CA       -10.2070   54.3990   57.1710 C.3   355  LEU355      0.1561
     73  C        -10.4500   55.7200   56.4980 C.2   355  LEU355      0.2260
     74  O        -10.0910   55.8920   55.3350 O.2   355  LEU355     -0.2867
     75  CB        -8.9780   54.6070   58.0630 C.3   355  LEU355      0.0270
     76  CG        -8.5160   53.4440   58.9130 C.3   355  LEU355      0.0019
     77  CD1       -7.1830   53.8000   59.5700 C.3   355  LEU355      0.0001
     78  CD2       -9.5860   53.1060   59.9500 C.3   355  LEU355      0.0001
     79  N        -13.7270   44.9820   63.6570 N.3   408  LEU408     -0.1245
     80  CA       -13.7530   46.4080   63.9420 C.3   408  LEU408      0.1561
     81  C        -12.7590   46.7700   65.0580 C.2   408  LEU408      0.2260
     82  O        -12.1770   47.8490   65.0260 O.2   408  LEU408     -0.2867
     83  CB       -15.1620   46.8780   64.3030 C.3   408  LEU408      0.0270
     84  CG       -15.2680   48.3890   64.5470 C.3   408  LEU408      0.0019
     85  CD1      -14.7690   49.2210   63.3500 C.3   408  LEU408      0.0001
     86  CD2      -16.7130   48.6940   64.8790 C.3   408  LEU408      0.0001
     87  N         -9.2300   46.9290   63.4750 N.3   411  ARG411     -0.1231
     88  CA        -9.2110   48.0770   62.5580 C.3   411  ARG411      0.1694
     89  C         -9.1600   49.3730   63.3570 C.2   411  ARG411      0.2592
     90  O         -8.4060   50.3090   63.0080 O.2   411  ARG411     -0.2718
     91  CB       -10.4320   48.0810   61.6290 C.3   411  ARG411      0.0321
     92  CG       -10.3310   49.1580   60.5560 C.3   411  ARG411      0.0489
     93  CD       -11.6650   49.4700   59.8900 C.3   411  ARG411      0.2205
     94  NE       -12.2290   48.2710   59.2750 N.pl3 411  ARG411     -0.0865
     95  CZ       -12.2180   48.0100   57.9720 C.cat 411  ARG411      0.5346
     96  NH1      -11.7040   48.8780   57.1070 N.pl3 411  ARG411      0.1354
     97  NH2      -12.7590   46.8800   57.5370 N.pl3 411  ARG411      0.1354
     98  N         -9.9660   49.4110   64.4220 N.am  412  GLY412     -0.1957
     99  CA       -10.0860   50.5910   65.2860 C.3   412  GLY412      0.1869
    100  C         -8.7960   50.9140   66.0110 C.2   412  GLY412      0.2309
    101  O         -8.4590   52.0890   66.2160 O.2   412  GLY412     -0.2863
    102  N         -6.8320   52.5550   63.4820 N.3   415  ALA415     -0.1231
    103  CA        -7.3750   53.9190   63.3910 C.3   415  ALA415      0.1694
    104  C         -6.7900   54.8370   64.4550 C.2   415  ALA415      0.2591
    105  O         -6.3880   55.9560   64.1470 O.2   415  ALA415     -0.2718
    106  CB        -8.8980   53.9030   63.4740 C.3   415  ALA415      0.0304
    107  N         -6.7300   54.3450   65.6880 N.am  416  LYS416     -0.1980
    108  CA        -6.2400   55.1620   66.7940 C.3   416  LYS416      0.1596
    109  C         -4.7290   55.3790   66.7490 C.2   416  LYS416      0.2287
    110  O         -4.2310   56.4510   67.1220 O.2   416  LYS416     -0.2864
    111  CB        -6.6880   54.5900   68.1430 C.3   416  LYS416      0.0298
    112  CG        -8.1930   54.7170   68.3840 C.3   416  LYS416      0.0038
    113  CD        -8.6290   56.1810   68.3070 C.3   416  LYS416      0.0206
    114  CE       -10.0850   56.4080   68.6990 C.3   416  LYS416      0.1093
    115  NZ       -10.4000   57.8590   68.6230 N.3   416  LYS416     -0.1314
    116  N         -4.3550   57.9990   64.0070 N.3   419  GLU419     -0.1245
    117  CA        -4.8060   59.2890   64.5370 C.3   419  GLU419      0.1567
    118  C         -3.7000   59.9010   65.4010 C.2   419  GLU419      0.2260
    119  O         -3.4430   61.1090   65.3270 O.2   419  GLU419     -0.2867
    120  CB        -6.0800   59.1080   65.3680 C.3   419  GLU419      0.0388
    121  CG        -6.7130   60.4190   65.7870 C.3   419  GLU419      0.1160
    122  CD        -7.9310   60.2530   66.6820 C.2   419  GLU419      0.3649
    123  OE1       -8.5430   59.1560   66.7000 O.co2 419  GLU419     -0.2457
    124  OE2       -8.2850   61.2430   67.3710 O.co2 419  GLU419     -0.2457
@<TRIPOS>BOND
     1    13    14    2
     2    13    12    1
     3    12    11    1
     4    12    15    1
     5    16    15    1
     6    15    17    1
     7    74    73    2
     8    71    72    1
     9    73    72    1
    10    96    95    1
    11    72    75    1
    12    97    95    1
    13    95    94    2
    14    75    76    1
    15     4     3    2
    16    31    30   ar
    17    31    29   ar
    18     3     2    1
    19    30    28   ar
    20    76    77    1
    21    76    78    1
    22    29    27   ar
    23    94    93    1
    24    28    25   ar
    25    18    19    1
    26     2     1    1
    27     2     5    1
    28    93    92    1
    29    27    25   ar
    30    27    26   ar
    31    25    23   ar
    32    92    91    1
    33     5     6    1
    34    19    20    1
    35    19    22    1
    36    26    24   ar
    37    21    20    2
    38    23    24   ar
    39    23    22    1
    40    91    88    1
    41     6     7   ar
    42     6     8   ar
    43     7     9   ar
    44    88    89    1
    45    88    87    1
    46    90    89    2
    47     8    10   ar
    48    85    84    1
    49    89    98   am
    50   103   106    1
    51   103   102    1
    52   103   104    1
    53     9    10   ar
    54    79    80    1
    55    80    83    1
    56    80    81    1
    57   116   117    1
    58   105   104    2
    59    83    84    1
    60    98    99    1
    61   104   107   am
    62   117   120    1
    63   117   118    1
    64    84    86    1
    65    45    43    1
    66    82    81    2
    67    32    33    1
    68    41    42    2
    69    41    40    1
    70    99   100    1
    71   119   118    2
    72   120   121    1
    73   107   108    1
    74   121   122    1
    75   100   101    2
    76    43    40    1
    77    43    44    1
    78    40    39    1
    79    33    34    1
    80    33    36    1
    81    38    36    1
    82   122   123   ar
    83   122   124   ar
    84   109   108    1
    85   109   110    2
    86   108   111    1
    87    35    34    2
    88    46    44    1
    89    36    37    1
    90    61    60    1
    91   111   112    1
    92    70    68    1
    93   113   112    1
    94   113   114    1
    95   115   114    1
    96    60    62    1
    97    60    57    1
    98    68    67    1
    99    69    67    1
   100    56    57    1
   101    56    49   am
   102    67    64    1
   103    59    58    2
   104    57    58    1
   105    48    49    1
   106    48    47    1
   107    48    51    1
   108    49    50    2
   109    52    51    1
   110    52    53    1
   111    55    53   ar
   112    64    63    1
   113    64    65    1
   114    66    65    2
   115    53    54   ar
