@<TRIPOS>MOLECULE
tmp/2xf3B01.pdb
 154 149 0 0 0
SMALL
GASTEIGER

@<TRIPOS>ATOM
      1  N        -17.3730   51.2980   50.5690 N.3    81  HIS81      -0.1226
      2  CA       -18.4820   50.3330   50.6320 C.3    81  HIS81       0.1752
      3  C        -18.7410   49.8170   52.0550 C.2    81  HIS81       0.2595
      4  O        -19.6150   48.9730   52.2600 O.2    81  HIS81      -0.2718
      5  CB       -18.2140   49.1600   49.6670 C.3    81  HIS81       0.0759
      6  CG       -16.9680   48.4020   49.9840 C.ar   81  HIS81       0.0818
      7  ND1      -15.7120   48.9340   49.7900 N.ar   81  HIS81      -0.2268
      8  CD2      -16.7760   47.1560   50.4840 C.ar   81  HIS81       0.1154
      9  CE1      -14.8000   48.0600   50.1740 C.ar   81  HIS81       0.1986
     10  NE2      -15.4180   46.9700   50.5940 N.ar   81  HIS81      -0.2212
     11  N        -17.9510   50.3100   53.0180 N.am   82  LYS82      -0.1980
     12  CA       -18.0930   49.9530   54.4350 C.3    82  LYS82       0.1596
     13  C        -18.5650   51.1880   55.1920 C.2    82  LYS82       0.2287
     14  O        -18.2230   52.3310   54.8520 O.2    82  LYS82      -0.2864
     15  CB       -16.7510   49.4980   55.0200 C.3    82  LYS82       0.0298
     16  CG       -16.0510   48.3540   54.2760 C.3    82  LYS82       0.0038
     17  CD       -16.7490   47.0280   54.4460 C.3    82  LYS82       0.0206
     18  CE       -16.4200   46.3790   55.7760 C.3    82  LYS82       0.1093
     19  NZ       -17.0320   45.0200   55.8630 N.3    82  LYS82      -0.1314
     20  N        -19.9390   52.5140   59.4060 N.3    84  TRP84      -0.1241
     21  CA       -20.2750   52.2630   60.8010 C.3    84  TRP84       0.1605
     22  C        -20.9890   53.4660   61.3650 C.2    84  TRP84       0.2264
     23  O        -20.5880   54.6120   61.1330 O.2    84  TRP84      -0.2867
     24  CB       -19.0170   51.9910   61.6330 C.3    84  TRP84       0.0550
     25  CG       -18.2550   50.7870   61.1610 C.ar   84  TRP84       0.0003
     26  CD1      -18.4260   49.4950   61.5830 C.ar   84  TRP84       0.0946
     27  CD2      -17.2280   50.7500   60.1600 C.ar   84  TRP84       0.0152
     28  NE1      -17.5610   48.6580   60.9200 N.ar   84  TRP84      -0.2442
     29  CE2      -16.8280   49.3950   60.0270 C.ar   84  TRP84       0.0810
     30  CE3      -16.6200   51.7230   59.3480 C.ar   84  TRP84       0.0012
     31  CZ2      -15.8280   48.9870   59.1240 C.ar   84  TRP84       0.0191
     32  CZ3      -15.6290   51.3160   58.4470 C.ar   84  TRP84       0.0001
     33  CH2      -15.2420   49.9560   58.3480 C.ar   84  TRP84       0.0015
     34  N         -6.8380   37.2990   53.2480 N.3   166  SER166     -0.1217
     35  CA        -6.6940   38.0340   51.9680 C.3   166  SER166      0.1889
     36  C         -5.4700   38.9420   51.8020 C.2   166  SER166      0.2288
     37  O         -5.2750   39.5290   50.7250 O.2   166  SER166     -0.2866
     38  CB        -7.9590   38.8250   51.6570 C.3   166  SER166      0.2089
     39  OG        -9.0250   37.9450   51.3810 O.3   166  SER166     -0.2183
     40  N        -15.7030   37.5000   50.8290 N.3   202  THR202     -0.1218
     41  CA       -15.8390   38.8810   50.3820 C.3   202  THR202      0.1862
     42  C        -15.6820   39.0660   48.8770 C.2   202  THR202      0.2287
     43  O        -14.9810   38.2910   48.2070 O.2   202  THR202     -0.2866
     44  CB       -14.8190   39.7830   51.1210 C.3   202  THR202      0.1770
     45  OG1      -13.5010   39.2620   50.9400 O.3   202  THR202     -0.2211
     46  CG2      -15.1210   39.7930   52.6250 C.3   202  THR202      0.0375
     47  N         -9.4600   46.3130   46.1840 N.3   225  ALA225     -0.1231
     48  CA       -10.3420   47.2990   46.8330 C.3   225  ALA225      0.1694
     49  C        -11.5130   46.6370   47.5470 C.2   225  ALA225      0.2592
     50  O        -11.9200   47.0810   48.6190 O.2   225  ALA225     -0.2718
     51  CB       -10.8470   48.3430   45.8250 C.3   225  ALA225      0.0304
     52  N        -12.0500   45.5740   46.9610 N.am  226  LEU226     -0.1966
     53  CA       -13.1600   44.8510   47.5850 C.3   226  LEU226      0.1728
     54  C        -12.7400   43.5320   48.2220 C.2   226  LEU226      0.2616
     55  O        -13.5960   42.7590   48.6830 O.2   226  LEU226     -0.2715
     56  CB       -14.2670   44.5810   46.5680 C.3   226  LEU226      0.0311
     57  CG       -14.7830   45.7400   45.7220 C.3   226  LEU226      0.0022
     58  CD1      -15.8730   45.2090   44.7890 C.3   226  LEU226      0.0001
     59  CD2      -15.3170   46.8870   46.5860 C.3   226  LEU226      0.0001
     60  N        -11.4300   43.2620   48.2670 N.am  227  SER227     -0.1950
     61  CA       -10.9370   41.9650   48.7110 C.3   227  SER227      0.1924
     62  C        -11.7260   40.8480   48.0160 C.2   227  SER227      0.2314
     63  O        -12.1580   39.8600   48.6310 O.2   227  SER227     -0.2863
     64  CB       -11.0120   41.8510   50.2350 C.3   227  SER227      0.2116
     65  OG       -10.1360   40.8480   50.6800 O.3   227  SER227     -0.2180
     66  N         -9.1470   52.1680   48.2090 N.3   352  TYR352     -0.1241
     67  CA        -9.8140   51.8880   49.4850 C.3   352  TYR352      0.1605
     68  C         -8.7850   51.8430   50.6260 C.2   352  TYR352      0.2264
     69  O         -8.0900   50.8400   50.7990 O.2   352  TYR352     -0.2867
     70  CB       -10.6300   50.5850   49.3800 C.3   352  TYR352      0.0534
     71  CG       -11.1610   50.0410   50.6960 C.ar  352  TYR352     -0.0201
     72  CD1      -11.9830   50.8160   51.5300 C.ar  352  TYR352     -0.0009
     73  CD2      -10.8650   48.7460   51.0900 C.ar  352  TYR352     -0.0009
     74  CE1      -12.4640   50.2880   52.7400 C.ar  352  TYR352      0.0417
     75  CE2      -11.3420   48.2120   52.2970 C.ar  352  TYR352      0.0417
     76  CZ       -12.1310   48.9960   53.1110 C.ar  352  TYR352      0.1957
     77  OH       -12.5940   48.4600   54.3030 O.3   352  TYR352     -0.2866
     78  N         -3.6330   49.9200   51.7070 N.3   367  PHE367     -0.1227
     79  CA        -4.3440   49.2070   52.7740 C.3   367  PHE367      0.1736
     80  C         -4.7240   47.8090   52.3120 C.2   367  PHE367      0.2595
     81  O         -5.0920   47.6070   51.1420 O.2   367  PHE367     -0.2718
     82  CB        -5.6260   49.9520   53.1450 C.3   367  PHE367      0.0547
     83  CG        -6.5470   49.1740   54.0500 C.ar  367  PHE367     -0.0202
     84  CD1       -6.2390   48.9850   55.3970 C.ar  367  PHE367     -0.0042
     85  CD2       -7.7310   48.6370   53.5480 C.ar  367  PHE367     -0.0042
     86  CE1       -7.1000   48.2750   56.2420 C.ar  367  PHE367     -0.0003
     87  CE2       -8.6020   47.9290   54.3610 C.ar  367  PHE367     -0.0003
     88  CZ        -8.2880   47.7390   55.7090 C.ar  367  PHE367     -0.0000
     89  N         -4.6690   46.8460   53.2290 N.am  368  LYS368     -0.1966
     90  CA        -5.2480   45.5350   52.9570 C.3   368  LYS368      0.1728
     91  C         -5.6480   44.8620   54.2590 C.2   368  LYS368      0.2616
     92  O         -4.9120   44.9090   55.2420 O.2   368  LYS368     -0.2715
     93  CB        -4.2750   44.6490   52.1750 C.3   368  LYS368      0.0311
     94  CG        -4.9150   43.3680   51.6400 C.3   368  LYS368      0.0038
     95  CD        -5.7920   43.6490   50.4100 C.3   368  LYS368      0.0206
     96  CE        -6.7160   42.4710   50.0850 C.3   368  LYS368      0.1093
     97  NZ        -7.7570   42.2270   51.1470 N.3   368  LYS368     -0.1314
     98  N         -6.8230   44.2490   54.2280 N.am  369  ALA369     -0.1963
     99  CA        -7.3160   43.4590   55.3370 C.3   369  ALA369      0.1728
    100  C         -7.3200   41.9900   54.9780 C.2   369  ALA369      0.2617
    101  O         -7.3230   41.6120   53.7900 O.2   369  ALA369     -0.2715
    102  CB        -8.7190   43.8950   55.6890 C.3   369  ALA369      0.0334
    103  N         -7.3380   41.1560   56.0070 N.am  370  GLY370     -0.1940
    104  CA        -7.5260   39.7300   55.8240 C.3   370  GLY370      0.2014
    105  C         -8.3320   39.1680   56.9670 C.2   370  GLY370      0.2639
    106  O         -8.1490   39.5750   58.1050 O.2   370  GLY370     -0.2714
    107  N         -9.2260   38.2390   56.6580 N.am  371  SER371     -0.1949
    108  CA        -9.9830   37.5630   57.7050 C.3   371  SER371      0.1924
    109  C        -10.3880   36.1730   57.2610 C.2   371  SER371      0.2314
    110  O        -10.5880   35.9150   56.0660 O.2   371  SER371     -0.2863
    111  CB       -11.2040   38.3780   58.1020 C.3   371  SER371      0.2116
    112  OG       -12.0710   38.5450   57.0140 O.3   371  SER371     -0.2180
    113  N         -7.5950   37.6160   61.8500 N.3   376  MET376     -0.1245
    114  CA        -7.8550   39.0080   61.4620 C.3   376  MET376      0.1570
    115  C         -6.5340   39.7080   61.2810 C.2   376  MET376      0.2261
    116  O         -5.6210   39.5530   62.1000 O.2   376  MET376     -0.2867
    117  CB        -8.6610   39.7220   62.5570 C.3   376  MET376      0.0387
    118  CG        -9.2060   41.0950   62.1720 C.3   376  MET376      0.0595
    119  SD       -10.3850   41.0800   60.8000 S.3   376  MET376     -0.1393
    120  CE       -11.6690   39.9820   61.3910 C.3   376  MET376      0.0692
    121  N         -4.8630   43.6230   59.5900 N.3   378  PHE378     -0.1241
    122  CA        -4.9160   44.8550   58.8210 C.3   378  PHE378      0.1605
    123  C         -3.5170   45.3680   58.6260 C.2   378  PHE378      0.2264
    124  O         -2.6860   45.2780   59.5230 O.2   378  PHE378     -0.2867
    125  CB        -5.7370   45.9110   59.5660 C.3   378  PHE378      0.0534
    126  CG        -7.1770   45.5570   59.6930 C.ar  378  PHE378     -0.0203
    127  CD1       -7.6640   44.9440   60.8520 C.ar  378  PHE378     -0.0042
    128  CD2       -8.0570   45.8180   58.6320 C.ar  378  PHE378     -0.0042
    129  CE1       -9.0080   44.5880   60.9430 C.ar  378  PHE378     -0.0003
    130  CE2       -9.4100   45.4790   58.7270 C.ar  378  PHE378     -0.0003
    131  CZ        -9.8870   44.8680   59.8790 C.ar  378  PHE378     -0.0000
    132  N        -15.7450   40.6940   64.6140 N.3   406  ASP406     -0.1225
    133  CA       -15.9390   41.0920   63.2160 C.3   406  ASP406      0.1805
    134  C        -14.8040   41.9220   62.6320 C.2   406  ASP406      0.2598
    135  O        -14.8540   42.2950   61.4420 O.2   406  ASP406     -0.2718
    136  CB       -17.3000   41.7980   63.0150 C.3   406  ASP406      0.1424
    137  CG       -17.3910   43.1600   63.6920 C.2   406  ASP406      0.3668
    138  OD1      -16.3870   43.7000   64.2000 O.co2 406  ASP406     -0.2456
    139  OD2      -18.5150   43.7160   63.6740 O.co2 406  ASP406     -0.2456
    140  N        -13.8050   42.2390   63.4530 N.am  407  GLY407     -0.1957
    141  CA       -12.6170   42.9340   62.9740 C.3   407  GLY407      0.1869
    142  C        -12.6190   44.4320   63.1710 C.2   407  GLY407      0.2309
    143  O        -11.6280   45.1010   62.8890 O.2   407  GLY407     -0.2863
    144  N         -9.2300   46.9290   63.4750 N.3   411  ARG411     -0.1245
    145  CA        -9.2110   48.0770   62.5580 C.3   411  ARG411      0.1563
    146  C         -9.1600   49.3730   63.3570 C.2   411  ARG411      0.2260
    147  O         -8.4060   50.3090   63.0080 O.2   411  ARG411     -0.2867
    148  CB       -10.4320   48.0810   61.6290 C.3   411  ARG411      0.0307
    149  CG       -10.3310   49.1580   60.5560 C.3   411  ARG411      0.0489
    150  CD       -11.6650   49.4700   59.8900 C.3   411  ARG411      0.2205
    151  NE       -12.2290   48.2710   59.2750 N.pl3 411  ARG411     -0.0865
    152  CZ       -12.2180   48.0100   57.9720 C.cat 411  ARG411      0.5346
    153  NH1      -11.7040   48.8780   57.1070 N.pl3 411  ARG411      0.1354
    154  NH2      -12.7590   46.8800   57.5370 N.pl3 411  ARG411      0.1354
@<TRIPOS>BOND
     1    58    57    1
     2    57    56    1
     3    57    59    1
     4    51    48    1
     5    47    48    1
     6    56    53    1
     7    48    49    1
     8    52    49   am
     9    52    53    1
    10    49    50    2
    11    53    54    1
    12    62    63    2
    13    62    61    1
    14    43    42    2
    15    66    67    1
    16    54    60   am
    17    54    55    2
    18    60    61    1
    19    61    64    1
    20    42    41    1
    21    70    67    1
    22    70    71    1
    23    67    68    1
    24     5     6    1
    25     5     2    1
    26     7     6   ar
    27     7     9   ar
    28     6     8   ar
    29    96    95    1
    30    96    97    1
    31     9    10   ar
    32    64    65    1
    33    41    40    1
    34    41    44    1
    35    95    94    1
    36     8    10   ar
    37     1     2    1
    38    68    69    2
    39     2     3    1
    40    71    73   ar
    41    71    72   ar
    42    37    36    2
    43    45    44    1
    44    73    75   ar
    45    44    46    1
    46    81    80    2
    47    39    38    1
    48    72    74   ar
    49    94    93    1
    50    38    35    1
    51    78    79    1
    52    36    35    1
    53    35    34    1
    54     3     4    2
    55     3    11   am
    56    93    90    1
    57    75    76   ar
    58    80    79    1
    59    80    89   am
    60    74    76   ar
    61    79    82    1
    62    90    89    1
    63    90    91    1
    64    11    12    1
    65    76    77    1
    66    82    83    1
    67    85    83   ar
    68    85    87   ar
    69   101   100    2
    70    83    84   ar
    71    98    91   am
    72    98    99    1
    73    91    92    2
    74    16    17    1
    75    16    15    1
    76    87    88   ar
    77    12    15    1
    78    12    13    1
    79    17    18    1
    80    14    13    2
    81   100    99    1
    82   100   103   am
    83    99   102    1
    84    84    86   ar
    85    88    86   ar
    86    18    19    1
    87   104   103    1
    88   104   105    1
    89   110   109    2
    90   107   105   am
    91   107   108    1
    92   105   106    2
    93   112   111    1
    94   153   152    1
    95   109   108    1
    96   154   152    1
    97   108   111    1
    98   152   151    2
    99    33    32   ar
   100    33    31   ar
   101    32    30   ar
   102   123   122    1
   103   123   124    2
   104   128   130   ar
   105   128   126   ar
   106   130   131   ar
   107   122   125    1
   108   122   121    1
   109    31    29   ar
   110   151   150    1
   111    30    27   ar
   112    20    21    1
   113   125   126    1
   114   126   127   ar
   115   131   129   ar
   116   150   149    1
   117    29    27   ar
   118    29    28   ar
   119    27    25   ar
   120   149   148    1
   121   119   120    1
   122   119   118    1
   123    21    22    1
   124    21    24    1
   125   127   129   ar
   126    28    26   ar
   127    23    22    2
   128    25    26   ar
   129    25    24    1
   130   115   114    1
   131   115   116    2
   132   135   134    2
   133   114   113    1
   134   114   117    1
   135   148   145    1
   136   118   117    1
   137   145   146    1
   138   145   144    1
   139   134   133    1
   140   134   140   am
   141   143   142    2
   142   141   142    1
   143   141   140    1
   144   147   146    2
   145   136   133    1
   146   136   137    1
   147   133   132    1
   148   139   137   ar
   149   137   138   ar
