@<TRIPOS>MOLECULE
tmp/2xf4A00.pdb
 127 126 0 0 0
SMALL
GASTEIGER

@<TRIPOS>ATOM
      1  N        -21.5900   36.7550    5.3170 N.3    11  PHE11      -0.1241
      2  CA       -20.5520   36.1310    4.4910 C.3    11  PHE11       0.1605
      3  C        -19.2130   36.8740    4.6200 C.2    11  PHE11       0.2264
      4  O        -18.2060   36.4510    4.0500 O.2    11  PHE11      -0.2867
      5  CB       -20.9790   36.0870    3.0160 C.3    11  PHE11       0.0534
      6  CG       -22.2930   35.3880    2.7760 C.ar   11  PHE11      -0.0203
      7  CD1      -22.3400   34.0090    2.5810 C.ar   11  PHE11      -0.0042
      8  CD2      -23.4880   36.1120    2.7360 C.ar   11  PHE11      -0.0042
      9  CE1      -23.5630   33.3550    2.3580 C.ar   11  PHE11      -0.0003
     10  CE2      -24.7160   35.4710    2.5160 C.ar   11  PHE11      -0.0003
     11  CZ       -24.7520   34.0890    2.3240 C.ar   11  PHE11      -0.0000
     12  N        -23.6780   38.4180   -7.3450 N.3    58  HIS58      -0.1226
     13  CA       -23.9660   37.6350   -6.1450 C.3    58  HIS58       0.1752
     14  C        -24.3500   38.4350   -4.9040 C.2    58  HIS58       0.2596
     15  O        -23.7980   39.5120   -4.6340 O.2    58  HIS58      -0.2718
     16  CB       -22.8440   36.6430   -5.8340 C.3    58  HIS58       0.0759
     17  CG       -22.9110   35.3900   -6.6490 C.ar   58  HIS58       0.0818
     18  ND1      -21.9060   34.4490   -6.6530 N.ar   58  HIS58      -0.2268
     19  CD2      -23.8610   34.9280   -7.4970 C.ar   58  HIS58       0.1154
     20  CE1      -22.2360   33.4550   -7.4580 C.ar   58  HIS58       0.1986
     21  NE2      -23.4160   33.7240   -7.9880 N.ar   58  HIS58      -0.2212
     22  N        -25.2930   37.8660   -4.1570 N.am   59  LEU59      -0.1966
     23  CA       -25.9480   38.5060   -3.0100 C.3    59  LEU59       0.1728
     24  C        -25.0270   39.2920   -2.0750 C.2    59  LEU59       0.2616
     25  O        -25.3270   40.4420   -1.7500 O.2    59  LEU59      -0.2715
     26  CB       -26.7330   37.4590   -2.2110 C.3    59  LEU59       0.0311
     27  CG       -27.4270   37.9010   -0.9220 C.3    59  LEU59       0.0022
     28  CD1      -28.5090   38.9650   -1.1860 C.3    59  LEU59       0.0001
     29  CD2      -28.0200   36.6910   -0.2130 C.3    59  LEU59       0.0001
     30  N        -23.9220   38.6800   -1.6470 N.am   60  ASP60      -0.1971
     31  CA       -23.0280   39.3140   -0.6590 C.3    60  ASP60       0.1709
     32  C        -22.1920   40.4660   -1.2250 C.2    60  ASP60       0.2293
     33  O        -21.4480   41.1270   -0.4850 O.2    60  ASP60      -0.2864
     34  CB       -22.1370   38.2800    0.0390 C.3    60  ASP60       0.1436
     35  CG       -21.3250   37.4450   -0.9350 C.2    60  ASP60       0.3671
     36  OD1      -20.0820   37.4090   -0.7790 O.co2  60  ASP60      -0.2456
     37  OD2      -21.9150   36.8250   -1.8500 O.co2  60  ASP60      -0.2456
     38  N        -28.3780   36.4290  -12.4560 N.3    86  TRP86      -0.1241
     39  CA       -28.0830   36.4320  -11.0060 C.3    86  TRP86       0.1605
     40  C        -28.7600   37.5920  -10.2790 C.2    86  TRP86       0.2264
     41  O        -29.3210   37.4080   -9.1990 O.2    86  TRP86      -0.2867
     42  CB       -26.5710   36.4720  -10.7210 C.3    86  TRP86       0.0550
     43  CG       -25.8670   35.1490  -10.8820 C.ar   86  TRP86       0.0003
     44  CD1      -24.7980   34.8860  -11.6900 C.ar   86  TRP86       0.0946
     45  CD2      -26.1800   33.9100  -10.2110 C.ar   86  TRP86       0.0152
     46  NE1      -24.4200   33.5700  -11.5630 N.ar   86  TRP86      -0.2442
     47  CE2      -25.2510   32.9450  -10.6690 C.ar   86  TRP86       0.0810
     48  CE3      -27.1460   33.5290   -9.2600 C.ar   86  TRP86       0.0012
     49  CZ2      -25.2630   31.6120  -10.2200 C.ar   86  TRP86       0.0191
     50  CZ3      -27.1650   32.1970   -8.8130 C.ar   86  TRP86       0.0001
     51  CH2      -26.2240   31.2570   -9.2950 C.ar   86  TRP86       0.0015
     52  N        -32.2190   37.0510   -9.9440 N.3    89  GLY89      -0.1225
     53  CA       -32.4250   36.0030   -8.9560 C.3    89  GLY89       0.1811
     54  C        -32.0510   36.3440   -7.5300 C.2    89  GLY89       0.2280
     55  O        -31.9490   35.4500   -6.6900 O.2    89  GLY89      -0.2866
     56  N        -34.2770   34.9040   -4.8690 N.3    92  ALA92      -0.1231
     57  CA       -34.0030   33.4850   -4.7140 C.3    92  ALA92       0.1694
     58  C        -32.7030   33.2690   -3.9400 C.2    92  ALA92       0.2591
     59  O        -32.6360   32.4100   -3.0640 O.2    92  ALA92      -0.2718
     60  CB       -33.9340   32.8170   -6.0780 C.3    92  ALA92       0.0304
     61  N        -31.6780   34.0540   -4.2710 N.am   93  GLN93      -0.1979
     62  CA       -30.4100   34.0260   -3.5450 C.3    93  GLN93       0.1601
     63  C        -30.6140   34.1960   -2.0290 C.2    93  GLN93       0.2287
     64  O        -30.1200   33.3840   -1.2400 O.2    93  GLN93      -0.2864
     65  CB       -29.4470   35.1010   -4.0740 C.3    93  GLN93       0.0394
     66  CG       -28.9130   34.8570   -5.4890 C.3    93  GLN93       0.0908
     67  CD       -27.6990   35.7230   -5.8150 C.2    93  GLN93       0.2608
     68  OE1      -26.6820   35.6740   -5.1240 O.2    93  GLN93      -0.2717
     69  NE2      -27.8030   36.5150   -6.8760 N.am   93  GLN93      -0.0878
     70  N        -32.7860   31.4350   -0.2950 N.3    96  MET96      -0.1230
     71  CA       -31.9960   30.2090   -0.1160 C.3    96  MET96       0.1702
     72  C        -31.2030   30.1770    1.1960 C.2    96  MET96       0.2592
     73  O        -31.0620   29.1170    1.8050 O.2    96  MET96      -0.2718
     74  CB       -31.0550   29.9830   -1.2950 C.3    96  MET96       0.0401
     75  CG       -30.4790   28.5740   -1.3420 C.3    96  MET96       0.0596
     76  SD       -29.1330   28.3720   -2.5240 S.3    96  MET96      -0.1393
     77  CE       -27.7620   29.0370   -1.5960 C.3    96  MET96       0.0692
     78  N        -30.6820   31.3280    1.6210 N.am   97  PHE97      -0.1976
     79  CA       -29.9580   31.4160    2.8950 C.3    97  PHE97       0.1639
     80  C        -30.8560   31.7930    4.0810 C.2    97  PHE97       0.2290
     81  O        -30.3590   32.0700    5.1670 O.2    97  PHE97      -0.2864
     82  CB       -28.7770   32.3950    2.7970 C.3    97  PHE97       0.0560
     83  CG       -27.6940   31.9580    1.8430 C.ar   97  PHE97      -0.0200
     84  CD1      -26.8060   30.9380    2.1890 C.ar   97  PHE97      -0.0042
     85  CD2      -27.5550   32.5730    0.6010 C.ar   97  PHE97      -0.0042
     86  CE1      -25.8030   30.5280    1.3000 C.ar   97  PHE97      -0.0003
     87  CE2      -26.5500   32.1710   -0.2940 C.ar   97  PHE97      -0.0003
     88  CZ       -25.6730   31.1540    0.0600 C.ar   97  PHE97      -0.0000
     89  N        -16.3310   32.1690  -12.4050 N.3   132  HIS132     -0.1241
     90  CA       -17.0760   32.1070  -11.1440 C.3   132  HIS132      0.1621
     91  C        -18.5300   32.4510  -11.4880 C.2   132  HIS132      0.2264
     92  O        -19.4360   31.6550  -11.2510 O.2   132  HIS132     -0.2867
     93  CB       -16.4500   33.0680  -10.1160 C.3   132  HIS132      0.0745
     94  CG       -17.1470   33.1130   -8.7890 C.ar  132  HIS132      0.0817
     95  ND1      -17.2410   32.0220   -7.9540 N.ar  132  HIS132     -0.2268
     96  CD2      -17.7420   34.1400   -8.1340 C.ar  132  HIS132      0.1154
     97  CE1      -17.8790   32.3670   -6.8490 C.ar  132  HIS132      0.1986
     98  NE2      -18.1970   33.6470   -6.9340 N.ar  132  HIS132     -0.2212
     99  N        -15.2590   29.6210   -6.5220 N.3   160  ARG160     -0.1245
    100  CA       -15.9870   28.3930   -6.8700 C.3   160  ARG160      0.1563
    101  C        -16.4680   28.4640   -8.3180 C.2   160  ARG160      0.2260
    102  O        -16.7590   29.5430   -8.8300 O.2   160  ARG160     -0.2867
    103  CB       -17.1960   28.2030   -5.9610 C.3   160  ARG160      0.0307
    104  CG       -16.8850   27.7750   -4.5400 C.3   160  ARG160      0.0489
    105  CD       -18.0190   28.2180   -3.6190 C.3   160  ARG160      0.2205
    106  NE       -18.9460   27.1460   -3.2430 N.pl3 160  ARG160     -0.0865
    107  CZ       -19.9080   26.6410   -4.0140 C.cat 160  ARG160      0.5346
    108  NH1      -20.0840   27.0690   -5.2530 N.pl3 160  ARG160      0.1354
    109  NH2      -20.6920   25.6830   -3.5470 N.pl3 160  ARG160      0.1354
    110  N        -21.2190   26.6200   -9.4470 N.3   163  PHE163     -0.1228
    111  CA       -22.4940   27.3210   -9.5690 C.3   163  PHE163      0.1721
    112  C        -23.0690   27.1510  -10.9820 C.2   163  PHE163      0.2437
    113  O        -22.3380   26.7930  -11.9030 O.2   163  PHE163     -0.2733
    114  CB       -22.2960   28.8210   -9.2970 C.3   163  PHE163      0.0547
    115  CG       -22.1230   29.1710   -7.8440 C.ar  163  PHE163     -0.0202
    116  CD1      -23.1350   28.9230   -6.9230 C.ar  163  PHE163     -0.0042
    117  CD2      -20.9560   29.7850   -7.4010 C.ar  163  PHE163     -0.0042
    118  CE1      -22.9750   29.2600   -5.5660 C.ar  163  PHE163     -0.0003
    119  CE2      -20.7910   30.1330   -6.0510 C.ar  163  PHE163     -0.0003
    120  CZ       -21.8010   29.8660   -5.1360 C.ar  163  PHE163     -0.0000
    121  N        -24.3810   27.4080  -11.1640 N.am  164  PRO164     -0.2729
    122  CA       -24.8880   27.4520  -12.5350 C.3   164  PRO164      0.1401
    123  C        -24.1000   28.4580  -13.3980 C.2   164  PRO164      0.2269
    124  O        -23.8410   29.5860  -12.9670 O.2   164  PRO164     -0.2865
    125  CB       -26.3410   27.8970  -12.3530 C.3   164  PRO164      0.0296
    126  CG       -26.7090   27.3830  -11.0000 C.3   164  PRO164      0.0237
    127  CD       -25.4670   27.5240  -10.1700 C.3   164  PRO164      0.0939
@<TRIPOS>BOND
     1   123   124    2
     2   123   122    1
     3   122   125    1
     4   122   121    1
     5    38    39    1
     6    89    90    1
     7   125   126    1
     8   113   112    2
     9    44    46   ar
    10    44    43   ar
    11    46    47   ar
    12    91    92    2
    13    91    90    1
    14   121   112   am
    15   121   127    1
    16    90    93    1
    17    39    42    1
    18    39    40    1
    19   126   127    1
    20   112   111    1
    21    43    42    1
    22    43    45   ar
    23    47    49   ar
    24    47    45   ar
    25    40    41    2
    26    49    51   ar
    27    45    48   ar
    28    93    94    1
    29    52    53    1
    30   111   110    1
    31   111   114    1
    32   114   115    1
    33    51    50   ar
    34    48    50   ar
    35    53    54    1
    36   102   101    2
    37    94    96   ar
    38    94    95   ar
    39   101   100    1
    40    96    98   ar
    41    21    19   ar
    42    21    20   ar
    43    95    97   ar
    44   115   117   ar
    45   115   116   ar
    46    54    55    2
    47    19    17   ar
    48    20    18   ar
    49   117   119   ar
    50    12    13    1
    51    98    97   ar
    52   116   118   ar
    53    69    67   am
    54   100    99    1
    55   100   103    1
    56    18    17   ar
    57    17    16    1
    58    13    16    1
    59    13    14    1
    60    60    57    1
    61   119   120   ar
    62   103   104    1
    63    67    66    1
    64    67    68    2
    65   118   120   ar
    66    66    65    1
    67   108   107    1
    68    14    15    2
    69    14    22   am
    70    56    57    1
    71    57    58    1
    72   104   105    1
    73    61    58   am
    74    61    62    1
    75    22    23    1
    76    65    62    1
    77   107   109    1
    78   107   106    2
    79    58    59    2
    80   105   106    1
    81    62    63    1
    82    23    26    1
    83    23    24    1
    84    76    77    1
    85    76    75    1
    86    26    27    1
    87    24    25    2
    88    24    30   am
    89    63    64    2
    90    37    35   ar
    91    30    31    1
    92    75    74    1
    93    74    71    1
    94    32    31    1
    95    32    33    2
    96    28    27    1
    97    35    36   ar
    98    35    34    1
    99    27    29    1
   100    31    34    1
   101    70    71    1
   102    87    88   ar
   103    87    85   ar
   104    71    72    1
   105    88    86   ar
   106    85    83   ar
   107    72    78   am
   108    72    73    2
   109    86    84   ar
   110    78    79    1
   111    83    84   ar
   112    83    82    1
   113    11     9   ar
   114    11    10   ar
   115     9     7   ar
   116    10     8   ar
   117     7     6   ar
   118     8     6   ar
   119     6     5    1
   120    82    79    1
   121    79    80    1
   122     5     2    1
   123     4     3    2
   124    80    81    2
   125     2     3    1
   126     2     1    1
