@<TRIPOS>MOLECULE
tmp/2xf8O00.pdb
 221 216 0 0 0
SMALL
GASTEIGER

@<TRIPOS>ATOM
      1  N          4.9050    5.6210 -127.9100 N.3     7  ASN7       -0.1225
      2  CA         4.9420    6.3010 -126.6280 C.3     7  ASN7        0.1785
      3  C          4.1850    5.4520 -125.6460 C.2     7  ASN7        0.2598
      4  O          2.9700    5.2850 -125.7710 O.2     7  ASN7       -0.2718
      5  CB         4.3140    7.6990 -126.7160 C.3     7  ASN7        0.1169
      6  CG         4.6360    8.5620 -125.5090 C.2     7  ASN7        0.2627
      7  OD1        5.7740    8.5560 -125.0190 O.2     7  ASN7       -0.2716
      8  ND2        3.6440    9.3130 -125.0220 N.am    7  ASN7       -0.0877
      9  N          4.9020    4.9250 -124.6630 N.am    8  GLY8       -0.1942
     10  CA         4.2970    4.0520 -123.6490 C.3     8  GLY8        0.2014
     11  C          4.4360    2.6000 -124.0700 C.2     8  GLY8        0.2639
     12  O          3.8540    2.1910 -125.0840 O.2     8  GLY8       -0.2714
     13  N          5.2090    1.8320 -123.3010 N.am    9  PHE9       -0.1959
     14  CA         5.4940    0.4400 -123.6160 C.3     9  PHE9        0.1771
     15  C          4.8360   -0.4590 -122.5950 C.2     9  PHE9        0.2620
     16  O          5.4640   -1.3530 -122.0230 O.2     9  PHE9       -0.2715
     17  CB         6.9950    0.2120 -123.6160 C.3     9  PHE9        0.0574
     18  CG         7.4340   -0.9260 -124.4690 C.ar    9  PHE9       -0.0200
     19  CD1        7.0330   -1.0140 -125.7870 C.ar    9  PHE9       -0.0042
     20  CD2        8.2780   -1.8990 -123.9700 C.ar    9  PHE9       -0.0042
     21  CE1        7.4530   -2.0750 -126.5950 C.ar    9  PHE9       -0.0003
     22  CE2        8.7060   -2.9510 -124.7780 C.ar    9  PHE9       -0.0003
     23  CZ         8.2900   -3.0360 -126.0870 C.ar    9  PHE9       -0.0000
     24  N          3.5470   -0.2190 -122.3800 N.am   10  GLY10      -0.1940
     25  CA         2.7400   -1.0540 -121.4870 C.3    10  GLY10       0.2014
     26  C          2.3080   -2.3410 -122.1710 C.2    10  GLY10       0.2639
     27  O          3.0160   -2.8860 -123.0330 O.2    10  GLY10      -0.2714
     28  N          1.1360   -2.8260 -121.7740 N.am   11  ARG11      -0.1963
     29  CA         0.5950   -4.0440 -122.3500 C.3    11  ARG11       0.1729
     30  C          0.3610   -3.8430 -123.8570 C.2    11  ARG11       0.2616
     31  O          0.8620   -4.6080 -124.6830 O.2    11  ARG11      -0.2715
     32  CB        -0.6850   -4.4870 -121.6130 C.3    11  ARG11       0.0348
     33  CG        -0.4060   -5.1250 -120.2020 C.3    11  ARG11       0.0492
     34  CD        -1.2900   -6.3580 -119.8240 C.3    11  ARG11       0.2205
     35  NE        -0.9540   -7.4860 -120.5990 N.pl3  11  ARG11      -0.0865
     36  CZ        -0.3990   -8.6780 -120.6860 C.cat  11  ARG11       0.5346
     37  NH1        0.2890   -9.4570 -119.8730 N.pl3  11  ARG11       0.1354
     38  NH2       -0.5800   -9.0380 -121.9610 N.pl3  11  ARG11       0.1354
     39  N         -0.3510   -2.7810 -124.1980 N.am   12  ILE12      -0.1963
     40  CA        -0.7530   -2.5500 -125.5700 C.3    12  ILE12       0.1727
     41  C          0.4340   -2.2100 -126.4370 C.2    12  ILE12       0.2617
     42  O          0.5660   -2.7320 -127.5380 O.2    12  ILE12      -0.2715
     43  CB        -1.8140   -1.4510 -125.6600 C.3    12  ILE12       0.0290
     44  CG1       -3.1530   -2.0140 -125.1350 C.3    12  ILE12       0.0022
     45  CG2       -1.9510   -0.9690 -127.0980 C.3    12  ILE12       0.0023
     46  CD1       -4.2200   -0.9940 -124.8900 C.3    12  ILE12       0.0001
     47  N          1.3020   -1.3360 -125.9510 N.am   13  GLY13      -0.1940
     48  CA         2.5350   -1.0080 -126.6860 C.3    13  GLY13       0.2014
     49  C          3.3750   -2.2340 -127.0260 C.2    13  GLY13       0.2638
     50  O          3.8430   -2.4200 -128.1570 O.2    13  GLY13      -0.2714
     51  N          3.5590   -3.0830 -126.0320 N.am   14  ARG14      -0.1977
     52  CA         4.3160   -4.3120 -126.2380 C.3    14  ARG14       0.1597
     53  C          3.6950   -5.1880 -127.3270 C.2    14  ARG14       0.2287
     54  O          4.3780   -5.7290 -128.1900 O.2    14  ARG14      -0.2864
     55  CB         4.4270   -5.0870 -124.9210 C.3    14  ARG14       0.0334
     56  CG         5.5750   -4.6120 -124.0730 C.3    14  ARG14       0.0492
     57  CD         5.8100   -5.5340 -122.8860 C.3    14  ARG14       0.2205
     58  NE         5.2790   -4.9170 -121.7020 N.pl3  14  ARG14      -0.0865
     59  CZ         4.2990   -5.2320 -120.8680 C.cat  14  ARG14       0.5346
     60  NH1        3.5310   -6.3060 -120.9630 N.pl3  14  ARG14       0.1354
     61  NH2        4.1290   -4.3790 -119.8640 N.pl3  14  ARG14       0.1354
     62  N          9.4670    5.2940 -126.4000 N.3    35  ASN35      -0.1225
     63  CA         9.6460    6.0510 -125.1790 C.3    35  ASN35       0.1785
     64  C          9.2040    5.0820 -124.1050 C.2    35  ASN35       0.2597
     65  O          8.1290    4.4780 -124.2420 O.2    35  ASN35      -0.2718
     66  CB         8.7770    7.3130 -125.1600 C.3    35  ASN35       0.1169
     67  CG         9.1170    8.2570 -123.9920 C.2    35  ASN35       0.2627
     68  OD1       10.2870    8.3340 -123.5740 O.2    35  ASN35      -0.2716
     69  ND2        8.0970    8.9910 -123.4700 N.am   35  ASN35      -0.0877
     70  N         10.0580    4.8960 -123.0880 N.am   36  GLU36      -0.1965
     71  CA         9.6690    4.2450 -121.8200 C.3    36  GLU36       0.1733
     72  C         10.5130    4.6250 -120.5830 C.2    36  GLU36       0.2616
     73  O         11.7320    4.4730 -120.5920 O.2    36  GLU36      -0.2715
     74  CB         9.6630    2.7090 -121.9450 C.3    36  GLU36       0.0429
     75  CG         8.9500    2.0140 -120.7630 C.3    36  GLU36       0.1163
     76  CD         7.6370    2.7370 -120.3440 C.2    36  GLU36       0.3649
     77  OE1        6.7250    2.8550 -121.1990 O.co2  36  GLU36      -0.2457
     78  OE2        7.5260    3.1990 -119.1740 O.co2  36  GLU36      -0.2457
     79  N          9.8350    5.0770 -119.5200 N.am   37  LEU37      -0.1963
     80  CA        10.4120    5.1440 -118.1610 C.3    37  LEU37       0.1728
     81  C         10.5170    3.7370 -117.5190 C.2    37  LEU37       0.2616
     82  O          9.7470    3.3700 -116.6190 O.2    37  LEU37      -0.2715
     83  CB         9.5940    6.1000 -117.2610 C.3    37  LEU37       0.0311
     84  CG         8.0830    5.9260 -116.9660 C.3    37  LEU37       0.0022
     85  CD1        7.7220    4.6680 -116.1320 C.3    37  LEU37       0.0001
     86  CD2        7.5510    7.1880 -116.2420 C.3    37  LEU37       0.0001
     87  N         11.4590    2.9400 -118.0010 N.am   38  ALA38      -0.1977
     88  CA        11.7370    1.6410 -117.3910 C.3    38  ALA38       0.1597
     89  C         13.0340    1.1290 -117.9720 C.2    38  ALA38       0.2287
     90  O         13.3240    1.3470 -119.1480 O.2    38  ALA38      -0.2864
     91  CB        10.6080    0.6520 -117.6320 C.3    38  ALA38       0.0319
     92  N         11.5660    9.9740 -121.6630 N.3    75  GLU75      -0.1231
     93  CA        11.0890   11.3640 -121.4420 C.3    75  GLU75       0.1699
     94  C          9.7880   11.4870 -120.6280 C.2    75  GLU75       0.2592
     95  O          8.6890   11.3010 -121.1680 O.2    75  GLU75      -0.2718
     96  CB        10.9200   12.1120 -122.7810 C.3    75  GLU75       0.0402
     97  CG        12.1250   12.0180 -123.7470 C.3    75  GLU75       0.1161
     98  CD        13.4630   12.3580 -123.0820 C.2    75  GLU75       0.3649
     99  OE1       13.8330   13.5680 -123.0430 O.co2  75  GLU75      -0.2457
    100  OE2       14.1260   11.3950 -122.6010 O.co2  75  GLU75      -0.2457
    101  N          9.9250   11.8390 -119.3410 N.am   76  ARG76      -0.1980
    102  CA         8.7630   12.1280 -118.4400 C.3    76  ARG76       0.1597
    103  C          8.0360   13.4170 -118.8660 C.2    76  ARG76       0.2287
    104  O          7.1310   13.9170 -118.1560 O.2    76  ARG76      -0.2864
    105  CB         9.2030   12.2510 -116.9600 C.3    76  ARG76       0.0334
    106  CG         9.8520   11.0010 -116.4010 C.3    76  ARG76       0.0492
    107  CD        10.5080   11.2510 -115.0280 C.3    76  ARG76       0.2205
    108  NE        10.8540   10.0050 -114.3360 N.pl3  76  ARG76      -0.0865
    109  CZ        11.9140    9.2670 -114.6540 C.cat  76  ARG76       0.5346
    110  NH1       12.7190    9.6420 -115.6440 N.pl3  76  ARG76       0.1354
    111  NH2       12.1820    8.1500 -113.9920 N.pl3  76  ARG76       0.1354
    112  N          6.7210   15.3760 -122.5960 N.3    78  LEU78      -0.1245
    113  CA         6.2900   15.0410 -123.9620 C.3    78  LEU78       0.1561
    114  C          7.0400   15.8580 -125.0270 C.2    78  LEU78       0.2260
    115  O          7.3210   15.3830 -126.1470 O.2    78  LEU78      -0.2867
    116  CB         4.7800   15.3050 -124.0810 C.3    78  LEU78       0.0270
    117  CG         3.9820   14.3920 -125.0000 C.3    78  LEU78       0.0019
    118  CD1        4.1530   12.9400 -124.5660 C.3    78  LEU78       0.0001
    119  CD2        2.4950   14.7910 -125.0030 C.3    78  LEU78       0.0001
    120  N          0.5290    4.8190 -126.6050 N.3    94  CYS94      -0.1221
    121  CA        -0.0700    3.7340 -125.8640 C.3    94  CYS94       0.1808
    122  C          0.2320    3.8740 -124.3790 C.2    94  CYS94       0.2602
    123  O          0.3710    2.8710 -123.6500 O.2    94  CYS94      -0.2717
    124  CB         0.4990    2.4120 -126.3500 C.3    94  CYS94       0.0970
    125  SG         0.4850    2.2520 -128.1340 S.3    94  CYS94      -0.0800
    126  N          0.3290    5.1200 -123.9300 N.am   95  THR95      -0.1939
    127  CA         0.5670    5.4190 -122.5160 C.3    95  THR95       0.2028
    128  C         -0.7050    5.2660 -121.7010 C.2    95  THR95       0.2643
    129  O         -0.6510    4.8990 -120.5410 O.2    95  THR95      -0.2714
    130  CB         1.0570    6.8690 -122.3270 C.3    95  THR95       0.1808
    131  OG1        0.1500    7.7850 -122.9820 O.3    95  THR95      -0.2208
    132  CG2        2.4850    7.0180 -122.8850 C.3    95  THR95       0.0379
    133  N         -1.8400    5.5900 -122.3120 N.am   96  GLY96      -0.1939
    134  CA        -3.1180    5.6010 -121.6090 C.3    96  GLY96       0.2014
    135  C         -3.3460    6.8320 -120.7460 C.2    96  GLY96       0.2639
    136  O         -4.4650    7.0540 -120.2290 O.2    96  GLY96      -0.2714
    137  N         -2.2920    7.6470 -120.6030 N.am   97  VAL97      -0.1963
    138  CA        -2.3960    8.9540 -119.9170 C.3    97  VAL97       0.1727
    139  C         -2.7190   10.1100 -120.8940 C.2    97  VAL97       0.2616
    140  O         -3.6310   10.8980 -120.6520 O.2    97  VAL97      -0.2715
    141  CB        -1.1270    9.2720 -119.0710 C.3    97  VAL97       0.0290
    142  CG1       -0.8710    8.1450 -118.0990 C.3    97  VAL97       0.0023
    143  CG2        0.1100    9.5220 -119.9550 C.3    97  VAL97       0.0023
    144  N         -1.9930   10.1730 -122.0100 N.am   98  TYR98      -0.1974
    145  CA        -2.2030   11.2280 -123.0130 C.3    98  TYR98       0.1639
    146  C         -3.3460   10.9000 -123.9590 C.2    98  TYR98       0.2290
    147  O         -3.5170    9.7360 -124.3620 O.2    98  TYR98      -0.2864
    148  CB        -0.9410   11.4270 -123.8250 C.3    98  TYR98       0.0560
    149  CG         0.2530   11.8190 -122.9800 C.ar   98  TYR98      -0.0198
    150  CD1        0.2170   12.9740 -122.1920 C.ar   98  TYR98      -0.0009
    151  CD2        1.4210   11.0580 -122.9890 C.ar   98  TYR98      -0.0009
    152  CE1        1.3080   13.3490 -121.4190 C.ar   98  TYR98       0.0417
    153  CE2        2.5240   11.4300 -122.2280 C.ar   98  TYR98       0.0417
    154  CZ         2.4690   12.5700 -121.4450 C.ar   98  TYR98       0.1957
    155  OH         3.5850   12.9220 -120.7020 O.3    98  TYR98      -0.2866
    156  N         -4.1060    4.9600 -128.5280 N.3   118  SER118     -0.1202
    157  CA        -4.5750    3.6000 -128.2590 C.3   118  SER118      0.2020
    158  C         -5.8440    3.5760 -127.3990 C.2   118  SER118      0.2618
    159  O         -6.1190    2.5970 -126.7190 O.2   118  SER118     -0.2717
    160  CB        -3.4690    2.7890 -127.5770 C.3   118  SER118      0.2103
    161  OG        -3.2930    3.1780 -126.2320 O.3   118  SER118     -0.2182
    162  N         -6.6180    4.6470 -127.4410 N.am  119  HIS119     -0.1975
    163  CA        -7.8740    4.7100 -126.7020 C.3   119  HIS119      0.1656
    164  C         -8.7250    5.8450 -127.2640 C.2   119  HIS119      0.2291
    165  O         -8.2920    6.5090 -128.2090 O.2   119  HIS119     -0.2864
    166  CB        -7.6080    4.8940 -125.2180 C.3   119  HIS119      0.0771
    167  CG        -6.8970    6.1630 -124.8890 C.ar  119  HIS119      0.0820
    168  ND1       -7.5560    7.2810 -124.4190 N.ar  119  HIS119     -0.2267
    169  CD2       -5.5840    6.4910 -124.9420 C.ar  119  HIS119      0.1154
    170  CE1       -6.6760    8.2460 -124.2030 C.ar  119  HIS119      0.1986
    171  NE2       -5.4720    7.7940 -124.5170 N.ar  119  HIS119     -0.2212
    172  N        -11.5880    1.8290 -128.5300 N.3   149  SER149     -0.1202
    173  CA       -11.0590    0.8650 -127.5450 C.3   149  SER149      0.2020
    174  C        -11.1850   -0.5410 -128.0950 C.2   149  SER149      0.2619
    175  O        -11.8350   -0.7510 -129.1080 O.2   149  SER149     -0.2717
    176  CB       -11.8030    0.9590 -126.2160 C.3   149  SER149      0.2103
    177  OG       -13.1350    0.4930 -126.3300 O.3   149  SER149     -0.2182
    178  N        -10.5750   -1.5050 -127.4180 N.am  150  CYS150     -0.1969
    179  CA       -10.6510   -2.9040 -127.8690 C.3   150  CYS150      0.1712
    180  C        -12.0800   -3.4300 -127.8560 C.2   150  CYS150      0.2296
    181  O        -12.4610   -4.1870 -128.7370 O.2   150  CYS150     -0.2864
    182  CB        -9.7830   -3.8190 -127.0150 C.3   150  CYS150      0.0983
    183  SG       -10.1310   -3.7170 -125.2120 S.3   150  CYS150     -0.0798
    184  N        -15.2480   -9.5920 -119.1310 N.3   177  HIS177     -0.1241
    185  CA       -13.8110   -9.3320 -119.1850 C.3   177  HIS177      0.1621
    186  C        -12.9930  -10.4180 -118.5100 C.2   177  HIS177      0.2264
    187  O        -13.4220  -10.9930 -117.5220 O.2   177  HIS177     -0.2867
    188  CB       -13.5180   -7.9850 -118.4830 C.3   177  HIS177      0.0745
    189  CG       -13.7380   -6.8020 -119.3680 C.ar  177  HIS177      0.0817
    190  ND1      -14.5950   -5.7500 -119.2340 N.ar  177  HIS177     -0.2268
    191  CD2      -13.1280   -6.5690 -120.4930 C.ar  177  HIS177      0.1154
    192  CE1      -14.4610   -4.9290 -120.2740 C.ar  177  HIS177      0.1986
    193  NE2      -13.5740   -5.4230 -121.0550 N.ar  177  HIS177     -0.2212
    194  N         -8.8820   -9.2910 -126.3890 N.3   301  ASN301     -0.1225
    195  CA        -8.9970   -7.8720 -126.0420 C.3   301  ASN301      0.1785
    196  C         -7.7300   -7.0550 -126.2560 C.2   301  ASN301      0.2597
    197  O         -7.7610   -5.8300 -126.1880 O.2   301  ASN301     -0.2718
    198  CB        -9.4830   -7.7020 -124.5970 C.3   301  ASN301      0.1169
    199  CG        -8.7370   -8.6030 -123.6270 C.2   301  ASN301      0.2627
    200  OD1       -7.5040   -8.7830 -123.7460 O.2   301  ASN301     -0.2716
    201  ND2       -9.4710   -9.2010 -122.6760 N.am  301  ASN301     -0.0877
    202  N         -6.6170   -7.7210 -126.5130 N.am  302  GLU302     -0.1979
    203  CA        -5.3630   -7.0160 -126.7560 C.3   302  GLU302      0.1602
    204  C         -4.8440   -7.2270 -128.1530 C.2   302  GLU302      0.2287
    205  O         -4.4950   -6.2630 -128.8260 O.2   302  GLU302     -0.2864
    206  CB        -4.3220   -7.4550 -125.7500 C.3   302  GLU302      0.0415
    207  CG        -4.6470   -6.9740 -124.3510 C.3   302  GLU302      0.1163
    208  CD        -3.7370   -7.5670 -123.2930 C.2   302  GLU302      0.3649
    209  OE1       -3.0360   -8.5820 -123.5760 O.co2 302  GLU302     -0.2457
    210  OE2       -3.7410   -7.0050 -122.1670 O.co2 302  GLU302     -0.2457
    211  N         -6.9990   -5.6220 -131.0740 N.3   305  PHE305     -0.1241
    212  CA        -6.7790   -4.1870 -131.0080 C.3   305  PHE305      0.1605
    213  C         -5.3770   -3.7990 -131.4930 C.2   305  PHE305      0.2264
    214  O         -5.2100   -2.8520 -132.2570 O.2   305  PHE305     -0.2867
    215  CB        -6.9810   -3.7150 -129.5740 C.3   305  PHE305      0.0534
    216  CG        -7.0730   -2.2310 -129.4350 C.ar  305  PHE305     -0.0203
    217  CD1       -6.1140   -1.5330 -128.7240 C.ar  305  PHE305     -0.0042
    218  CD2       -8.1370   -1.5290 -130.0110 C.ar  305  PHE305     -0.0042
    219  CE1       -6.2030   -0.1690 -128.5860 C.ar  305  PHE305     -0.0003
    220  CE2       -8.2350   -0.1550 -129.8800 C.ar  305  PHE305     -0.0003
    221  CZ        -7.2680    0.5280 -129.1660 C.ar  305  PHE305     -0.0000
@<TRIPOS>BOND
     1   214   213    2
     2   213   212    1
     3   211   212    1
     4   212   215    1
     5   218   220   ar
     6   218   216   ar
     7   220   221   ar
     8   215   216    1
     9   216   217   ar
    10   221   219   ar
    11   175   174    2
    12   205   204    2
    13   181   180    2
    14   217   219   ar
    15   172   173    1
    16   156   157    1
    17   157   160    1
    18   157   158    1
    19   165   164    2
    20    54    53    2
    21    50    49    2
    22   204   203    1
    23   125   124    1
    24   174   173    1
    25   174   178   am
    26     1     2    1
    27   179   180    1
    28   179   178    1
    29   179   182    1
    30   160   161    1
    31   173   176    1
    32    42    41    2
    33   162   158   am
    34   162   163    1
    35   158   159    2
    36    53    52    1
    37   164   163    1
    38    45    43    1
    39    49    48    1
    40    49    51   am
    41   182   183    1
    42   203   202    1
    43   203   206    1
    44     5     2    1
    45     5     6    1
    46   163   166    1
    47    48    47    1
    48     2     3    1
    49   120   121    1
    50    21    23   ar
    51    21    19   ar
    52   202   196   am
    53    41    47   am
    54    41    40    1
    55    62    63    1
    56   194   195    1
    57   124   121    1
    58   177   176    1
    59   196   197    2
    60   196   195    1
    61    52    51    1
    62    52    55    1
    63   115   114    2
    64    23    22   ar
    65   195   198    1
    66   121   122    1
    67    19    18   ar
    68     4     3    2
    69   206   207    1
    70    43    40    1
    71    43    44    1
    72     3     9   am
    73    40    39    1
    74     6     8   am
    75     6     7    2
    76   166   167    1
    77    63    66    1
    78    63    64    1
    79    66    67    1
    80    44    46    1
    81    12    11    2
    82   114   113    1
    83   119   117    1
    84   117   118    1
    85   117   116    1
    86   169   167   ar
    87   169   171   ar
    88    55    56    1
    89   167   168   ar
    90    22    20   ar
    91    31    30    2
    92     9    10    1
    93   198   199    1
    94   171   170   ar
    95    18    20   ar
    96    18    17    1
    97   168   170   ar
    98   122   126   am
    99   122   123    2
   100   147   146    2
   101   207   208    1
   102    65    64    2
   103    39    30   am
   104    64    70   am
   105   116   113    1
   106    56    57    1
   107    11    10    1
   108    11    13   am
   109    67    68    2
   110    67    69   am
   111   113   112    1
   112   146   145    1
   113   126   127    1
   114    30    29    1
   115   148   145    1
   116   148   149    1
   117    97    98    1
   118    97    96    1
   119   200   199    2
   120   199   201   am
   121    17    14    1
   122    14    13    1
   123    14    15    1
   124   209   208   ar
   125   208   210   ar
   126    70    71    1
   127    98    99   ar
   128    98   100   ar
   129    27    26    2
   130   145   144    1
   131   151   149   ar
   132   151   153   ar
   133   131   130    1
   134   149   150   ar
   135    57    58    1
   136   132   130    1
   137    96    93    1
   138    15    24   am
   139    15    16    2
   140   127   130    1
   141   127   128    1
   142    24    25    1
   143    29    28    1
   144    29    32    1
   145   133   128   am
   146   133   134    1
   147   153   154   ar
   148   150   152   ar
   149    26    28   am
   150    26    25    1
   151   144   139   am
   152    38    36    1
   153    74    71    1
   154    74    75    1
   155    71    72    1
   156    58    59    2
   157   128   129    2
   158    92    93    1
   159    32    33    1
   160   134   135    1
   161   154   152   ar
   162   154   155    1
   163    93    94    1
   164    77    76   ar
   165    95    94    2
   166   193   191   ar
   167   193   192   ar
   168    60    59    1
   169   139   140    2
   170   139   138    1
   171    59    61    1
   172    75    76    1
   173   135   137   am
   174   135   136    2
   175    36    35    2
   176    36    37    1
   177    94   101   am
   178   137   138    1
   179    35    34    1
   180    73    72    2
   181    72    79   am
   182   191   189   ar
   183    76    78   ar
   184   192   190   ar
   185    33    34    1
   186   143   141    1
   187   138   141    1
   188    79    80    1
   189   189   190   ar
   190   189   188    1
   191   101   102    1
   192   185   184    1
   193   185   186    1
   194   185   188    1
   195    90    89    2
   196   141   142    1
   197   103   102    1
   198   103   104    2
   199   186   187    2
   200   102   105    1
   201    80    81    1
   202    80    83    1
   203    87    81   am
   204    87    88    1
   205    89    88    1
   206    91    88    1
   207    81    82    2
   208    83    84    1
   209    84    86    1
   210    84    85    1
   211   105   106    1
   212   106   107    1
   213   110   109    1
   214   107   108    1
   215   109   108    2
   216   109   111    1
