@<TRIPOS>MOLECULE
tmp/2xffA00.pdb
 164 158 0 0 0
SMALL
GASTEIGER

@<TRIPOS>ATOM
      1  N          8.1230   10.3070   25.3110 N.3   179  ALA179     -0.1245
      2  CA         9.5040   10.2170   25.7810 C.3   179  ALA179      0.1562
      3  C          9.9790   11.5760   26.3460 C.2   179  ALA179      0.2260
      4  O         11.1840   11.7820   26.5580 O.2   179  ALA179     -0.2867
      5  CB        10.4840    9.6800   24.7100 C.3   179  ALA179      0.0290
      6  N          9.9050   14.3190   24.7350 N.3   181  GLU181     -0.1245
      7  CA        10.5620   15.0270   23.6500 C.3   181  GLU181      0.1567
      8  C          9.5350   15.8460   22.8770 C.2   181  GLU181      0.2260
      9  O          8.3700   15.4550   22.7460 O.2   181  GLU181     -0.2867
     10  CB        11.2280   13.9890   22.7490 C.3   181  GLU181      0.0388
     11  CG        12.4510   13.3590   23.4360 C.3   181  GLU181      0.1160
     12  CD        13.0080   12.1510   22.7740 C.2   181  GLU181      0.3649
     13  OE1       12.2950   11.4600   22.0300 O.co2 181  GLU181     -0.2457
     14  OE2       14.2070   11.9220   23.0580 O.co2 181  GLU181     -0.2457
     15  N          8.1460   16.3130   19.9380 N.3   183  ARG183     -0.1245
     16  CA         8.0070   15.5250   18.7070 C.3   183  ARG183      0.1563
     17  C          6.6220   14.8880   18.6500 C.2   183  ARG183      0.2260
     18  O          5.9200   14.8200   19.6680 O.2   183  ARG183     -0.2867
     19  CB         9.0520   14.4200   18.6210 C.3   183  ARG183      0.0307
     20  CG         8.8800   13.2890   19.6410 C.3   183  ARG183      0.0489
     21  CD         9.9620   12.2760   19.4330 C.3   183  ARG183      0.2205
     22  NE         9.9390   11.1850   20.3950 N.pl3 183  ARG183     -0.0865
     23  CZ         9.2250   10.0700   20.2830 C.cat 183  ARG183      0.5346
     24  NH1        8.3450    9.8730   19.3260 N.pl3 183  ARG183      0.1354
     25  NH2        9.4390    9.0720   21.1380 N.pl3 183  ARG183      0.1354
     26  N          7.4810    7.0970   15.2420 N.3   187  TYR187     -0.1241
     27  CA         8.2380    5.8160   15.1790 C.3   187  TYR187      0.1605
     28  C          7.8320    4.9010   16.3250 C.2   187  TYR187      0.2264
     29  O          8.6130    4.6970   17.2580 O.2   187  TYR187     -0.2867
     30  CB         9.7780    6.0490   15.1470 C.3   187  TYR187      0.0534
     31  CG        10.3860    6.9980   16.1580 C.ar  187  TYR187     -0.0201
     32  CD1       10.2890    8.3780   16.0070 C.ar  187  TYR187     -0.0009
     33  CD2       11.0840    6.5230   17.2620 C.ar  187  TYR187     -0.0009
     34  CE1       10.8810    9.2500   16.9230 C.ar  187  TYR187      0.0417
     35  CE2       11.6680    7.4200   18.2030 C.ar  187  TYR187      0.0417
     36  CZ        11.5790    8.7750   18.0010 C.ar  187  TYR187      0.1957
     37  OH        12.1240    9.6660   18.8980 O.3   187  TYR187     -0.2866
     38  N          7.7650    1.9390   18.0870 N.3   189  GLN189     -0.1245
     39  CA         8.5880    0.6990   18.0770 C.3   189  GLN189      0.1566
     40  C          7.8850   -0.6270   18.4760 C.2   189  GLN189      0.2260
     41  O          8.3060   -1.6980   18.0470 O.2   189  GLN189     -0.2867
     42  CB         9.8760    0.9340   18.9090 C.3   189  GLN189      0.0367
     43  CG        11.1460    0.1180   18.5050 C.3   189  GLN189      0.0905
     44  CD        12.4580    0.7500   19.0410 C.2   189  GLN189      0.2608
     45  OE1       12.4510    1.5910   19.9560 O.2   189  GLN189     -0.2717
     46  NE2       13.5700    0.3480   18.4680 N.am  189  GLN189     -0.0878
     47  N          6.3810    0.0670   13.7780 N.3   193  TRP193     -0.1241
     48  CA         7.6070    0.6360   13.2290 C.3   193  TRP193      0.1605
     49  C          8.8160   -0.1300   13.7170 C.2   193  TRP193      0.2264
     50  O          8.9090   -0.4770   14.9170 O.2   193  TRP193     -0.2867
     51  CB         7.7330    2.0880   13.6360 C.3   193  TRP193      0.0550
     52  CG         9.0170    2.7700   13.1760 C.ar  193  TRP193      0.0003
     53  CD1        9.2450    3.4470   11.9810 C.ar  193  TRP193      0.0946
     54  CD2       10.2270    2.8860   13.9220 C.ar  193  TRP193      0.0152
     55  NE1       10.5150    3.9440   11.9670 N.ar  193  TRP193     -0.2442
     56  CE2       11.1310    3.6410   13.1470 C.ar  193  TRP193      0.0810
     57  CE3       10.6330    2.4660   15.2070 C.ar  193  TRP193      0.0012
     58  CZ2       12.4010    3.9790   13.5990 C.ar  193  TRP193      0.0191
     59  CZ3       11.8730    2.8170   15.6630 C.ar  193  TRP193      0.0001
     60  CH2       12.7590    3.5630   14.8580 C.ar  193  TRP193      0.0015
     61  N         13.2100    0.4430   13.2350 N.3   195  PHE195     -0.1241
     62  CA        14.3320    1.2070   12.6790 C.3   195  PHE195      0.1605
     63  C         14.8710    0.5340   11.4190 C.2   195  PHE195      0.2264
     64  O         15.0690   -0.6750   11.4700 O.2   195  PHE195     -0.2867
     65  CB        15.4280    1.3030   13.7470 C.3   195  PHE195      0.0534
     66  CG        16.6580    2.0670   13.3150 C.ar  195  PHE195     -0.0203
     67  CD1       17.7920    1.4120   12.8290 C.ar  195  PHE195     -0.0042
     68  CD2       16.6940    3.4380   13.3660 C.ar  195  PHE195     -0.0042
     69  CE1       18.8950    2.1010   12.4200 C.ar  195  PHE195     -0.0003
     70  CE2       17.8520    4.1390   12.9790 C.ar  195  PHE195     -0.0003
     71  CZ        18.9320    3.4710   12.5260 C.ar  195  PHE195     -0.0000
     72  N         13.6740   19.0010   25.4050 N.3   290  LYS290     -0.1245
     73  CA        14.4160   17.8940   24.8240 C.3   290  LYS290      0.1561
     74  C         13.9700   17.6850   23.3940 C.2   290  LYS290      0.2260
     75  O         12.8040   17.5060   23.1250 O.2   290  LYS290     -0.2867
     76  CB        14.2080   16.6060   25.6140 C.3   290  LYS290      0.0271
     77  CG        14.9180   15.4110   25.0000 C.3   290  LYS290      0.0035
     78  CD        16.4260   15.3800   25.2260 C.3   290  LYS290      0.0206
     79  CE        17.0740   14.2120   24.4810 C.3   290  LYS290      0.1093
     80  NZ        16.2530   13.0070   24.6690 N.3   290  LYS290     -0.1314
     81  N         14.3950   15.2630   20.1240 N.3   292  SER292     -0.1202
     82  CA        14.8180   13.9110   19.7680 C.3   292  SER292      0.2020
     83  C         15.8520   13.9190   18.6580 C.2   292  SER292      0.2619
     84  O         15.8080   14.8180   17.8300 O.2   292  SER292     -0.2717
     85  CB        13.6470   13.0900   19.2670 C.3   292  SER292      0.2103
     86  OG        14.0140   11.7080   19.0830 O.3   292  SER292     -0.2182
     87  N         16.7490   12.9350   18.6250 N.am  293  GLY293     -0.1956
     88  CA        17.8230   12.8490   17.6170 C.3   293  GLY293      0.1869
     89  C         17.4450   11.8940   16.4920 C.2   293  GLY293      0.2309
     90  O         17.6540   10.6970   16.5620 O.2   293  GLY293     -0.2863
     91  N         18.4140   10.8220   13.3560 N.3   295  HIS295     -0.1226
     92  CA        19.5840   10.8170   12.4900 C.3   295  HIS295      0.1752
     93  C         19.4410    9.9800   11.2420 C.2   295  HIS295      0.2596
     94  O         20.2290   10.1600   10.3130 O.2   295  HIS295     -0.2718
     95  CB        20.8440   10.3710   13.2600 C.3   295  HIS295      0.0759
     96  CG        20.6830    9.0630   13.9500 C.ar  295  HIS295      0.0818
     97  ND1       20.9170    7.8470   13.3330 N.ar  295  HIS295     -0.2268
     98  CD2       20.2640    8.7740   15.2040 C.ar  295  HIS295      0.1154
     99  CE1       20.6630    6.8730   14.1900 C.ar  295  HIS295      0.1986
    100  NE2       20.2770    7.4100   15.3390 N.ar  295  HIS295     -0.2212
    101  N         18.4500    9.0930   11.2070 N.am  296  TRP296     -0.1976
    102  CA        18.2200    8.2280   10.0470 C.3   296  TRP296      0.1640
    103  C         17.4960    9.0280    8.9380 C.2   296  TRP296      0.2290
    104  O         16.6400    9.8820    9.2190 O.2   296  TRP296     -0.2864
    105  CB        17.5120    6.9210   10.4430 C.3   296  TRP296      0.0576
    106  CG        16.2410    6.9780   11.2180 C.ar  296  TRP296      0.0006
    107  CD1       14.9840    6.6820   10.7380 C.ar  296  TRP296      0.0946
    108  CD2       16.0470    7.2980   12.6230 C.ar  296  TRP296      0.0152
    109  NE1       14.0310    6.8000   11.7320 N.ar  296  TRP296     -0.2442
    110  CE2       14.6530    7.1720   12.8860 C.ar  296  TRP296      0.0810
    111  CE3       16.8990    7.5870   13.6950 C.ar  296  TRP296      0.0012
    112  CZ2       14.1000    7.3960   14.1470 C.ar  296  TRP296      0.0191
    113  CZ3       16.3490    7.7840   14.9630 C.ar  296  TRP296      0.0001
    114  CH2       14.9690    7.7210   15.1550 C.ar  296  TRP296      0.0015
    115  N         20.8040   15.0490   21.9360 N.3   337  THR337     -0.1203
    116  CA        21.1810   13.6640   22.1510 C.3   337  THR337      0.1994
    117  C         22.0540   13.2230   20.9900 C.2   337  THR337      0.2618
    118  O         22.5160   14.0720   20.1910 O.2   337  THR337     -0.2717
    119  CB        19.9140   12.8170   22.3490 C.3   337  THR337      0.1784
    120  OG1       20.2490   11.4860   22.7020 O.3   337  THR337     -0.2211
    121  CG2       19.0070   12.8480   21.1100 C.3   337  THR337      0.0376
    122  N         22.4280   11.9470   20.9820 N.am  338  CYS338     -0.1969
    123  CA        23.3180   11.3870   19.9750 C.3   338  CYS338      0.1712
    124  C         24.7410   11.9020   20.1240 C.2   338  CYS338      0.2296
    125  O         25.5490   11.7150   19.2070 O.2   338  CYS338     -0.2864
    126  CB        22.8260   11.5840   18.5190 C.3   338  CYS338      0.0983
    127  SG        21.1690   10.9950   18.1940 S.3   338  CYS338     -0.0798
    128  N         27.6060    9.2670   19.3330 N.3   341  MET341     -0.1245
    129  CA        27.5730    8.5190   18.0870 C.3   341  MET341      0.1570
    130  C         28.5330    9.0170   17.0200 C.2   341  MET341      0.2261
    131  O         28.6560   10.2210   16.7620 O.2   341  MET341     -0.2867
    132  CB        26.1920    8.5860   17.4600 C.3   341  MET341      0.0387
    133  CG        25.1090    7.9280   18.2730 C.3   341  MET341      0.0595
    134  SD        23.4800    7.9050   17.4850 S.3   341  MET341     -0.1393
    135  CE        22.8680    6.3610   18.1140 C.3   341  MET341      0.0692
    136  N         26.9710    3.4930   12.3950 N.3   346  GLN346     -0.1245
    137  CA        25.5770    3.3050   11.9850 C.3   346  GLN346      0.1566
    138  C         25.5110    2.4380   10.7470 C.2   346  GLN346      0.2260
    139  O         26.4380    2.4250    9.9450 O.2   346  GLN346     -0.2867
    140  CB        24.8740    4.6440   11.7220 C.3   346  GLN346      0.0367
    141  CG        25.1580    5.7530   12.7480 C.3   346  GLN346      0.0905
    142  CD        24.9690    5.2880   14.1890 C.2   346  GLN346      0.2608
    143  OE1       24.0190    4.5610   14.5010 O.2   346  GLN346     -0.2717
    144  NE2       25.8830    5.6970   15.0770 N.am  346  GLN346     -0.0878
    145  N         22.4170    8.8710   23.1590 N.3   377  ALA377     -0.1231
    146  CA        21.2060    8.2020   22.6910 C.3   377  ALA377      0.1694
    147  C         21.0900    6.7390   23.1230 C.2   377  ALA377      0.2592
    148  O         19.9940    6.2620   23.4350 O.2   377  ALA377     -0.2718
    149  CB        21.1090    8.2660   21.1400 C.3   377  ALA377      0.0304
    150  N         22.2140    6.0170   23.0980 N.am  378  LEU378     -0.1966
    151  CA        22.2290    4.5850   23.3530 C.3   378  LEU378      0.1713
    152  C         23.2320    4.2670   24.4750 C.2   378  LEU378      0.2462
    153  O         24.1390    5.0700   24.7470 O.2   378  LEU378     -0.2730
    154  CB        22.5410    3.8180   22.0760 C.3   378  LEU378      0.0310
    155  CG        21.5460    3.8960   20.9240 C.3   378  LEU378      0.0022
    156  CD1       22.1630    3.2540   19.6490 C.3   378  LEU378      0.0001
    157  CD2       20.2440    3.2460   21.3560 C.3   378  LEU378      0.0001
    158  N         23.0450    3.1160   25.1560 N.am  379  PRO379     -0.2651
    159  CA        23.9850    2.7560   26.2350 C.3   379  PRO379      0.1628
    160  C         25.3960    2.5420   25.6840 C.2   379  PRO379      0.2315
    161  O         25.5800    1.8200   24.7000 O.2   379  PRO379     -0.2861
    162  CB        23.4130    1.4520   26.8240 C.2   379  PRO379     -0.0016
    163  CG        22.1920    1.1170   26.1070 C.2   379  PRO379     -0.0072
    164  CD        21.9430    2.1420   25.0100 C.3   379  PRO379      0.1203
@<TRIPOS>BOND
     1   103   104    2
     2   103   102    1
     3   139   138    2
     4   102   105    1
     5   102   101    1
     6    94    93    2
     7   105   106    1
     8   107   106   ar
     9   107   109   ar
    10   138   137    1
    11   101    93   am
    12   106   108   ar
    13    93    92    1
    14    63    64    2
    15    63    62    1
    16   140   137    1
    17   140   141    1
    18   109   110   ar
    19    55    53   ar
    20    55    56   ar
    21    53    52   ar
    22   137   136    1
    23    69    71   ar
    24    69    67   ar
    25    92    95    1
    26    92    91    1
    27    71    70   ar
    28   108   110   ar
    29   108   111   ar
    30    62    61    1
    31    62    65    1
    32   141   142    1
    33    67    66   ar
    34   110   112   ar
    35    70    68   ar
    36    56    58   ar
    37    56    54   ar
    38    52    51    1
    39    52    54   ar
    40    48    51    1
    41    48    49    1
    42    48    47    1
    43    95    96    1
    44    66    68   ar
    45    66    65    1
    46    97    96   ar
    47    97    99   ar
    48    58    60   ar
    49   111   113   ar
    50    49    50    2
    51    54    57   ar
    52    96    98   ar
    53   112   114   ar
    54   142   143    2
    55   142   144   am
    56    99   100   ar
    57    60    59   ar
    58   113   114   ar
    59    30    27    1
    60    30    31    1
    61    27    26    1
    62    27    28    1
    63    98   100   ar
    64    57    59   ar
    65    32    31   ar
    66    32    34   ar
    67    31    33   ar
    68    28    29    2
    69    89    90    2
    70    89    88    1
    71   131   130    2
    72    34    36   ar
    73   130   129    1
    74    33    35   ar
    75   132   129    1
    76   132   133    1
    77   134   135    1
    78   134   133    1
    79    88    87    1
    80    84    83    2
    81    36    35   ar
    82    36    37    1
    83    41    40    2
    84    39    38    1
    85    39    40    1
    86    39    42    1
    87   129   128    1
    88   127   126    1
    89    46    44   am
    90    43    42    1
    91    43    44    1
    92   126   123    1
    93    19    16    1
    94    19    20    1
    95    87    83   am
    96    17    16    1
    97    17    18    2
    98    83    82    1
    99    16    15    1
   100    44    45    2
   101    86    85    1
   102   125   124    2
   103    85    82    1
   104    24    23    1
   105    21    20    1
   106    21    22    1
   107   156   155    1
   108    82    81    1
   109   123   124    1
   110   123   122    1
   111   118   117    2
   112    23    22    2
   113    23    25    1
   114   155   157    1
   115   155   154    1
   116   122   117   am
   117   117   116    1
   118   121   119    1
   119   149   146    1
   120   115   116    1
   121    13    12   ar
   122   154   151    1
   123   116   119    1
   124   119   120    1
   125   146   147    1
   126   146   145    1
   127     9     8    2
   128    10    11    1
   129    10     7    1
   130    12    14   ar
   131    12    11    1
   132     8     7    1
   133   150   147   am
   134   150   151    1
   135   147   148    2
   136    75    74    2
   137   151   152    1
   138    74    73    1
   139     7     6    1
   140   152   153    2
   141   152   158   am
   142    79    80    1
   143    79    78    1
   144   161   160    2
   145     5     2    1
   146    73    72    1
   147    73    76    1
   148    77    78    1
   149    77    76    1
   150   164   158    1
   151   164   163    1
   152   158   159    1
   153     1     2    1
   154   160   159    1
   155     2     3    1
   156   163   162    2
   157   159   162    1
   158     3     4    2
