@<TRIPOS>MOLECULE
tmp/2xfhA01.pdb
 126 119 0 0 0
SMALL
GASTEIGER

@<TRIPOS>ATOM
      1  N         -0.0260  -16.8870    3.5220 N.3    69  MET69      -0.1230
      2  CA         0.0710  -15.4620    3.8750 C.3    69  MET69       0.1702
      3  C          1.2200  -15.2660    4.8250 C.2    69  MET69       0.2592
      4  O          1.2110  -15.7970    5.9310 O.2    69  MET69      -0.2718
      5  CB        -1.2090  -14.9810    4.5630 C.3    69  MET69       0.0401
      6  CG        -2.4390  -15.0150    3.6890 C.3    69  MET69       0.0596
      7  SD        -2.1630  -14.2450    2.1000 S.3    69  MET69      -0.1393
      8  CE        -3.8550  -13.8260    1.6840 C.3    69  MET69       0.0692
      9  N          2.2100  -14.4990    4.4020 N.am   70  ILE70      -0.1966
     10  CA         3.4070  -14.2930    5.1940 C.3    70  ILE70       0.1727
     11  C          3.2810  -13.1880    6.2540 C.2    70  ILE70       0.2616
     12  O          4.1060  -13.1130    7.1700 O.2    70  ILE70      -0.2715
     13  CB         4.6520  -13.9970    4.2710 C.3    70  ILE70       0.0290
     14  CG1        4.3580  -12.8250    3.3400 C.3    70  ILE70       0.0022
     15  CG2        5.0580  -15.2800    3.4710 C.3    70  ILE70       0.0023
     16  CD1        5.3920  -12.6370    2.2270 C.3    70  ILE70       0.0001
     17  N          2.2780  -12.3200    6.1190 N.am   71  HIS71      -0.1973
     18  CA         2.2000  -11.1380    6.9730 C.3    71  HIS71       0.1656
     19  C          1.6090  -11.4480    8.3510 C.2    71  HIS71       0.2291
     20  O          1.6170  -10.5830    9.2280 O.2    71  HIS71      -0.2864
     21  CB         1.3740  -10.0400    6.2960 C.3    71  HIS71       0.0771
     22  CG        -0.0920  -10.3360    6.2540 C.ar   71  HIS71       0.0820
     23  ND1       -0.6290  -11.3160    5.4430 N.ar   71  HIS71      -0.2267
     24  CD2       -1.1360   -9.7810    6.9170 C.ar   71  HIS71       0.1154
     25  CE1       -1.9400  -11.3540    5.6090 C.ar   71  HIS71       0.1986
     26  NE2       -2.2740  -10.4250    6.4900 N.ar   71  HIS71      -0.2212
     27  N        -13.6170   -1.4680    1.3660 N.3   156  GLN156     -0.1245
     28  CA       -12.7540   -0.6910    2.2480 C.3   156  GLN156      0.1566
     29  C        -13.2150    0.7530    2.4050 C.2   156  GLN156      0.2260
     30  O        -12.6750    1.4910    3.2250 O.2   156  GLN156     -0.2867
     31  CB       -11.2990   -0.7720    1.7780 C.3   156  GLN156      0.0367
     32  CG       -10.7220   -2.1660    1.9500 C.3   156  GLN156      0.0905
     33  CD        -9.4500   -2.3880    1.1630 C.2   156  GLN156      0.2608
     34  OE1       -8.8750   -1.4560    0.5920 O.2   156  GLN156     -0.2717
     35  NE2       -9.0020   -3.6370    1.1240 N.am  156  GLN156     -0.0878
     36  N         -3.2150  -12.1120   -2.5770 N.3   220  ALA220     -0.1245
     37  CA        -2.5900  -10.9620   -1.8960 C.3   220  ALA220      0.1562
     38  C         -1.9000  -10.0490   -2.9240 C.2   220  ALA220      0.2260
     39  O         -1.9690   -8.8110   -2.8240 O.2   220  ALA220     -0.2867
     40  CB        -1.6090  -11.4160   -0.8170 C.3   220  ALA220      0.0290
     41  N         -4.6700   -7.9320   -4.7890 N.3   223  LEU223     -0.1231
     42  CA        -5.3020   -6.9290   -3.9570 C.3   223  LEU223      0.1693
     43  C         -4.3030   -5.8440   -3.5430 C.2   223  LEU223      0.2591
     44  O         -4.6410   -4.6590   -3.5080 O.2   223  LEU223     -0.2718
     45  CB        -5.9820   -7.6010   -2.7550 C.3   223  LEU223      0.0284
     46  CG        -6.9360   -8.7730   -3.0840 C.3   223  LEU223      0.0019
     47  CD1       -7.6050   -9.3410   -1.8200 C.3   223  LEU223      0.0001
     48  CD2       -8.0060   -8.3830   -4.1350 C.3   223  LEU223      0.0001
     49  N         -3.0700   -6.2630   -3.2490 N.am  224  ALA224     -0.1980
     50  CA        -1.9920   -5.3240   -2.9120 C.3   224  ALA224      0.1597
     51  C         -1.7090   -4.3250   -4.0160 C.2   224  ALA224      0.2287
     52  O         -1.6590   -3.1120   -3.7620 O.2   224  ALA224     -0.2864
     53  CB        -0.7080   -6.0760   -2.5650 C.3   224  ALA224      0.0319
     54  N         -5.1950   -1.9830   -4.7750 N.3   227  ILE227     -0.1231
     55  CA        -5.4600   -0.9490   -3.7730 C.3   227  ILE227      0.1692
     56  C         -4.3190    0.0510   -3.6760 C.2   227  ILE227      0.2592
     57  O         -4.5570    1.2550   -3.5730 O.2   227  ILE227     -0.2718
     58  CB        -5.7930   -1.5350   -2.3470 C.3   227  ILE227      0.0266
     59  CG1       -6.3670   -0.4630   -1.4040 C.3   227  ILE227      0.0019
     60  CG2       -4.5420   -2.1200   -1.6160 C.3   227  ILE227      0.0020
     61  CD1       -7.3760    0.4370   -2.0020 C.3   227  ILE227      0.0001
     62  N         -3.0850   -0.4410   -3.6870 N.am  228  THR228     -0.1953
     63  CA        -1.9720    0.4870   -3.4800 C.3   228  THR228      0.1897
     64  C         -1.6830    1.3740   -4.6790 C.2   228  THR228      0.2313
     65  O         -1.3150    2.5430   -4.4970 O.2   228  THR228     -0.2863
     66  CB        -0.6850   -0.1770   -2.9390 C.3   228  THR228      0.1794
     67  OG1       -0.0520   -0.9420   -3.9690 O.3   228  THR228     -0.2208
     68  CG2       -0.9830   -1.0480   -1.6990 C.3   228  THR228      0.0378
     69  N         -0.9180    3.1580    3.7880 N.3   271  PHE271     -0.1241
     70  CA        -1.3100    2.5690    5.0780 C.3   271  PHE271      0.1605
     71  C         -0.7440    3.3300    6.2800 C.2   271  PHE271      0.2264
     72  O          0.4270    3.1370    6.6630 O.2   271  PHE271     -0.2867
     73  CB        -0.8770    1.0990    5.1620 C.3   271  PHE271      0.0534
     74  CG        -1.3720    0.2740    4.0190 C.ar  271  PHE271     -0.0203
     75  CD1       -0.5070   -0.1430    3.0240 C.ar  271  PHE271     -0.0042
     76  CD2       -2.7130   -0.0320    3.9190 C.ar  271  PHE271     -0.0042
     77  CE1       -0.9470   -0.8780    1.9510 C.ar  271  PHE271     -0.0003
     78  CE2       -3.1820   -0.7930    2.8510 C.ar  271  PHE271     -0.0003
     79  CZ        -2.2960   -1.2150    1.8620 C.ar  271  PHE271     -0.0000
     80  N         -1.2670    2.8310    9.4100 N.3   273  GLN273     -0.1231
     81  CA        -1.0460    2.0100   10.5990 C.3   273  GLN273      0.1698
     82  C         -0.7930    0.5370   10.2640 C.2   273  GLN273      0.2592
     83  O         -1.1810    0.0590    9.1930 O.2   273  GLN273     -0.2718
     84  CB        -2.2050    2.1750   11.5900 C.3   273  GLN273      0.0381
     85  CG        -3.5830    1.9630   10.9790 C.3   273  GLN273      0.0905
     86  CD        -4.6850    2.7540   11.6750 C.2   273  GLN273      0.2608
     87  OE1       -4.8210    2.7200   12.9030 O.2   273  GLN273     -0.2717
     88  NE2       -5.4980    3.4460   10.8820 N.am  273  GLN273     -0.0878
     89  N         -0.1100   -0.1510   11.1720 N.am  274  MET274     -0.1965
     90  CA         0.1090   -1.5960   11.1150 C.3   274  MET274      0.1736
     91  C         -0.2040   -2.1310   12.5170 C.2   274  MET274      0.2616
     92  O         -0.1820   -1.3800   13.4700 O.2   274  MET274     -0.2715
     93  CB         1.5480   -1.8930   10.7280 C.3   274  MET274      0.0427
     94  CG         2.0280   -1.1010    9.5020 C.3   274  MET274      0.0599
     95  SD         3.7820   -0.7950    9.5050 S.3   274  MET274     -0.1393
     96  CE         4.4300   -2.4640    9.5890 C.3   274  MET274      0.0692
     97  N         -0.5300   -3.4180   12.6380 N.am  275  GLN275     -0.1977
     98  CA        -0.8900   -3.9550   13.9350 C.3   275  GLN275      0.1601
     99  C          0.0310   -5.0920   14.3600 C.2   275  GLN275      0.2287
    100  O          0.5820   -5.7980   13.5260 O.2   275  GLN275     -0.2864
    101  CB        -2.3720   -4.3730   13.9810 C.3   275  GLN275      0.0394
    102  CG        -3.3470   -3.1850   14.1720 C.3   275  GLN275      0.0908
    103  CD        -3.8350   -2.5850   12.8570 C.2   275  GLN275      0.2608
    104  OE1       -4.7820   -3.0830   12.2510 O.2   275  GLN275     -0.2717
    105  NE2       -3.2010   -1.5060   12.4220 N.am  275  GLN275     -0.0878
    106  N          7.8260   -4.5810    3.0660 N.3   336  CYS336     -0.1235
    107  CA         6.9820   -4.9890    1.9380 C.3   336  CYS336      0.1677
    108  C          7.6790   -5.8020    0.8390 C.2   336  CYS336      0.2270
    109  O          8.6310   -5.3150    0.1950 O.2   336  CYS336     -0.2867
    110  CB         6.3280   -3.7360    1.3240 C.3   336  CYS336      0.0956
    111  SG         5.2670   -4.0020   -0.0990 S.3   336  CYS336     -0.0801
    112  N         -8.6310    2.2760    7.2340 N.3   375  ILE375     -0.1231
    113  CA        -7.4980    1.4630    6.7500 C.3   375  ILE375      0.1692
    114  C         -6.5130    2.2290    5.8520 C.2   375  ILE375      0.2591
    115  O         -5.3280    2.3100    6.1730 O.2   375  ILE375     -0.2718
    116  CB        -7.9360    0.1130    6.0800 C.3   375  ILE375      0.0266
    117  CG1       -8.9840   -0.6410    6.9340 C.3   375  ILE375      0.0019
    118  CG2       -6.7170   -0.7820    5.7730 C.3   375  ILE375      0.0020
    119  CD1       -8.5950   -0.8700    8.4240 C.3   375  ILE375      0.0001
    120  N         -7.0180    2.7880    4.7530 N.am  376  VAL376     -0.1980
    121  CA        -6.2090    3.4060    3.7050 C.3   376  VAL376      0.1595
    122  C         -6.2370    4.9350    3.8190 C.2   376  VAL376      0.2287
    123  O         -7.2570    5.5170    4.1930 O.2   376  VAL376     -0.2864
    124  CB        -6.7510    2.9410    2.3100 C.3   376  VAL376      0.0276
    125  CG1       -6.6540    4.0250    1.2720 C.3   376  VAL376      0.0022
    126  CG2       -6.0620    1.6290    1.8540 C.3   376  VAL376      0.0022
@<TRIPOS>BOND
     1    41    42    1
     2    54    55    1
     3    64    65    2
     4    64    63    1
     5    48    46    1
     6    51    52    2
     7    51    50    1
     8    67    66    1
     9    42    43    1
    10    42    45    1
    11    55    56    1
    12    55    58    1
    13    62    56   am
    14    62    63    1
    15    56    57    2
    16    43    44    2
    17    43    49   am
    18    63    66    1
    19    49    50    1
    20    46    45    1
    21    46    47    1
    22    66    68    1
    23    38    39    2
    24    38    37    1
    25    50    53    1
    26    36    37    1
    27    58    60    1
    28    58    59    1
    29    61    59    1
    30    37    40    1
    31   111   110    1
    32   109   108    2
    33    34    33    2
    34   108   107    1
    35    35    33   am
    36    33    32    1
    37   125   124    1
    38   110   107    1
    39    27    28    1
    40     8     7    1
    41    31    32    1
    42    31    28    1
    43   126   124    1
    44    79    77   ar
    45    79    78   ar
    46   107   106    1
    47    77    75   ar
    48     7     6    1
    49    16    14    1
    50    28    29    1
    51   124   121    1
    52    29    30    2
    53    78    76   ar
    54    75    74   ar
    55    14    13    1
    56    15    13    1
    57     1     2    1
    58     6     5    1
    59   121   122    1
    60   121   120    1
    61    69    70    1
    62   122   123    2
    63     2     5    1
    64     2     3    1
    65    76    74   ar
    66    74    73    1
    67    13    10    1
    68     9     3   am
    69     9    10    1
    70   120   114   am
    71     3     4    2
    72    70    73    1
    73    70    71    1
    74    10    11    1
    75    23    25   ar
    76    23    22   ar
    77    25    26   ar
    78   118   116    1
    79   114   115    2
    80   114   113    1
    81   116   113    1
    82   116   117    1
    83    17    11   am
    84    17    18    1
    85    22    21    1
    86    22    24   ar
    87    11    12    2
    88    71    72    2
    89    21    18    1
    90    26    24   ar
    91   113   112    1
    92   117   119    1
    93    18    19    1
    94    19    20    2
    95    83    82    2
    96    80    81    1
    97    94    95    1
    98    94    93    1
    99    95    96    1
   100    82    81    1
   101    82    89   am
   102    81    84    1
   103    93    90    1
   104    88    86   am
   105    85    84    1
   106    85    86    1
   107    90    89    1
   108    90    91    1
   109    86    87    2
   110   104   103    2
   111   105   103   am
   112    91    97   am
   113    91    92    2
   114    97    98    1
   115   103   102    1
   116   100    99    2
   117    98   101    1
   118    98    99    1
   119   101   102    1
