@<TRIPOS>MOLECULE
tmp/2xfhA02.pdb
 111 101 0 0 0
SMALL
GASTEIGER

@<TRIPOS>ATOM
      1  N         -4.0390  -17.6330    7.7250 N.3    66  THR66      -0.1218
      2  CA        -4.3750  -18.0060    6.3550 C.3    66  THR66       0.1862
      3  C         -3.1410  -18.6040    5.6800 C.2    66  THR66       0.2287
      4  O         -2.0950  -17.9570    5.5970 O.2    66  THR66      -0.2866
      5  CB        -4.9000  -16.7980    5.5360 C.3    66  THR66       0.1770
      6  OG1       -6.0290  -16.2200    6.1990 O.3    66  THR66      -0.2211
      7  CG2       -5.3250  -17.2340    4.1350 C.3    66  THR66       0.0375
      8  N         -0.0260  -16.8870    3.5220 N.3    69  MET69      -0.1245
      9  CA         0.0710  -15.4620    3.8750 C.3    69  MET69       0.1570
     10  C          1.2200  -15.2660    4.8250 C.2    69  MET69       0.2261
     11  O          1.2110  -15.7970    5.9310 O.2    69  MET69      -0.2867
     12  CB        -1.2090  -14.9810    4.5630 C.3    69  MET69       0.0387
     13  CG        -2.4390  -15.0150    3.6890 C.3    69  MET69       0.0595
     14  SD        -2.1630  -14.2450    2.1000 S.3    69  MET69      -0.1393
     15  CE        -3.8550  -13.8260    1.6840 C.3    69  MET69       0.0692
     16  N          2.2780  -12.3200    6.1190 N.3    71  HIS71      -0.1241
     17  CA         2.2000  -11.1380    6.9730 C.3    71  HIS71       0.1621
     18  C          1.6090  -11.4480    8.3510 C.2    71  HIS71       0.2264
     19  O          1.6170  -10.5830    9.2280 O.2    71  HIS71      -0.2867
     20  CB         1.3740  -10.0400    6.2960 C.3    71  HIS71       0.0745
     21  CG        -0.0920  -10.3360    6.2540 C.ar   71  HIS71       0.0817
     22  ND1       -0.6290  -11.3160    5.4430 N.ar   71  HIS71      -0.2268
     23  CD2       -1.1360   -9.7810    6.9170 C.ar   71  HIS71       0.1154
     24  CE1       -1.9400  -11.3540    5.6090 C.ar   71  HIS71       0.1986
     25  NE2       -2.2740  -10.4250    6.4900 N.ar   71  HIS71      -0.2212
     26  N        -13.7330   -5.9020   -3.6070 N.3   152  LEU152     -0.1231
     27  CA       -12.9840   -5.8620   -2.3680 C.3   152  LEU152      0.1693
     28  C        -12.4390   -4.4680   -2.0440 C.2   152  LEU152      0.2591
     29  O        -12.4850   -4.0570   -0.8920 O.2   152  LEU152     -0.2718
     30  CB       -11.9020   -6.9550   -2.3370 C.3   152  LEU152      0.0284
     31  CG       -12.4420   -8.4000   -2.1970 C.3   152  LEU152      0.0019
     32  CD1      -11.3670   -9.4480   -2.5800 C.3   152  LEU152      0.0001
     33  CD2      -12.9900   -8.6900   -0.8010 C.3   152  LEU152      0.0001
     34  N        -11.9510   -3.7300   -3.0410 N.am  153  VAL153     -0.1980
     35  CA       -11.5180   -2.3400   -2.8130 C.3   153  VAL153      0.1595
     36  C        -12.7110   -1.4980   -2.3340 C.2   153  VAL153      0.2287
     37  O        -12.6160   -0.7790   -1.3370 O.2   153  VAL153     -0.2864
     38  CB       -10.8370   -1.7090   -4.0640 C.3   153  VAL153      0.0276
     39  CG1      -10.8000   -0.1970   -3.9560 C.3   153  VAL153      0.0022
     40  CG2       -9.4090   -2.2680   -4.2440 C.3   153  VAL153      0.0022
     41  N        -15.3500   -2.3310   -0.6530 N.3   155  ILE155     -0.1231
     42  CA       -15.6490   -2.6950    0.7510 C.3   155  ILE155      0.1692
     43  C        -14.8310   -1.8720    1.7670 C.2   155  ILE155      0.2591
     44  O        -15.3080   -1.5820    2.8700 O.2   155  ILE155     -0.2718
     45  CB       -15.4310   -4.2150    0.9960 C.3   155  ILE155      0.0266
     46  CG1      -16.4650   -5.0470    0.2420 C.3   155  ILE155      0.0019
     47  CG2      -15.5230   -4.5790    2.4670 C.3   155  ILE155      0.0020
     48  CD1      -16.1710   -6.5560    0.2750 C.3   155  ILE155      0.0001
     49  N        -13.6170   -1.4680    1.3660 N.am  156  GLN156     -0.1979
     50  CA       -12.7540   -0.6910    2.2480 C.3   156  GLN156      0.1601
     51  C        -13.2150    0.7530    2.4050 C.2   156  GLN156      0.2287
     52  O        -12.6750    1.4910    3.2250 O.2   156  GLN156     -0.2864
     53  CB       -11.2990   -0.7720    1.7780 C.3   156  GLN156      0.0394
     54  CG       -10.7220   -2.1660    1.9500 C.3   156  GLN156      0.0908
     55  CD        -9.4500   -2.3880    1.1630 C.2   156  GLN156      0.2608
     56  OE1       -8.8750   -1.4560    0.5920 O.2   156  GLN156     -0.2717
     57  NE2       -9.0020   -3.6370    1.1240 N.am  156  GLN156     -0.0878
     58  N        -17.0740   -9.0080    7.4300 N.3   166  ALA166     -0.1245
     59  CA       -16.4130  -10.3050    7.2520 C.3   166  ALA166      0.1562
     60  C        -17.1160  -11.1440    6.2090 C.2   166  ALA166      0.2260
     61  O        -16.4750  -11.7550    5.3470 O.2   166  ALA166     -0.2867
     62  CB       -16.3500  -11.0450    8.5820 C.3   166  ALA166      0.0290
     63  N        -16.7660   -9.5870    2.6090 N.3   169  ILE169     -0.1245
     64  CA       -15.4440   -9.9670    2.1090 C.3   169  ILE169      0.1561
     65  C        -15.4520  -11.4280    1.6130 C.2   169  ILE169      0.2260
     66  O        -15.0130  -11.7180    0.5070 O.2   169  ILE169     -0.2867
     67  CB       -14.3490   -9.7430    3.1730 C.3   169  ILE169      0.0252
     68  CG1      -14.2230   -8.2430    3.4520 C.3   169  ILE169      0.0019
     69  CG2      -13.0240  -10.3300    2.6910 C.3   169  ILE169      0.0019
     70  CD1      -13.5320   -7.8850    4.7180 C.3   169  ILE169      0.0001
     71  N        -14.1620  -12.9350   -1.9210 N.3   173  LEU173     -0.1245
     72  CA       -12.8890  -13.6070   -1.7630 C.3   173  LEU173      0.1561
     73  C        -13.0240  -15.1010   -2.0700 C.2   173  LEU173      0.2260
     74  O        -12.1250  -15.7060   -2.6480 O.2   173  LEU173     -0.2867
     75  CB       -12.3420  -13.3470   -0.3470 C.3   173  LEU173      0.0270
     76  CG       -10.9870  -13.9110    0.0980 C.3   173  LEU173      0.0019
     77  CD1       -9.8840  -13.6100   -0.9160 C.3   173  LEU173      0.0001
     78  CD2      -10.6220  -13.3510    1.4470 C.3   173  LEU173      0.0001
     79  N         -3.6770  -14.1420   -4.5070 N.3   219  THR219     -0.1203
     80  CA        -4.7530  -13.2200   -4.1440 C.3   219  THR219      0.1994
     81  C         -4.1830  -11.9530   -3.4750 C.2   219  THR219      0.2617
     82  O         -4.6350  -10.8520   -3.7640 O.2   219  THR219     -0.2717
     83  CB        -5.8320  -13.9050   -3.2460 C.3   219  THR219      0.1784
     84  OG1       -6.3360  -15.0790   -3.9130 O.3   219  THR219     -0.2211
     85  CG2       -6.9910  -12.9710   -2.9980 C.3   219  THR219      0.0376
     86  N         -3.2150  -12.1120   -2.5770 N.am  220  ALA220     -0.1979
     87  CA        -2.5900  -10.9620   -1.8960 C.3   220  ALA220      0.1597
     88  C         -1.9000  -10.0490   -2.9240 C.2   220  ALA220      0.2287
     89  O         -1.9690   -8.8110   -2.8240 O.2   220  ALA220     -0.2864
     90  CB        -1.6090  -11.4160   -0.8170 C.3   220  ALA220      0.0319
     91  N         -4.6700   -7.9320   -4.7890 N.3   223  LEU223     -0.1231
     92  CA        -5.3020   -6.9290   -3.9570 C.3   223  LEU223      0.1693
     93  C         -4.3030   -5.8440   -3.5430 C.2   223  LEU223      0.2591
     94  O         -4.6410   -4.6590   -3.5080 O.2   223  LEU223     -0.2718
     95  CB        -5.9820   -7.6010   -2.7550 C.3   223  LEU223      0.0284
     96  CG        -6.9360   -8.7730   -3.0840 C.3   223  LEU223      0.0019
     97  CD1       -7.6050   -9.3410   -1.8200 C.3   223  LEU223      0.0001
     98  CD2       -8.0060   -8.3830   -4.1350 C.3   223  LEU223      0.0001
     99  N         -3.0700   -6.2630   -3.2490 N.am  224  ALA224     -0.1980
    100  CA        -1.9920   -5.3240   -2.9120 C.3   224  ALA224      0.1597
    101  C         -1.7090   -4.3250   -4.0160 C.2   224  ALA224      0.2287
    102  O         -1.6590   -3.1120   -3.7620 O.2   224  ALA224     -0.2864
    103  CB        -0.7080   -6.0760   -2.5650 C.3   224  ALA224      0.0319
    104  N         -8.6310    2.2760    7.2340 N.3   375  ILE375     -0.1245
    105  CA        -7.4980    1.4630    6.7500 C.3   375  ILE375      0.1561
    106  C         -6.5130    2.2290    5.8520 C.2   375  ILE375      0.2260
    107  O         -5.3280    2.3100    6.1730 O.2   375  ILE375     -0.2867
    108  CB        -7.9360    0.1130    6.0800 C.3   375  ILE375      0.0252
    109  CG1       -8.9840   -0.6410    6.9340 C.3   375  ILE375      0.0019
    110  CG2       -6.7170   -0.7820    5.7730 C.3   375  ILE375      0.0019
    111  CD1       -8.5950   -0.8700    8.4240 C.3   375  ILE375      0.0001
@<TRIPOS>BOND
     1    91    92    1
     2    79    80    1
     3    40    38    1
     4    80    81    1
     5    80    83    1
     6    98    96    1
     7    38    39    1
     8    38    35    1
     9   101   102    2
    10   101   100    1
    11    92    93    1
    12    92    95    1
    13    84    83    1
    14    82    81    2
    15    26    27    1
    16    93    94    2
    17    93    99   am
    18    81    86   am
    19    99   100    1
    20    83    85    1
    21    96    95    1
    22    96    97    1
    23    34    35    1
    24    34    28   am
    25    88    89    2
    26    88    87    1
    27   100   103    1
    28    35    36    1
    29    74    73    2
    30    32    31    1
    31    86    87    1
    32    27    30    1
    33    27    28    1
    34    30    31    1
    35    36    37    2
    36    31    33    1
    37    73    72    1
    38    28    29    2
    39    71    72    1
    40    87    90    1
    41    72    75    1
    42    77    76    1
    43    41    42    1
    44    75    76    1
    45    76    78    1
    46    46    48    1
    47    46    45    1
    48    66    65    2
    49    56    55    2
    50    42    45    1
    51    42    43    1
    52    45    47    1
    53    57    55   am
    54    55    54    1
    55    49    43   am
    56    49    50    1
    57    65    64    1
    58    15    14    1
    59    43    44    2
    60    53    54    1
    61    53    50    1
    62    14    13    1
    63    64    63    1
    64    64    67    1
    65    50    51    1
    66    51    52    2
    67    69    67    1
    68    67    68    1
    69    68    70    1
    70     8     9    1
    71    13    12    1
    72     9    12    1
    73     9    10    1
    74     7     5    1
    75    10    11    2
    76    61    60    2
    77    22    24   ar
    78    22    21   ar
    79     5     6    1
    80     5     2    1
    81     4     3    2
    82    24    25   ar
    83     3     2    1
    84   110   108    1
    85   106   107    2
    86   106   105    1
    87   108   105    1
    88   108   109    1
    89    16    17    1
    90    60    59    1
    91    21    20    1
    92    21    23   ar
    93    20    17    1
    94     2     1    1
    95    25    23   ar
    96   105   104    1
    97   109   111    1
    98    17    18    1
    99    59    58    1
   100    59    62    1
   101    18    19    2
