@<TRIPOS>MOLECULE
tmp/2xfnB01.pdb
 139 135 0 0 0
SMALL
GASTEIGER

@<TRIPOS>ATOM
      1  N          5.4460  118.2410   22.6110 N.3    82  GLU82      -0.1245
      2  CA         5.0780  119.2680   23.5910 C.3    82  GLU82       0.1567
      3  C          3.6240  119.1010   24.0310 C.2    82  GLU82       0.2260
      4  O          2.9480  120.0610   24.3100 O.2    82  GLU82      -0.2867
      5  CB         5.3590  120.6960   23.0680 C.3    82  GLU82       0.0388
      6  CG         5.6050  121.6590   24.2640 C.3    82  GLU82       0.1160
      7  CD         5.7840  123.1050   23.8680 C.2    82  GLU82       0.3649
      8  OE1        5.1940  123.5260   22.8420 O.co2  82  GLU82      -0.2457
      9  OE2        6.5260  123.8150   24.5780 O.co2  82  GLU82      -0.2457
     10  N          5.4480  121.2980   30.5770 N.3    86  LEU86      -0.1245
     11  CA         6.8390  121.6590   30.6600 C.3    86  LEU86       0.1561
     12  C          7.1890  121.7720   32.1370 C.2    86  LEU86       0.2260
     13  O          6.2940  121.8980   32.9730 O.2    86  LEU86      -0.2867
     14  CB         7.0480  123.0470   30.0220 C.3    86  LEU86       0.0270
     15  CG         6.9010  123.1300   28.4940 C.3    86  LEU86       0.0019
     16  CD1        5.4550  122.9940   28.0810 C.3    86  LEU86       0.0001
     17  CD2        7.4260  124.5290   28.0670 C.3    86  LEU86       0.0001
     18  N          4.4600  129.3340   26.9860 N.3   100  PRO100     -0.2102
     19  CA         5.8860  129.3900   26.6590 C.3   100  PRO100      0.1504
     20  C          6.8110  129.9140   27.7690 C.2   100  PRO100      0.2576
     21  O          8.0080  129.6370   27.7160 O.2   100  PRO100     -0.2718
     22  CB         5.9320  130.3320   25.4380 C.3   100  PRO100      0.0282
     23  CG         4.5480  131.0600   25.4070 C.3   100  PRO100      0.0208
     24  CD         3.7550  130.5780   26.5850 C.3   100  PRO100      0.0893
     25  N          6.2770  130.6840   28.7240 N.am  101  PHE101     -0.1963
     26  CA         7.0690  131.1850   29.8530 C.3   101  PHE101      0.1756
     27  C          6.5690  130.6160   31.1580 C.2   101  PHE101      0.2461
     28  O          5.3750  130.4600   31.3360 O.2   101  PHE101     -0.2730
     29  CB         7.0420  132.7070   29.9300 C.3   101  PHE101      0.0574
     30  CG         7.8090  133.3640   28.8430 C.ar  101  PHE101     -0.0200
     31  CD1        7.1590  134.0880   27.8650 C.ar  101  PHE101     -0.0042
     32  CD2        9.1810  133.2360   28.7830 C.ar  101  PHE101     -0.0042
     33  CE1        7.8720  134.6850   26.8510 C.ar  101  PHE101     -0.0003
     34  CE2        9.8880  133.8160   27.7610 C.ar  101  PHE101     -0.0003
     35  CZ         9.2370  134.5470   26.8000 C.ar  101  PHE101     -0.0000
     36  N          7.4990  130.2710   32.0950 N.am  102  PRO102     -0.2727
     37  CA         6.9610  129.7310   33.3530 C.3   102  PRO102      0.1402
     38  C          6.1560  130.7730   34.1200 C.2   102  PRO102      0.2269
     39  O          6.5040  131.9340   34.0770 O.2   102  PRO102     -0.2865
     40  CB         8.2160  129.3390   34.1600 C.3   102  PRO102      0.0296
     41  CG         9.3270  129.3330   33.2080 C.3   102  PRO102      0.0237
     42  CD         8.9710  130.2410   32.0660 C.3   102  PRO102      0.0939
     43  N         10.8710  140.7200   29.4040 N.3   117  TRP117     -0.1241
     44  CA        10.6250  140.2300   28.0530 C.3   117  TRP117      0.1605
     45  C         10.1110  141.2970   27.1340 C.2   117  TRP117      0.2264
     46  O         10.5250  141.3880   25.9810 O.2   117  TRP117     -0.2867
     47  CB         9.6140  139.0970   28.0990 C.3   117  TRP117      0.0550
     48  CG        10.0620  137.9160   28.9170 C.ar  117  TRP117      0.0003
     49  CD1        9.5920  137.5520   30.1490 C.ar  117  TRP117      0.0946
     50  CD2       11.0730  136.9650   28.5740 C.ar  117  TRP117      0.0152
     51  NE1       10.2570  136.4280   30.6030 N.ar  117  TRP117     -0.2442
     52  CE2       11.1580  136.0360   29.6440 C.ar  117  TRP117      0.0810
     53  CE3       11.8810  136.7710   27.4350 C.ar  117  TRP117      0.0012
     54  CZ2       12.0280  134.9220   29.6180 C.ar  117  TRP117      0.0191
     55  CZ3       12.7410  135.6540   27.4020 C.ar  117  TRP117      0.0001
     56  CH2       12.8110  134.7510   28.4880 C.ar  117  TRP117      0.0015
     57  N         16.3480  133.9760   35.3110 N.3   162  LEU162     -0.1245
     58  CA        15.7180  133.4140   34.1000 C.3   162  LEU162      0.1561
     59  C         16.2520  134.0960   32.8270 C.2   162  LEU162      0.2260
     60  O         16.4680  133.4360   31.7920 O.2   162  LEU162     -0.2867
     61  CB        14.1920  133.5010   34.1970 C.3   162  LEU162      0.0270
     62  CG        13.4600  132.7950   33.0520 C.3   162  LEU162      0.0019
     63  CD1       13.6350  131.2780   33.1300 C.3   162  LEU162      0.0001
     64  CD2       11.9530  133.1440   33.1340 C.3   162  LEU162      0.0001
     65  N         19.5410  132.5080   31.9960 N.3   165  LEU165     -0.1231
     66  CA        19.3410  131.1990   31.3630 C.3   165  LEU165      0.1693
     67  C         18.9850  131.4190   29.8830 C.2   165  LEU165      0.2592
     68  O         19.5200  130.7070   28.9950 O.2   165  LEU165     -0.2718
     69  CB        18.2160  130.4370   32.0890 C.3   165  LEU165      0.0284
     70  CG        18.3050  128.9430   31.7850 C.3   165  LEU165      0.0019
     71  CD1       17.6940  128.1940   32.9570 C.3   165  LEU165      0.0001
     72  CD2       17.5270  128.6800   30.5060 C.3   165  LEU165      0.0001
     73  N         18.0850  132.3790   29.6400 N.am  166  PHE166     -0.1976
     74  CA        17.6390  132.6780   28.2770 C.3   166  PHE166      0.1639
     75  C         18.8350  133.0500   27.4010 C.2   166  PHE166      0.2290
     76  O         18.9780  132.5100   26.2760 O.2   166  PHE166     -0.2864
     77  CB        16.6140  133.8410   28.3500 C.3   166  PHE166      0.0560
     78  CG        16.1810  134.3770   27.0100 C.ar  166  PHE166     -0.0200
     79  CD1       15.3170  133.6670   26.2390 C.ar  166  PHE166     -0.0042
     80  CD2       16.5510  135.6610   26.6020 C.ar  166  PHE166     -0.0042
     81  CE1       14.8830  134.1980   24.9910 C.ar  166  PHE166     -0.0003
     82  CE2       16.0970  136.1860   25.3560 C.ar  166  PHE166     -0.0003
     83  CZ        15.2920  135.4230   24.5890 C.ar  166  PHE166     -0.0000
     84  N         21.1770  129.9720   26.7640 N.3   169  LEU169     -0.1245
     85  CA        20.5910  128.9410   25.8820 C.3   169  LEU169      0.1561
     86  C         20.5010  129.4500   24.4400 C.2   169  LEU169      0.2260
     87  O         20.7080  128.7050   23.5000 O.2   169  LEU169     -0.2867
     88  CB        19.1870  128.6640   26.3860 C.3   169  LEU169      0.0270
     89  CG        18.3490  127.6900   25.5680 C.3   169  LEU169      0.0019
     90  CD1       19.0490  126.3000   25.3150 C.3   169  LEU169      0.0001
     91  CD2       16.9750  127.5180   26.2950 C.3   169  LEU169      0.0001
     92  N         12.0310  131.3600   21.6330 N.3   197  ILE197     -0.1231
     93  CA        12.0620  130.4070   22.7860 C.3   197  ILE197      0.1692
     94  C         11.0310  129.2890   22.6900 C.2   197  ILE197      0.2593
     95  O         11.0780  128.3300   23.4700 O.2   197  ILE197     -0.2718
     96  CB        11.8500  131.1320   24.1890 C.3   197  ILE197      0.0266
     97  CG1       10.4480  131.6980   24.3440 C.3   197  ILE197      0.0019
     98  CG2       12.7220  132.2840   24.2990 C.3   197  ILE197      0.0020
     99  CD1        9.4420  130.8480   24.8540 C.3   197  ILE197      0.0001
    100  N         10.0980  129.4170   21.7590 N.am  198  SER198     -0.1938
    101  CA         8.9490  128.4990   21.7270 C.3   198  SER198      0.2055
    102  C          9.2650  127.2180   20.9700 C.2   198  SER198      0.2643
    103  O         10.0330  127.2260   19.9910 O.2   198  SER198     -0.2714
    104  CB         7.6990  129.1660   21.1160 C.3   198  SER198      0.2130
    105  OG         7.1830  130.1650   22.0160 O.3   198  SER198     -0.2179
    106  N          8.6340  126.1420   21.4300 N.am  199  THR199     -0.1950
    107  CA         8.6200  124.8650   20.6900 C.3   199  THR199      0.1897
    108  C          7.4050  124.9680   19.7560 C.2   199  THR199      0.2313
    109  O          7.5540  125.3060   18.5570 O.2   199  THR199     -0.2863
    110  CB         8.6040  123.6900   21.6720 C.3   199  THR199      0.1794
    111  OG1        9.8110  123.7830   22.4450 O.3   199  THR199     -0.2208
    112  CG2        8.5350  122.2970   20.9400 C.3   199  THR199      0.0378
    113  N         10.4250  118.6490   28.2930 N.3   312  THR312     -0.1218
    114  CA        11.0700  119.9730   28.3380 C.3   312  THR312      0.1862
    115  C         11.3210  120.3680   29.7770 C.2   312  THR312      0.2287
    116  O         10.3850  120.4130   30.5930 O.2   312  THR312     -0.2866
    117  CB        10.1430  121.0420   27.7390 C.3   312  THR312      0.1770
    118  OG1        9.8610  120.6770   26.3780 O.3   312  THR312     -0.2211
    119  CG2       10.8110  122.4300   27.7550 C.3   312  THR312      0.0375
    120  N         13.4350  123.4210   32.1070 N.3   314  ILE314     -0.1245
    121  CA        14.2520  124.6450   32.1790 C.3   314  ILE314      0.1561
    122  C         14.7950  124.5880   33.5940 C.2   314  ILE314      0.2260
    123  O         13.9940  124.6360   34.5530 O.2   314  ILE314     -0.2867
    124  CB        13.3310  125.8700   32.0150 C.3   314  ILE314      0.0252
    125  CG1       12.7090  125.8970   30.6220 C.3   314  ILE314      0.0019
    126  CG2       14.1120  127.1650   32.2880 C.3   314  ILE314      0.0019
    127  CD1       11.4710  126.8480   30.5550 C.3   314  ILE314      0.0001
    128  N         18.7400  123.1120   29.9910 N.3   324  TYR324     -0.1241
    129  CA        17.5630  123.0040   29.1310 C.3   324  TYR324      0.1605
    130  C         17.5480  121.6670   28.4420 C.2   324  TYR324      0.2264
    131  O         18.5880  121.1930   27.9580 O.2   324  TYR324     -0.2867
    132  CB        17.5830  124.0960   28.0120 C.3   324  TYR324      0.0534
    133  CG        16.2690  124.2230   27.2580 C.ar  324  TYR324     -0.0201
    134  CD1       15.1290  124.7240   27.9040 C.ar  324  TYR324     -0.0009
    135  CD2       16.1790  123.8820   25.9240 C.ar  324  TYR324     -0.0009
    136  CE1       13.9250  124.9460   27.1990 C.ar  324  TYR324      0.0417
    137  CE2       14.9700  124.0490   25.2290 C.ar  324  TYR324      0.0417
    138  CZ        13.8580  124.5740   25.8690 C.ar  324  TYR324      0.1957
    139  OH        12.6380  124.7850   25.1940 O.3   324  TYR324     -0.2866
@<TRIPOS>BOND
     1   109   108    2
     2   108   107    1
     3   103   102    2
     4   107   106    1
     5   107   110    1
     6   112   110    1
     7   102   106   am
     8   102   101    1
     9   104   101    1
    10   104   105    1
    11    92    93    1
    12   110   111    1
    13   101   100    1
    14   100    94   am
    15     1     2    1
    16    94    93    1
    17    94    95    2
    18    93    96    1
    19     8     7   ar
    20     5     2    1
    21     5     6    1
    22    87    86    2
    23     2     3    1
    24     7     6    1
    25     7     9   ar
    26     3     4    2
    27    96    98    1
    28    96    97    1
    29    97    99    1
    30    86    85    1
    31    83    81   ar
    32    83    82   ar
    33    81    79   ar
    34   139   138    1
    35   137   138   ar
    36   137   135   ar
    37    90    89    1
    38    82    80   ar
    39    23    22    1
    40    23    24    1
    41    22    19    1
    42    89    91    1
    43    89    88    1
    44   138   136   ar
    45    85    88    1
    46    85    84    1
    47   135   133   ar
    48    46    45    2
    49    79    78   ar
    50    76    75    2
    51   118   117    1
    52    24    18    1
    53    80    78   ar
    54    19    18    1
    55    19    20    1
    56    35    33   ar
    57    35    34   ar
    58    33    31   ar
    59    78    77    1
    60    45    44    1
    61   136   134   ar
    62   133   134   ar
    63   133   132    1
    64    75    74    1
    65    55    53   ar
    66    55    56   ar
    67    53    50   ar
    68    21    20    2
    69   117   119    1
    70   117   114    1
    71    34    32   ar
    72    20    25   am
    73    31    30   ar
    74   131   130    2
    75   132   129    1
    76    44    47    1
    77    44    43    1
    78    17    15    1
    79    16    15    1
    80    47    48    1
    81    74    77    1
    82    74    73    1
    83   113   114    1
    84   114   115    1
    85   130   129    1
    86    56    54   ar
    87    15    14    1
    88    50    48   ar
    89    50    52   ar
    90    25    26    1
    91    32    30   ar
    92    30    29    1
    93    48    49   ar
    94    68    67    2
    95   129   128    1
    96    54    52   ar
    97    73    67   am
    98    52    51   ar
    99   115   116    2
   100    26    29    1
   101    26    27    1
   102    67    66    1
   103    14    11    1
   104    49    51   ar
   105    72    70    1
   106   127   125    1
   107    10    11    1
   108   125   124    1
   109    11    12    1
   110    27    28    2
   111    27    36   am
   112    66    65    1
   113    66    69    1
   114    70    69    1
   115    70    71    1
   116    60    59    2
   117   124   121    1
   118   124   126    1
   119    42    36    1
   120    42    41    1
   121    36    37    1
   122   120   121    1
   123    12    13    2
   124   121   122    1
   125    59    58    1
   126    62    63    1
   127    62    64    1
   128    62    61    1
   129    41    40    1
   130    37    38    1
   131    37    40    1
   132   122   123    2
   133    39    38    2
   134    58    61    1
   135    58    57    1
