@<TRIPOS>MOLECULE
tmp/2xfpB01.pdb
 106 102 0 0 0
SMALL
GASTEIGER

@<TRIPOS>ATOM
      1  N         16.6770  121.6860   14.9190 N.3    58  TYR58      -0.1241
      2  CA        15.3210  122.1960   14.9670 C.3    58  TYR58       0.1605
      3  C         15.0630  123.2000   13.8310 C.2    58  TYR58       0.2264
      4  O         15.9300  124.0500   13.5200 O.2    58  TYR58      -0.2867
      5  CB        15.0290  122.8980   16.3100 C.3    58  TYR58       0.0534
      6  CG        15.2170  121.9420   17.4520 C.ar   58  TYR58      -0.0201
      7  CD1       16.2530  122.1030   18.3050 C.ar   58  TYR58      -0.0009
      8  CD2       14.3500  120.8280   17.5930 C.ar   58  TYR58      -0.0009
      9  CE1       16.4910  121.1270   19.2950 C.ar   58  TYR58       0.0417
     10  CE2       14.5680  119.8320   18.5670 C.ar   58  TYR58       0.0417
     11  CZ        15.6470  120.0370   19.4150 C.ar   58  TYR58       0.1957
     12  OH        16.0240  119.1680   20.4140 O.3    58  TYR58      -0.2866
     13  N         21.1300  130.0350   26.7790 N.3   169  LEU169     -0.1231
     14  CA        20.5660  129.0160   25.8480 C.3   169  LEU169      0.1693
     15  C         20.4560  129.5360   24.4180 C.2   169  LEU169      0.2592
     16  O         20.6670  128.7770   23.4850 O.2   169  LEU169     -0.2718
     17  CB        19.1610  128.6660   26.3240 C.3   169  LEU169      0.0284
     18  CG        18.2780  127.8250   25.4410 C.3   169  LEU169      0.0019
     19  CD1       18.9660  126.4400   25.3160 C.3   169  LEU169      0.0001
     20  CD2       16.9480  127.6320   26.1660 C.3   169  LEU169      0.0001
     21  N         20.1740  130.8050   24.2390 N.am  170  CYS170     -0.1970
     22  CA        19.9920  131.2910   22.8330 C.3   170  CYS170      0.1712
     23  C         21.2910  131.4010   22.1000 C.2   170  CYS170      0.2296
     24  O         21.3220  131.2390   20.8690 O.2   170  CYS170     -0.2864
     25  CB        19.3660  132.7200   22.8610 C.3   170  CYS170      0.0983
     26  SG        17.5820  132.6860   23.2140 S.3   170  CYS170     -0.0798
     27  N         11.5490  133.0430   19.4260 N.3   196  ILE196     -0.1231
     28  CA        12.8600  132.3170   19.4930 C.3   196  ILE196      0.1692
     29  C         12.8490  131.2460   20.5590 C.2   196  ILE196      0.2591
     30  O         13.5410  130.2190   20.4150 O.2   196  ILE196     -0.2718
     31  CB        14.0760  133.3140   19.7260 C.3   196  ILE196      0.0266
     32  CG1       15.4240  132.7090   19.2920 C.3   196  ILE196      0.0019
     33  CG2       14.0970  133.9110   21.1540 C.3   196  ILE196      0.0020
     34  CD1       16.6830  133.7370   19.4870 C.3   196  ILE196      0.0001
     35  N         12.0600  131.4460   21.6180 N.am  197  ILE197     -0.1980
     36  CA        12.1690  130.5020   22.7560 C.3   197  ILE197      0.1595
     37  C         11.1740  129.3650   22.6840 C.2   197  ILE197      0.2287
     38  O         11.2700  128.3740   23.4140 O.2   197  ILE197     -0.2864
     39  CB        12.0120  131.3170   24.1120 C.3   197  ILE197      0.0276
     40  CG1       12.8530  130.6520   25.2100 C.3   197  ILE197      0.0022
     41  CG2       10.4960  131.4730   24.5040 C.3   197  ILE197      0.0022
     42  CD1       14.4190  130.4780   25.0420 C.3   197  ILE197      0.0001
     43  N         11.8650  125.9290   17.9280 N.3   204  GLN204     -0.1245
     44  CA        12.0740  124.4900   18.2050 C.3   204  GLN204      0.1566
     45  C         10.9400  123.5860   17.8050 C.2   204  GLN204      0.2260
     46  O         10.8440  122.4710   18.3520 O.2   204  GLN204     -0.2867
     47  CB        12.4350  124.2570   19.6760 C.3   204  GLN204      0.0367
     48  CG        13.8840  124.7610   19.9720 C.3   204  GLN204      0.0905
     49  CD        14.0350  126.3140   19.7940 C.2   204  GLN204      0.2608
     50  OE1       14.8060  126.7630   18.9360 O.2   204  GLN204     -0.2717
     51  NE2       13.3830  127.1090   20.6730 N.am  204  GLN204     -0.0878
     52  N         18.8370  123.2140   29.9640 N.3   324  TYR324     -0.1241
     53  CA        17.6140  123.1410   29.1490 C.3   324  TYR324      0.1605
     54  C         17.5790  121.7710   28.4410 C.2   324  TYR324      0.2264
     55  O         18.6020  121.2740   27.9440 O.2   324  TYR324     -0.2867
     56  CB        17.6000  124.2250   28.0130 C.3   324  TYR324      0.0534
     57  CG        16.2760  124.3200   27.2960 C.ar  324  TYR324     -0.0201
     58  CD1       15.1470  124.8290   27.9820 C.ar  324  TYR324     -0.0009
     59  CD2       16.1570  124.0190   25.9690 C.ar  324  TYR324     -0.0009
     60  CE1       13.8990  125.0550   27.3520 C.ar  324  TYR324      0.0417
     61  CE2       14.8800  124.2490   25.2940 C.ar  324  TYR324      0.0417
     62  CZ        13.7940  124.7750   25.9990 C.ar  324  TYR324      0.1957
     63  OH        12.5580  125.0090   25.3860 O.3   324  TYR324     -0.2866
     64  N         14.8530  119.0970   25.8530 N.3   326  LEU326     -0.1245
     65  CA        13.6400  118.7900   25.0390 C.3   326  LEU326      0.1561
     66  C         13.5430  117.2720   24.8960 C.2   326  LEU326      0.2260
     67  O         14.5610  116.5610   24.8610 O.2   326  LEU326     -0.2867
     68  CB        13.7580  119.3830   23.6320 C.3   326  LEU326      0.0270
     69  CG        13.7790  120.9310   23.6330 C.3   326  LEU326      0.0019
     70  CD1       14.3380  121.4560   22.2290 C.3   326  LEU326      0.0001
     71  CD2       12.3870  121.5190   24.0060 C.3   326  LEU326      0.0001
     72  N         21.4530  120.5030   26.8020 N.3   341  PHE341     -0.1241
     73  CA        22.6620  121.2540   26.4160 C.3   341  PHE341      0.1605
     74  C         23.3900  121.6020   27.6760 C.2   341  PHE341      0.2264
     75  O         22.7490  122.0360   28.6680 O.2   341  PHE341     -0.2867
     76  CB        22.2850  122.6110   25.8170 C.3   341  PHE341      0.0534
     77  CG        21.7040  122.5380   24.4500 C.ar  341  PHE341     -0.0203
     78  CD1       20.4670  123.0510   24.1970 C.ar  341  PHE341     -0.0042
     79  CD2       22.4340  121.9970   23.4280 C.ar  341  PHE341     -0.0042
     80  CE1       19.9400  123.0010   22.8810 C.ar  341  PHE341     -0.0003
     81  CE2       21.9100  121.9110   22.1270 C.ar  341  PHE341     -0.0003
     82  CZ        20.6700  122.3690   21.8860 C.ar  341  PHE341     -0.0000
     83  N         26.2810  127.5250   18.9980 N.3   396  TYR396     -0.1241
     84  CA        25.6990  127.3410   17.6530 C.3   396  TYR396      0.1605
     85  C         26.3360  128.2780   16.6660 C.2   396  TYR396      0.2264
     86  O         26.4160  127.9670   15.4420 O.2   396  TYR396     -0.2867
     87  CB        24.1950  127.6860   17.6790 C.3   396  TYR396      0.0534
     88  CG        23.4560  127.3090   18.9440 C.ar  396  TYR396     -0.0201
     89  CD1       23.5920  126.0510   19.4680 C.ar  396  TYR396     -0.0009
     90  CD2       22.7220  128.2730   19.6360 C.ar  396  TYR396     -0.0009
     91  CE1       22.8570  125.6630   20.5990 C.ar  396  TYR396      0.0417
     92  CE2       21.9490  127.9430   20.7590 C.ar  396  TYR396      0.0417
     93  CZ        22.1000  126.6620   21.3150 C.ar  396  TYR396      0.1957
     94  OH        21.4160  126.3150   22.4520 O.3   396  TYR396     -0.2866
     95  N         21.1610  130.1170   12.5270 N.3   433  TYR433     -0.1241
     96  CA        20.3980  128.8890   12.3140 C.3   433  TYR433      0.1605
     97  C         20.5960  128.3050   10.8960 C.2   433  TYR433      0.2264
     98  O         21.1720  128.9750   10.0040 O.2   433  TYR433     -0.2867
     99  CB        18.8950  129.2220   12.4490 C.3   433  TYR433      0.0534
    100  CG        18.5320  129.5890   13.8720 C.ar  433  TYR433     -0.0201
    101  CD1       18.8370  130.8620   14.4010 C.ar  433  TYR433     -0.0009
    102  CD2       17.7520  128.7670   14.6110 C.ar  433  TYR433     -0.0009
    103  CE1       18.4880  131.1860   15.7200 C.ar  433  TYR433      0.0417
    104  CE2       17.4060  129.0790   15.9450 C.ar  433  TYR433      0.0417
    105  CZ        17.7960  130.3250   16.4660 C.ar  433  TYR433      0.1957
    106  OH        17.4060  130.6300   17.7530 O.3   433  TYR433     -0.2866
@<TRIPOS>BOND
     1    98    97    2
     2    97    96    1
     3    96    99    1
     4    96    95    1
     5    99   100    1
     6     4     3    2
     7     3     2    1
     8   100   101   ar
     9   100   102   ar
    10   101   103   ar
    11   102   104   ar
    12     1     2    1
    13     2     5    1
    14    86    85    2
    15   103   105   ar
    16   104   105   ar
    17     5     6    1
    18   105   106    1
    19    85    84    1
    20     6     8   ar
    21     6     7   ar
    22     8    10   ar
    23    84    87    1
    24    84    83    1
    25    87    88    1
    26    45    44    1
    27    45    46    2
    28    43    44    1
    29    44    47    1
    30     7     9   ar
    31    10    11   ar
    32    50    49    2
    33    88    89   ar
    34    88    90   ar
    35    32    34    1
    36    32    31    1
    37     9    11   ar
    38    11    12    1
    39    27    28    1
    40    89    91   ar
    41    28    31    1
    42    28    29    1
    43    90    92   ar
    44    47    48    1
    45    31    33    1
    46    49    48    1
    47    49    51   am
    48    30    29    2
    49    29    35   am
    50    91    93   ar
    51    92    93   ar
    52    24    23    2
    53    93    94    1
    54    35    36    1
    55    82    81   ar
    56    82    80   ar
    57    23    22    1
    58    81    79   ar
    59    70    69    1
    60    37    36    1
    61    37    38    2
    62    36    39    1
    63    22    25    1
    64    22    21    1
    65    25    26    1
    66    80    78   ar
    67    79    77   ar
    68    16    15    2
    69    68    69    1
    70    68    65    1
    71    69    71    1
    72    39    41    1
    73    39    40    1
    74    78    77   ar
    75    21    15   am
    76    15    14    1
    77    77    76    1
    78    67    66    2
    79    66    65    1
    80    65    64    1
    81    42    40    1
    82    61    59   ar
    83    61    62   ar
    84    19    18    1
    85    63    62    1
    86    18    20    1
    87    18    17    1
    88    76    73    1
    89    14    17    1
    90    14    13    1
    91    59    57   ar
    92    62    60   ar
    93    73    72    1
    94    73    74    1
    95    57    58   ar
    96    57    56    1
    97    60    58   ar
    98    74    75    2
    99    55    54    2
   100    56    53    1
   101    54    53    1
   102    53    52    1
