@<TRIPOS>MOLECULE
tmp/2xfuA01.pdb
 128 124 0 0 0
SMALL
GASTEIGER

@<TRIPOS>ATOM
      1  N         56.9530  148.9700   17.8720 N.3    56  GLY56      -0.1210
      2  CA        57.5290  149.0720   19.2140 C.3    56  GLY56       0.1956
      3  C         58.8700  149.7690   19.1960 C.2    56  GLY56       0.2613
      4  O         59.6730  149.5830   18.2700 O.2    56  GLY56      -0.2717
      5  N         59.1160  150.5540   20.2400 N.am   57  SER57      -0.1938
      6  CA        60.1670  151.5630   20.2480 C.3    57  SER57       0.2055
      7  C         60.7240  151.8520   21.6520 C.2    57  SER57       0.2643
      8  O         61.9390  151.8800   21.8350 O.2    57  SER57      -0.2714
      9  CB        59.6100  152.8660   19.6610 C.3    57  SER57       0.2130
     10  OG        60.6630  153.7650   19.3600 O.3    57  SER57      -0.2179
     11  N         59.8420  152.0850   22.6230 N.am   58  TYR58      -0.1973
     12  CA        60.2410  152.5620   23.9520 C.3    58  TYR58       0.1639
     13  C         60.6130  151.4460   24.8930 C.2    58  TYR58       0.2290
     14  O         59.9450  150.4160   24.9450 O.2    58  TYR58      -0.2864
     15  CB        59.1480  153.4600   24.5850 C.3    58  TYR58       0.0560
     16  CG        58.7880  154.6190   23.6830 C.ar   58  TYR58      -0.0198
     17  CD1       57.6510  154.5710   22.8850 C.ar   58  TYR58      -0.0009
     18  CD2       59.6180  155.7300   23.5830 C.ar   58  TYR58      -0.0009
     19  CE1       57.3360  155.6040   22.0140 C.ar   58  TYR58       0.0417
     20  CE2       59.3170  156.7760   22.7170 C.ar   58  TYR58       0.0417
     21  CZ        58.1750  156.6970   21.9290 C.ar   58  TYR58       0.1957
     22  OH        57.8620  157.7230   21.0680 O.3    58  TYR58      -0.2866
     23  N         45.3360  154.5150   25.6760 N.3   169  LEU169     -0.1231
     24  CA        46.7680  154.6200   25.4190 C.3   169  LEU169      0.1693
     25  C         47.5430  153.3440   25.7930 C.2   169  LEU169      0.2592
     26  O         48.4360  152.9270   25.0490 O.2   169  LEU169     -0.2718
     27  CB        47.3730  155.8570   26.1060 C.3   169  LEU169      0.0284
     28  CG        48.8830  156.0510   25.8730 C.3   169  LEU169      0.0019
     29  CD1       49.1920  156.2670   24.3690 C.3   169  LEU169      0.0001
     30  CD2       49.4700  157.1920   26.7040 C.3   169  LEU169      0.0001
     31  N         47.2030  152.7290   26.9240 N.am  170  CYS170     -0.1970
     32  CA        47.9020  151.5310   27.3760 C.3   170  CYS170      0.1712
     33  C         47.6490  150.3030   26.5210 C.2   170  CYS170      0.2296
     34  O         48.5680  149.5390   26.2970 O.2   170  CYS170     -0.2864
     35  CB        47.5560  151.2040   28.8290 C.3   170  CYS170      0.0983
     36  SG        48.2130  152.4210   29.9660 S.3   170  CYS170     -0.0798
     37  N         47.1680  143.6610   33.4730 N.3   186  TYR186     -0.1241
     38  CA        48.1160  144.1630   32.5010 C.3   186  TYR186      0.1605
     39  C         48.9220  145.3240   33.0810 C.2   186  TYR186      0.2264
     40  O         50.1400  145.4380   32.8750 O.2   186  TYR186     -0.2867
     41  CB        47.3610  144.6000   31.2540 C.3   186  TYR186      0.0534
     42  CG        48.2550  144.9870   30.1040 C.ar  186  TYR186     -0.0201
     43  CD1       48.6480  144.0330   29.1510 C.ar  186  TYR186     -0.0009
     44  CD2       48.6830  146.3050   29.9450 C.ar  186  TYR186     -0.0009
     45  CE1       49.4540  144.3860   28.0930 C.ar  186  TYR186      0.0417
     46  CE2       49.4990  146.6590   28.9000 C.ar  186  TYR186      0.0417
     47  CZ        49.8780  145.6960   27.9790 C.ar  186  TYR186      0.1957
     48  OH        50.6820  146.0480   26.9390 O.3   186  TYR186     -0.2866
     49  N         53.9420  152.3410   34.2610 N.3   196  ILE196     -0.1245
     50  CA        53.4690  152.1120   32.8980 C.3   196  ILE196      0.1561
     51  C         53.3740  153.4370   32.1160 C.2   196  ILE196      0.2260
     52  O         53.7470  153.4930   30.9380 O.2   196  ILE196     -0.2867
     53  CB        52.1560  151.2490   32.8660 C.3   196  ILE196      0.0252
     54  CG1       51.9590  150.5670   31.5140 C.3   196  ILE196      0.0019
     55  CG2       50.9100  152.0540   33.2790 C.3   196  ILE196      0.0019
     56  CD1       50.7940  149.5490   31.5100 C.3   196  ILE196      0.0001
     57  N         57.9330  153.2760   31.3410 N.3   203  GLY203     -0.1210
     58  CA        58.0340  152.5580   30.0690 C.3   203  GLY203      0.1956
     59  C         58.4480  153.3930   28.8670 C.2   203  GLY203      0.2611
     60  O         58.8490  152.8450   27.8410 O.2   203  GLY203     -0.2717
     61  N         58.3610  154.7120   28.9890 N.am  204  GLN204     -0.1979
     62  CA        58.6160  155.6150   27.8620 C.3   204  GLN204      0.1601
     63  C         59.9450  156.3620   27.9200 C.2   204  GLN204      0.2287
     64  O         60.1800  157.2950   27.1370 O.2   204  GLN204     -0.2864
     65  CB        57.5020  156.6450   27.7830 C.3   204  GLN204      0.0394
     66  CG        56.2510  156.1160   27.1810 C.3   204  GLN204      0.0908
     67  CD        55.0580  156.5710   27.9480 C.2   204  GLN204      0.2608
     68  OE1       54.6690  157.7530   27.9050 O.2   204  GLN204     -0.2717
     69  NE2       54.4670  155.6450   28.6860 N.am  204  GLN204     -0.0878
     70  N         47.7760  161.2550   22.3270 N.3   324  TYR324     -0.1241
     71  CA        49.0690  161.2730   23.0060 C.3   324  TYR324      0.1605
     72  C         50.2320  161.4020   22.0420 C.2   324  TYR324      0.2264
     73  O         50.3060  160.6860   21.0430 O.2   324  TYR324     -0.2867
     74  CB        49.2500  159.9980   23.8060 C.3   324  TYR324      0.0534
     75  CG        50.3700  160.0430   24.8130 C.ar  324  TYR324     -0.0201
     76  CD1       50.2180  160.7480   26.0140 C.ar  324  TYR324     -0.0009
     77  CD2       51.5580  159.3550   24.6020 C.ar  324  TYR324     -0.0009
     78  CE1       51.2290  160.7890   26.9660 C.ar  324  TYR324      0.0417
     79  CE2       52.5850  159.3850   25.5700 C.ar  324  TYR324      0.0417
     80  CZ        52.3970  160.1100   26.7440 C.ar  324  TYR324      0.1957
     81  OH        53.3730  160.1640   27.7150 O.3   324  TYR324     -0.2866
     82  N         54.7320  162.2610   21.7120 N.3   326  LEU326     -0.1245
     83  CA        56.0550  162.4280   22.3130 C.3   326  LEU326      0.1561
     84  C         57.0120  163.0500   21.2940 C.2   326  LEU326      0.2260
     85  O         56.8320  162.9000   20.0830 O.2   326  LEU326     -0.2867
     86  CB        56.6220  161.0810   22.7840 C.3   326  LEU326      0.0270
     87  CG        56.0530  160.3700   24.0100 C.3   326  LEU326      0.0019
     88  CD1       56.4990  158.9140   24.0060 C.3   326  LEU326      0.0001
     89  CD2       56.4780  161.0580   25.3100 C.3   326  LEU326      0.0001
     90  N         50.0580  158.7400   18.5850 N.3   341  PHE341     -0.1241
     91  CA        49.2430  157.5490   18.3860 C.3   341  PHE341      0.1605
     92  C         47.7820  157.8990   18.0640 C.2   341  PHE341      0.2264
     93  O         47.1370  158.6460   18.7960 O.2   341  PHE341     -0.2867
     94  CB        49.2600  156.6520   19.6240 C.3   341  PHE341      0.0534
     95  CG        50.5830  156.0310   19.9240 C.ar  341  PHE341     -0.0203
     96  CD1       51.2190  156.2850   21.1350 C.ar  341  PHE341     -0.0042
     97  CD2       51.1890  155.1680   19.0190 C.ar  341  PHE341     -0.0042
     98  CE1       52.4530  155.7010   21.4270 C.ar  341  PHE341     -0.0003
     99  CE2       52.4070  154.5800   19.3070 C.ar  341  PHE341     -0.0003
    100  CZ        53.0410  154.8490   20.5070 C.ar  341  PHE341     -0.0000
    101  N         48.9780  147.4050   20.2380 N.3   396  TYR396     -0.1241
    102  CA        50.3200  146.8620   20.5170 C.3   396  TYR396      0.1605
    103  C         50.2730  145.3720   20.7470 C.2   396  TYR396      0.2264
    104  O         51.2200  144.6550   20.4260 O.2   396  TYR396     -0.2867
    105  CB        50.9240  147.4910   21.7670 C.3   396  TYR396      0.0534
    106  CG        50.5810  148.9440   21.9850 C.ar  396  TYR396     -0.0201
    107  CD1       50.8250  149.9100   20.9940 C.ar  396  TYR396     -0.0009
    108  CD2       50.0430  149.3580   23.1930 C.ar  396  TYR396     -0.0009
    109  CE1       50.5080  151.2470   21.2180 C.ar  396  TYR396      0.0417
    110  CE2       49.7320  150.6550   23.4170 C.ar  396  TYR396      0.0417
    111  CZ        49.9690  151.6010   22.4380 C.ar  396  TYR396      0.1957
    112  OH        49.6310  152.8950   22.7100 O.3   396  TYR396     -0.2866
    113  N         53.1090  142.2340   26.4820 N.3   432  GLY432     -0.1210
    114  CA        52.6690  143.2600   25.5410 C.3   432  GLY432      0.1956
    115  C         53.8000  144.1080   25.0010 C.2   432  GLY432      0.2611
    116  O         53.6500  144.7780   23.9880 O.2   432  GLY432     -0.2717
    117  N         54.9420  144.0640   25.6750 N.am  433  TYR433     -0.1976
    118  CA        56.1200  144.8560   25.3140 C.3   433  TYR433      0.1639
    119  C         57.2640  144.0070   24.7450 C.2   433  TYR433      0.2290
    120  O         57.2630  142.7790   24.8470 O.2   433  TYR433     -0.2864
    121  CB        56.6340  145.5580   26.5760 C.3   433  TYR433      0.0560
    122  CG        55.7310  146.6480   27.1000 C.ar  433  TYR433     -0.0198
    123  CD1       54.4760  146.3500   27.6480 C.ar  433  TYR433     -0.0009
    124  CD2       56.1400  147.9900   27.0540 C.ar  433  TYR433     -0.0009
    125  CE1       53.6530  147.3640   28.1380 C.ar  433  TYR433      0.0417
    126  CE2       55.3320  149.0060   27.5410 C.ar  433  TYR433      0.0417
    127  CZ        54.0950  148.6830   28.0800 C.ar  433  TYR433      0.1957
    128  OH        53.3040  149.6940   28.5410 O.3   433  TYR433     -0.2866
@<TRIPOS>BOND
     1     1     2    1
     2    92    91    1
     3    92    93    2
     4     4     3    2
     5    91    90    1
     6    91    94    1
     7    97    99   ar
     8    97    95   ar
     9     3     2    1
    10     3     5   am
    11    99   100   ar
    12    10     9    1
    13    94    95    1
    14     9     6    1
    15    95    96   ar
    16    85    84    2
    17   101   102    1
    18     5     6    1
    19     6     7    1
    20   104   103    2
    21   100    98   ar
    22   102   103    1
    23   102   105    1
    24   107   109   ar
    25   107   106   ar
    26    73    72    2
    27    22    21    1
    28    96    98   ar
    29   109   111   ar
    30    84    83    1
    31     7     8    2
    32     7    11   am
    33    82    83    1
    34   105   106    1
    35    21    19   ar
    36    21    20   ar
    37   106   108   ar
    38    19    17   ar
    39    72    71    1
    40    83    86    1
    41    70    71    1
    42   111   112    1
    43   111   110   ar
    44    11    12    1
    45    20    18   ar
    46    86    87    1
    47    17    16   ar
    48    71    74    1
    49   108   110   ar
    50    18    16   ar
    51    16    15    1
    52    74    75    1
    53    12    15    1
    54    12    13    1
    55   116   115    2
    56    88    87    1
    57    87    89    1
    58    29    28    1
    59    77    75   ar
    60    77    79   ar
    61   119   120    2
    62   119   118    1
    63    75    76   ar
    64    13    14    2
    65   115   114    1
    66   115   117   am
    67    26    25    2
    68   118   117    1
    69   118   121    1
    70    24    23    1
    71    24    25    1
    72    24    27    1
    73   114   113    1
    74    79    80   ar
    75    25    31   am
    76    28    27    1
    77    28    30    1
    78    76    78   ar
    79    34    33    2
    80    33    32    1
    81   121   122    1
    82    80    78   ar
    83    80    81    1
    84    31    32    1
    85    48    47    1
    86   124   122   ar
    87   124   126   ar
    88   122   123   ar
    89    64    63    2
    90    66    65    1
    91    66    67    1
    92    32    35    1
    93   126   127   ar
    94   123   125   ar
    95    65    62    1
    96    60    59    2
    97    62    63    1
    98    62    61    1
    99    68    67    2
   100    67    69   am
   101    47    45   ar
   102    47    46   ar
   103   127   125   ar
   104   127   128    1
   105    45    43   ar
   106    35    36    1
   107    59    61   am
   108    59    58    1
   109    46    44   ar
   110    43    42   ar
   111    44    42   ar
   112    58    57    1
   113    42    41    1
   114    52    51    2
   115    41    38    1
   116    56    54    1
   117    54    53    1
   118    51    50    1
   119    38    39    1
   120    38    37    1
   121    53    50    1
   122    53    55    1
   123    40    39    2
   124    50    49    1
