@<TRIPOS>MOLECULE
tmp/2xfyA00.pdb
 200 191 0 0 0
SMALL
GASTEIGER

@<TRIPOS>ATOM
      1  N         14.9550    4.4860   35.6400 N.3    15  LEU15      -0.1245
      2  CA        13.5750    4.8070   35.3540 C.3    15  LEU15       0.1561
      3  C         12.6550    4.4770   36.5180 C.2    15  LEU15       0.2260
      4  O         11.6280    5.1120   36.6100 O.2    15  LEU15      -0.2867
      5  CB        13.0850    4.0540   34.1120 C.3    15  LEU15       0.0270
      6  CG        13.6390    4.4890   32.7610 C.3    15  LEU15       0.0019
      7  CD1       13.3950    3.4070   31.8020 C.3    15  LEU15       0.0001
      8  CD2       13.0670    5.8280   32.2360 C.3    15  LEU15       0.0001
      9  N          6.4770   -0.5810   25.8810 N.3    93  ASN93      -0.1240
     10  CA         6.9000   -1.2990   24.6800 C.3    93  ASN93       0.1653
     11  C          7.3430   -2.6820   25.0810 C.2    93  ASN93       0.2266
     12  O          7.4610   -2.9990   26.2820 O.2    93  ASN93      -0.2867
     13  CB         7.9920   -0.5520   23.9000 C.3    93  ASN93       0.1155
     14  CG         7.4570    0.6900   23.2160 C.2    93  ASN93       0.2627
     15  OD1        6.2430    0.8270   23.0160 O.2    93  ASN93      -0.2716
     16  ND2        8.3540    1.6180   22.8790 N.am   93  ASN93      -0.0877
     17  N          9.9270   -3.7000   28.0410 N.3    96  ASP96      -0.1239
     18  CA        10.1610   -2.6330   29.0170 C.3    96  ASP96       0.1674
     19  C          9.8220   -3.1000   30.4210 C.2    96  ASP96       0.2266
     20  O          8.7150   -3.6000   30.6700 O.2    96  ASP96      -0.2867
     21  CB         9.3010   -1.4290   28.6850 C.3    96  ASP96       0.1410
     22  CG         9.7930   -0.6610   27.4620 C.2    96  ASP96       0.3668
     23  OD1        8.9730    0.1090   26.9060 O.co2  96  ASP96      -0.2456
     24  OD2       10.9710   -0.8040   27.0360 O.co2  96  ASP96      -0.2456
     25  N          8.0950   10.3160   25.2070 N.3   179  ALA179     -0.1245
     26  CA         9.4550   10.2110   25.7030 C.3   179  ALA179      0.1562
     27  C          9.9740   11.5420   26.2590 C.2   179  ALA179      0.2260
     28  O         11.1620   11.7740   26.4720 O.2   179  ALA179     -0.2867
     29  CB        10.4070    9.6300   24.6060 C.3   179  ALA179      0.0290
     30  N          9.9310   14.2650   24.6250 N.3   181  GLU181     -0.1245
     31  CA        10.5670   14.9600   23.5070 C.3   181  GLU181      0.1567
     32  C          9.5260   15.8070   22.7610 C.2   181  GLU181      0.2260
     33  O          8.3760   15.4040   22.6160 O.2   181  GLU181     -0.2867
     34  CB        11.2140   13.9470   22.5750 C.3   181  GLU181      0.0388
     35  CG        12.3810   13.2360   23.2600 C.3   181  GLU181      0.1160
     36  CD        13.0480   12.2010   22.4190 C.2   181  GLU181      0.3649
     37  OE1       12.4200   11.5350   21.5450 O.co2 181  GLU181     -0.2457
     38  OE2       14.2730   12.0080   22.6630 O.co2 181  GLU181     -0.2457
     39  N          8.1160   16.3110   19.8540 N.3   183  ARG183     -0.1245
     40  CA         7.9440   15.5850   18.5970 C.3   183  ARG183      0.1563
     41  C          6.5730   14.9110   18.5700 C.2   183  ARG183      0.2260
     42  O          5.9070   14.7960   19.5970 O.2   183  ARG183     -0.2867
     43  CB         9.0280   14.5200   18.3640 C.3   183  ARG183      0.0307
     44  CG         9.0120   13.3960   19.3640 C.3   183  ARG183      0.0489
     45  CD         9.9360   12.2860   18.9520 C.3   183  ARG183      0.2205
     46  NE        10.1230   11.2400   19.9370 N.pl3 183  ARG183     -0.0865
     47  CZ         9.4070   10.1160   19.9910 C.cat 183  ARG183      0.5346
     48  NH1        8.3780    9.8870   19.1820 N.pl3 183  ARG183      0.1354
     49  NH2        9.7590    9.1440   20.8530 N.pl3 183  ARG183      0.1354
     50  N          7.4630    7.1010   15.2130 N.3   187  TYR187     -0.1241
     51  CA         8.2530    5.8350   15.1420 C.3   187  TYR187      0.1605
     52  C          7.8540    4.9210   16.2890 C.2   187  TYR187      0.2264
     53  O          8.6460    4.7040   17.2020 O.2   187  TYR187     -0.2867
     54  CB         9.7780    6.0870   15.0580 C.3   187  TYR187      0.0534
     55  CG        10.4720    6.9560   16.0630 C.ar  187  TYR187     -0.0201
     56  CD1       10.3610    8.3320   16.0480 C.ar  187  TYR187     -0.0009
     57  CD2       11.2590    6.4010   17.0350 C.ar  187  TYR187     -0.0009
     58  CE1       11.0620    9.1070   16.9720 C.ar  187  TYR187      0.0417
     59  CE2       11.9700    7.1800   17.9500 C.ar  187  TYR187      0.0417
     60  CZ        11.8700    8.5280   17.9110 C.ar  187  TYR187      0.1957
     61  OH        12.5750    9.2990   18.8160 O.3   187  TYR187     -0.2866
     62  N          7.7320    1.9510   18.0670 N.3   189  GLN189     -0.1245
     63  CA         8.5110    0.7290   18.0210 C.3   189  GLN189      0.1566
     64  C          7.7450   -0.5660   18.3590 C.2   189  GLN189      0.2260
     65  O          8.1340   -1.6170   17.8860 O.2   189  GLN189     -0.2867
     66  CB         9.7440    0.9440   18.9110 C.3   189  GLN189      0.0367
     67  CG        10.8240   -0.1290   18.8740 C.3   189  GLN189      0.0905
     68  CD        12.0290    0.2370   19.7470 C.2   189  GLN189      0.2608
     69  OE1       12.0990    1.3420   20.3000 O.2   189  GLN189     -0.2717
     70  NE2       12.9890   -0.6820   19.8600 N.am  189  GLN189     -0.0878
     71  N          6.3440    0.0430   13.7360 N.3   193  TRP193     -0.1241
     72  CA         7.5630    0.6310   13.1990 C.3   193  TRP193      0.1605
     73  C          8.7630   -0.1390   13.7030 C.2   193  TRP193      0.2264
     74  O          8.8570   -0.5120   14.8820 O.2   193  TRP193     -0.2867
     75  CB         7.6880    2.1020   13.5880 C.3   193  TRP193      0.0550
     76  CG         8.9810    2.7620   13.1630 C.ar  193  TRP193      0.0003
     77  CD1        9.2300    3.4200   11.9700 C.ar  193  TRP193      0.0946
     78  CD2       10.2050    2.8440   13.8980 C.ar  193  TRP193      0.0152
     79  NE1       10.5070    3.8980   11.9470 N.ar  193  TRP193     -0.2442
     80  CE2       11.1230    3.5750   13.1190 C.ar  193  TRP193      0.0810
     81  CE3       10.5890    2.4480   15.1890 C.ar  193  TRP193      0.0012
     82  CZ2       12.3740    3.9250   13.5860 C.ar  193  TRP193      0.0191
     83  CZ3       11.8470    2.7790   15.6300 C.ar  193  TRP193      0.0001
     84  CH2       12.7360    3.5060   14.8440 C.ar  193  TRP193      0.0015
     85  N         13.1880    0.3750   13.1340 N.3   195  PHE195     -0.1241
     86  CA        14.2800    1.1730   12.5850 C.3   195  PHE195      0.1605
     87  C         14.7900    0.4850   11.3250 C.2   195  PHE195      0.2264
     88  O         14.9890   -0.7190   11.3570 O.2   195  PHE195     -0.2867
     89  CB        15.3910    1.2480   13.6370 C.3   195  PHE195      0.0534
     90  CG        16.6190    2.0150   13.1960 C.ar  195  PHE195     -0.0203
     91  CD1       17.7250    1.3460   12.6720 C.ar  195  PHE195     -0.0042
     92  CD2       16.6850    3.3840   13.2920 C.ar  195  PHE195     -0.0042
     93  CE1       18.8420    2.0320   12.2830 C.ar  195  PHE195     -0.0003
     94  CE2       17.8170    4.0780   12.9060 C.ar  195  PHE195     -0.0003
     95  CZ        18.8740    3.4160   12.4130 C.ar  195  PHE195     -0.0000
     96  N         16.6040   13.0800   18.6300 N.3   293  GLY293     -0.1225
     97  CA        17.6630   12.9350   17.6530 C.3   293  GLY293      0.1811
     98  C         17.3000   11.9500   16.5610 C.2   293  GLY293      0.2280
     99  O         17.3990   10.7340   16.7320 O.2   293  GLY293     -0.2866
    100  N         18.3760   10.7970   13.4150 N.3   295  HIS295     -0.1226
    101  CA        19.5730   10.7500   12.5850 C.3   295  HIS295      0.1752
    102  C         19.4260    9.9640   11.2910 C.2   295  HIS295      0.2596
    103  O         20.1970   10.1400   10.3520 O.2   295  HIS295     -0.2718
    104  CB        20.7970   10.2710   13.3740 C.3   295  HIS295      0.0759
    105  CG        20.5850    8.9660   14.0330 C.ar  295  HIS295      0.0818
    106  ND1       20.8110    7.7600   13.3910 N.ar  295  HIS295     -0.2268
    107  CD2       20.1760    8.6490   15.2900 C.ar  295  HIS295      0.1154
    108  CE1       20.5310    6.7620   14.2290 C.ar  295  HIS295      0.1986
    109  NE2       20.1470    7.2810   15.3860 N.ar  295  HIS295     -0.2212
    110  N         18.4380    9.0600   11.2460 N.am  296  TRP296     -0.1976
    111  CA        18.1560    8.2070   10.0770 C.3   296  TRP296      0.1640
    112  C         17.4360    9.0360    8.9990 C.2   296  TRP296      0.2290
    113  O         16.6270    9.9040    9.2710 O.2   296  TRP296     -0.2864
    114  CB        17.4250    6.9070   10.4920 C.3   296  TRP296      0.0576
    115  CG        16.1860    6.9900   11.2830 C.ar  296  TRP296      0.0006
    116  CD1       14.9140    6.7230   10.8270 C.ar  296  TRP296      0.0946
    117  CD2       16.0380    7.2740   12.6930 C.ar  296  TRP296      0.0152
    118  NE1       13.9940    6.8300   11.8430 N.ar  296  TRP296     -0.2442
    119  CE2       14.6430    7.1800   12.9880 C.ar  296  TRP296      0.0810
    120  CE3       16.9230    7.5310   13.7410 C.ar  296  TRP296      0.0012
    121  CZ2       14.1460    7.3950   14.2830 C.ar  296  TRP296      0.0191
    122  CZ3       16.3990    7.7580   15.0230 C.ar  296  TRP296      0.0001
    123  CH2       15.0400    7.6920   15.2630 C.ar  296  TRP296      0.0015
    124  N         20.7660   15.0150   21.8500 N.3   337  THR337     -0.1203
    125  CA        21.1380   13.6350   22.0330 C.3   337  THR337      0.1994
    126  C         22.1210   13.2230   20.9400 C.2   337  THR337      0.2618
    127  O         22.5870   14.0970   20.1610 O.2   337  THR337     -0.2717
    128  CB        19.9190   12.7410   22.1740 C.3   337  THR337      0.1784
    129  OG1       20.2960   11.4240   22.5480 O.3   337  THR337     -0.2211
    130  CG2       19.1190   12.7030   20.8510 C.3   337  THR337      0.0376
    131  N         22.5140   11.9530   20.9030 N.am  338  CYS338     -0.1969
    132  CA        23.4340   11.4500   19.8940 C.3   338  CYS338      0.1712
    133  C         24.8630   11.9300   20.0730 C.2   338  CYS338      0.2296
    134  O         25.7000   11.7880   19.1680 O.2   338  CYS338     -0.2864
    135  CB        22.9890   11.7000   18.4500 C.3   338  CYS338      0.0983
    136  SG        21.3280   11.1620   18.0100 S.3   338  CYS338     -0.0798
    137  N         27.6760    9.2570   19.2340 N.3   341  MET341     -0.1245
    138  CA        27.5950    8.4960   17.9810 C.3   341  MET341      0.1570
    139  C         28.5700    9.0290   16.9300 C.2   341  MET341      0.2261
    140  O         28.6790   10.2410   16.6700 O.2   341  MET341     -0.2867
    141  CB        26.1770    8.5890   17.4010 C.3   341  MET341      0.0387
    142  CG        25.1370    7.8930   18.2510 C.3   341  MET341      0.0595
    143  SD        23.5290    7.9250   17.4720 S.3   341  MET341     -0.1393
    144  CE        22.8710    6.3220   17.9730 C.3   341  MET341      0.0692
    145  N         26.9840    3.4990   12.2950 N.3   346  GLN346     -0.1245
    146  CA        25.5900    3.3000   11.8810 C.3   346  GLN346      0.1566
    147  C         25.5420    2.4240   10.6520 C.2   346  GLN346      0.2260
    148  O         26.4740    2.3840    9.8660 O.2   346  GLN346     -0.2867
    149  CB        24.9100    4.6260   11.5660 C.3   346  GLN346      0.0367
    150  CG        25.1810    5.7650   12.6160 C.3   346  GLN346      0.0905
    151  CD        25.0140    5.3050   14.0840 C.2   346  GLN346      0.2608
    152  OE1       24.0450    4.5780   14.4130 O.2   346  GLN346     -0.2717
    153  NE2       25.9600    5.7220   14.9640 N.am  346  GLN346     -0.0878
    154  N         23.8130   11.0320   25.5460 N.3   376  ASN376     -0.1225
    155  CA        24.0150    9.8950   24.6620 C.3   376  ASN376      0.1785
    156  C         22.6870    9.2540   24.3050 C.2   376  ASN376      0.2597
    157  O         21.8090    9.1290   25.1400 O.2   376  ASN376     -0.2718
    158  CB        24.9200    8.8280   25.2850 C.3   376  ASN376      0.1169
    159  CG        24.4740    8.3520   26.6350 C.2   376  ASN376      0.2627
    160  OD1       24.3470    9.1460   27.5710 O.2   376  ASN376     -0.2716
    161  ND2       24.3020    7.0250   26.7860 N.am  376  ASN376     -0.0877
    162  N         22.5630    8.8520   23.0360 N.am  377  ALA377     -0.1966
    163  CA        21.3600    8.2040   22.5270 C.3   377  ALA377      0.1728
    164  C         21.2270    6.7650   22.9990 C.2   377  ALA377      0.2616
    165  O         20.1220    6.3140   23.2860 O.2   377  ALA377     -0.2715
    166  CB        21.3010    8.2780   21.0090 C.3   377  ALA377      0.0334
    167  N         22.3330    6.0190   23.0080 N.am  378  LEU378     -0.1964
    168  CA        22.3210    4.6010   23.3110 C.3   378  LEU378      0.1713
    169  C         23.3330    4.3010   24.3870 C.2   378  LEU378      0.2458
    170  O         24.2660    5.0630   24.6150 O.2   378  LEU378     -0.2730
    171  CB        22.6060    3.8050   22.0230 C.3   378  LEU378      0.0310
    172  CG        21.5820    3.9230   20.9050 C.3   378  LEU378      0.0022
    173  CD1       22.1280    3.3180   19.5710 C.3   378  LEU378      0.0001
    174  CD2       20.2770    3.2620   21.3920 C.3   378  LEU378      0.0001
    175  N         23.1510    3.1560   25.0630 N.am  379  PRO379     -0.2727
    176  CA        24.0870    2.8220   26.1480 C.3   379  PRO379      0.1402
    177  C         25.4980    2.5700   25.5780 C.2   379  PRO379      0.2269
    178  O         25.6810    1.7910   24.6220 O.2   379  PRO379     -0.2865
    179  CB        23.5110    1.5320   26.7580 C.3   379  PRO379      0.0296
    180  CG        22.1820    1.3080   26.1580 C.3   379  PRO379      0.0237
    181  CD        22.0340    2.1880   24.9470 C.3   379  PRO379      0.0939
    182  N         23.1510    8.6930   30.0670 N.3   414  LEU414     -0.1231
    183  CA        22.0470    7.7450   30.2070 C.3   414  LEU414      0.1693
    184  C         22.6580    6.3600   30.2710 C.2   414  LEU414      0.2591
    185  O         23.2960    5.9320   29.3180 O.2   414  LEU414     -0.2718
    186  CB        21.1230    7.8060   29.0020 C.3   414  LEU414      0.0284
    187  CG        20.1150    8.9470   29.0380 C.3   414  LEU414      0.0019
    188  CD1       18.9440    8.5180   29.9130 C.3   414  LEU414      0.0001
    189  CD2       20.6880   10.2830   29.5040 C.3   414  LEU414      0.0001
    190  N         22.4740    5.5850   31.3430 N.am  415  ARG415     -0.1980
    191  CA        21.8620    6.0170   32.6030 C.3   415  ARG415      0.1597
    192  C         22.4920    5.1900   33.7100 C.2   415  ARG415      0.2287
    193  O         23.2310    4.2320   33.4720 O.2   415  ARG415     -0.2864
    194  CB        20.3120    6.0020   32.6230 C.3   415  ARG415      0.0334
    195  CG        19.5640    4.6820   32.8020 C.3   415  ARG415      0.0492
    196  CD        18.0410    4.9390   32.9920 C.3   415  ARG415      0.2205
    197  NE        17.4160    5.6940   31.8950 N.pl3 415  ARG415     -0.0865
    198  CZ        16.5090    6.6690   32.0420 C.cat 415  ARG415      0.5346
    199  NH1       16.0840    7.0680   33.2530 N.pl3 415  ARG415      0.1354
    200  NH2       16.0190    7.2700   30.9640 N.pl3 415  ARG415      0.1354
@<TRIPOS>BOND
     1   112   113    2
     2   112   111    1
     3   148   147    2
     4   111   114    1
     5   111   110    1
     6   103   102    2
     7   114   115    1
     8   147   146    1
     9   116   115   ar
    10   116   118   ar
    11   110   102   am
    12   115   117   ar
    13   102   101    1
    14    87    88    2
    15    87    86    1
    16   149   146    1
    17   149   150    1
    18   118   119   ar
    19   146   145    1
    20    79    77   ar
    21    79    80   ar
    22    77    76   ar
    23    93    95   ar
    24    93    91   ar
    25    95    94   ar
    26    86    85    1
    27    86    89    1
    28   101   104    1
    29   101   100    1
    30   150   151    1
    31    91    90   ar
    32   117   119   ar
    33   117   120   ar
    34    94    92   ar
    35   119   121   ar
    36    80    82   ar
    37    80    78   ar
    38    76    75    1
    39    76    78   ar
    40    90    92   ar
    41    90    89    1
    42    72    75    1
    43    72    73    1
    44    72    71    1
    45   104   105    1
    46   106   105   ar
    47   106   108   ar
    48    82    84   ar
    49    73    74    2
    50   120   122   ar
    51    78    81   ar
    52   105   107   ar
    53   151   152    2
    54   151   153   am
    55   108   109   ar
    56   121   123   ar
    57    84    83   ar
    58   122   123   ar
    59    54    51    1
    60    54    55    1
    61    51    50    1
    62    51    52    1
    63    81    83   ar
    64   107   109   ar
    65    56    55   ar
    66    56    58   ar
    67    55    57   ar
    68    52    53    2
    69    98    99    2
    70    98    97    1
    71   140   139    2
    72   139   138    1
    73    58    60   ar
    74    57    59   ar
    75   141   138    1
    76   141   142    1
    77   143   144    1
    78   143   142    1
    79    97    96    1
    80    65    64    2
    81    60    59   ar
    82    60    61    1
    83   138   137    1
    84   136   135    1
    85    63    62    1
    86    63    64    1
    87    63    66    1
    88    43    40    1
    89    43    44    1
    90   135   132    1
    91    41    40    1
    92    41    42    2
    93    40    39    1
    94    67    66    1
    95    67    68    1
    96    45    44    1
    97    45    46    1
    98   134   133    2
    99    48    47    1
   100   173   172    1
   101    68    70   am
   102    68    69    2
   103   132   133    1
   104   132   131    1
   105    46    47    2
   106    47    49    1
   107   127   126    2
   108   130   128    1
   109   131   126   am
   110   172   174    1
   111   172   171    1
   112   126   125    1
   113   166   163    1
   114    37    36   ar
   115   124   125    1
   116   171   168    1
   117   125   128    1
   118   128   129    1
   119    36    38   ar
   120    36    35    1
   121   163   164    1
   122   163   162    1
   123    34    35    1
   124    34    31    1
   125    33    32    2
   126    32    31    1
   127    16    14   am
   128   164   167   am
   129   164   165    2
   130   167   168    1
   131    15    14    2
   132   162   156   am
   133    14    13    1
   134   168   169    1
   135    31    30    1
   136    13    10    1
   137   156   155    1
   138   156   157    2
   139   169   170    2
   140   169   175   am
   141    29    26    1
   142   178   177    2
   143   155   158    1
   144   155   154    1
   145    10    11    1
   146    10     9    1
   147   181   175    1
   148   181   180    1
   149   175   176    1
   150    11    12    2
   151    25    26    1
   152   158   159    1
   153   177   176    1
   154    26    27    1
   155   176   179    1
   156   180   179    1
   157    27    28    2
   158   159   161   am
   159   159   160    2
   160    23    22   ar
   161    24    22   ar
   162    22    21    1
   163    17    18    1
   164    21    18    1
   165   186   187    1
   166   186   183    1
   167    18    19    1
   168   187   189    1
   169   187   188    1
   170   185   184    2
   171   182   183    1
   172   183   184    1
   173   184   190   am
   174    19    20    2
   175   200   198    1
   176   190   191    1
   177     7     6    1
   178   197   198    2
   179   197   196    1
   180   198   199    1
   181     8     6    1
   182   191   194    1
   183   191   192    1
   184   194   195    1
   185     6     5    1
   186   195   196    1
   187   193   192    2
   188     5     2    1
   189     2     1    1
   190     2     3    1
   191     3     4    2
