@<TRIPOS>MOLECULE
tmp/2xg5A01.pdb
 96 96 0 0 0
SMALL
GASTEIGER

@<TRIPOS>ATOM
      1  N        -54.7180  -15.6810   11.7730 N.3    30  PRO30      -0.2102
      2  CA       -54.3310  -14.6300   10.7750 C.3    30  PRO30       0.1504
      3  C        -52.8130  -14.5050   10.6720 C.2    30  PRO30       0.2576
      4  O        -52.0790  -14.6960   11.6850 O.2    30  PRO30      -0.2718
      5  CB       -54.8680  -13.3230   11.3600 C.3    30  PRO30       0.0282
      6  CG       -54.7600  -13.5770   12.9530 C.3    30  PRO30       0.0208
      7  CD       -55.0650  -15.1130   13.1010 C.3    30  PRO30       0.0893
      8  N        -52.3550  -14.2440    9.4510 N.am   31  TYR31      -0.1963
      9  CA       -50.9170  -14.0360    9.2130 C.3    31  TYR31       0.1771
     10  C        -50.7310  -12.7420    8.4350 C.2    31  TYR31       0.2619
     11  O        -51.5620  -12.4250    7.6500 O.2    31  TYR31      -0.2715
     12  CB       -50.2700  -15.2100    8.4120 C.3    31  TYR31       0.0574
     13  CG       -49.8440  -16.3900    9.3140 C.ar   31  TYR31      -0.0198
     14  CD1      -48.5090  -16.7160    9.4750 C.ar   31  TYR31      -0.0009
     15  CD2      -50.8090  -17.1610    9.9870 C.ar   31  TYR31      -0.0009
     16  CE1      -48.1170  -17.8180   10.2730 C.ar   31  TYR31       0.0417
     17  CE2      -50.4450  -18.2640   10.8260 C.ar   31  TYR31       0.0417
     18  CZ       -49.0950  -18.5650   10.9580 C.ar   31  TYR31       0.1957
     19  OH       -48.6810  -19.6290   11.7380 O.3    31  TYR31      -0.2866
     20  N        -49.6030  -12.0500    8.6440 N.am   32  LEU32      -0.1977
     21  CA       -49.3500  -10.8420    7.8510 C.3    32  LEU32       0.1596
     22  C        -48.4990  -11.2310    6.6410 C.2    32  LEU32       0.2287
     23  O        -47.6330  -12.0860    6.7720 O.2    32  LEU32      -0.2864
     24  CB       -48.5200   -9.8540    8.7020 C.3    32  LEU32       0.0297
     25  CG       -48.4160   -8.5350    7.9900 C.3    32  LEU32       0.0022
     26  CD1      -49.3420   -7.6250    8.7010 C.3    32  LEU32       0.0001
     27  CD2      -46.9710   -7.9900    8.0490 C.3    32  LEU32       0.0001
     28  N        -45.8720   -9.5790    3.9910 N.3    34  GLN34      -0.1245
     29  CA       -45.0220   -8.4390    3.5870 C.3    34  GLN34       0.1566
     30  C        -44.4210   -8.7280    2.2100 C.2    34  GLN34       0.2260
     31  O        -43.8840   -9.8340    1.9690 O.2    34  GLN34      -0.2867
     32  CB       -43.8500   -8.3260    4.5010 C.3    34  GLN34       0.0367
     33  CG       -44.1130   -7.9320    5.9280 C.3    34  GLN34       0.0905
     34  CD       -42.7820   -7.7490    6.6340 C.2    34  GLN34       0.2608
     35  OE1      -42.3780   -6.6440    6.8620 O.2    34  GLN34      -0.2717
     36  NE2      -42.0820   -8.8760    6.9160 N.am   34  GLN34      -0.0878
     37  N        -47.6080   -4.4000    2.9170 N.3    56  VAL56      -0.1231
     38  CA       -48.0500   -5.2200    4.0490 C.3    56  VAL56       0.1692
     39  C        -49.5710   -5.3710    4.0120 C.2    56  VAL56       0.2592
     40  O        -50.3140   -4.3560    3.7390 O.2    56  VAL56      -0.2718
     41  CB       -47.5990   -4.5450    5.3820 C.3    56  VAL56       0.0266
     42  CG1      -47.8840   -5.4410    6.5170 C.3    56  VAL56       0.0020
     43  CG2      -46.1280   -4.1300    5.3400 C.3    56  VAL56       0.0020
     44  N        -50.0500   -6.5530    4.3650 N.am   57  GLN57      -0.1966
     45  CA       -51.4530   -6.7700    4.4310 C.3    57  GLN57       0.1733
     46  C        -51.7570   -7.9450    5.3820 C.2    57  GLN57       0.2616
     47  O        -51.0150   -8.9200    5.4440 O.2    57  GLN57      -0.2715
     48  CB       -52.0710   -7.0420    3.0330 C.3    57  GLN57       0.0408
     49  CG       -51.5100   -8.2860    2.3570 C.3    57  GLN57       0.0908
     50  CD       -52.1280   -8.5190    0.9880 C.2    57  GLN57       0.2608
     51  OE1      -53.3610   -8.7420    0.8800 O.2    57  GLN57      -0.2717
     52  NE2      -51.2870   -8.4850   -0.0610 N.am   57  GLN57      -0.0878
     53  N        -52.8660   -7.8210    6.0670 N.am   58  ARG58      -0.1977
     54  CA       -53.3260   -8.8870    7.0010 C.3    58  ARG58       0.1597
     55  C        -54.1640   -9.8930    6.1970 C.2    58  ARG58       0.2287
     56  O        -55.0890   -9.5050    5.4630 O.2    58  ARG58      -0.2864
     57  CB       -54.1810   -8.2680    8.0840 C.3    58  ARG58       0.0334
     58  CG       -54.7210   -9.2590    9.1230 C.3    58  ARG58       0.0492
     59  CD       -55.6770   -8.4360   10.0710 C.3    58  ARG58       0.2205
     60  NE       -56.3010   -9.3010   11.0570 N.pl3  58  ARG58      -0.0865
     61  CZ       -55.7800   -9.6360   12.2180 C.cat  58  ARG58       0.5346
     62  NH1      -54.5700   -9.1910   12.5840 N.pl3  58  ARG58       0.1354
     63  NH2      -56.4630  -10.4320   13.0380 N.pl3  58  ARG58       0.1354
     64  N        -45.4020  -12.4960    8.5650 N.3    93  ILE93      -0.1231
     65  CA       -45.2000  -12.2410    9.9680 C.3    93  ILE93       0.1678
     66  C        -46.3040  -13.0660   10.7150 C.2    93  ILE93       0.2434
     67  O        -47.5040  -12.7570   10.6360 O.2    93  ILE93      -0.2733
     68  CB       -45.2530  -10.7430   10.3460 C.3    93  ILE93       0.0265
     69  CG1      -44.2040   -9.9380    9.5060 C.3    93  ILE93       0.0019
     70  CG2      -45.0480  -10.5560   11.9000 C.3    93  ILE93       0.0020
     71  CD1      -43.9450   -8.4100   10.0090 C.3    93  ILE93       0.0001
     72  N        -45.8690  -14.1550   11.4070 N.am   94  PRO94      -0.2718
     73  CA       -46.8580  -14.9890   12.1310 C.3    94  PRO94       0.1520
     74  C        -47.4430  -14.2160   13.3060 C.2    94  PRO94       0.2440
     75  O        -46.7620  -13.3080   13.8510 O.2    94  PRO94      -0.2731
     76  CB       -46.0170  -16.1690   12.6760 C.3    94  PRO94       0.0310
     77  CG       -44.7710  -16.1950   11.8740 C.3    94  PRO94       0.0237
     78  CD       -44.4890  -14.6850   11.5270 C.3    94  PRO94       0.0939
     79  N        -48.6470  -14.6260   13.7560 N.am   95  PRO95      -0.2716
     80  CA       -49.2560  -13.9310   14.9020 C.3    95  PRO95       0.1536
     81  C        -48.3220  -14.2260   16.1230 C.2    95  PRO95       0.2598
     82  O        -47.7530  -15.3260   16.2370 O.2    95  PRO95      -0.2715
     83  CB       -50.6380  -14.6260   15.0530 C.3    95  PRO95       0.0310
     84  CG       -50.3800  -16.0590   14.4920 C.3    95  PRO95       0.0237
     85  CD       -49.4160  -15.8200   13.3160 C.3    95  PRO95       0.0939
     86  N        -48.0920  -13.2120   16.9360 N.am   96  ARG96      -0.1978
     87  CA       -47.1430  -13.3440   18.0280 C.3    96  ARG96       0.1597
     88  C        -47.7780  -14.1570   19.1060 C.2    96  ARG96       0.2287
     89  O        -48.9350  -13.9760   19.4170 O.2    96  ARG96      -0.2864
     90  CB       -46.6400  -11.9720   18.5720 C.3    96  ARG96       0.0334
     91  CG       -45.6400  -11.3790   17.6150 C.3    96  ARG96       0.0492
     92  CD       -44.2720  -12.0040   17.7620 C.3    96  ARG96       0.2205
     93  NE       -43.7590  -11.9890   19.1230 N.pl3  96  ARG96      -0.0865
     94  CZ       -43.4470  -13.0840   19.8190 C.cat  96  ARG96       0.5346
     95  NH1      -43.6140  -14.3070   19.3030 N.pl3  96  ARG96       0.1354
     96  NH2      -42.9930  -12.9260   21.0750 N.pl3  96  ARG96       0.1354
@<TRIPOS>BOND
     1    52    50   am
     2    51    50    2
     3    50    49    1
     4    31    30    2
     5    30    29    1
     6    49    48    1
     7    37    38    1
     8    48    45    1
     9    29    28    1
    10    29    32    1
    11    40    39    2
    12    39    38    1
    13    39    44   am
    14    38    41    1
    15    44    45    1
    16    45    46    1
    17    32    33    1
    18    43    41    1
    19    41    42    1
    20    46    47    2
    21    46    53   am
    22    56    55    2
    23    33    34    1
    24    53    54    1
    25    55    54    1
    26    34    35    2
    27    34    36   am
    28    22    23    2
    29    22    21    1
    30    54    57    1
    31    11    10    2
    32    21    20    1
    33    21    24    1
    34    25    27    1
    35    25    26    1
    36    25    24    1
    37    57    58    1
    38    12     9    1
    39    12    13    1
    40    10    20   am
    41    10     9    1
    42    64    65    1
    43    58    59    1
    44     9     8    1
    45    13    14   ar
    46    13    15   ar
    47     8     3   am
    48    14    16   ar
    49    69    71    1
    50    69    68    1
    51    65    68    1
    52    65    66    1
    53    15    17   ar
    54    59    60    1
    55    16    18   ar
    56    68    70    1
    57    67    66    2
    58     3     2    1
    59     3     4    2
    60    66    72   am
    61     2     5    1
    62     2     1    1
    63    17    18   ar
    64    18    19    1
    65    60    61    2
    66     5     6    1
    67    72    78    1
    68    72    73    1
    69    78    77    1
    70     1     7    1
    71    77    76    1
    72    73    76    1
    73    73    74    1
    74    61    62    1
    75    61    63    1
    76     6     7    1
    77    74    79   am
    78    74    75    2
    79    85    79    1
    80    85    84    1
    81    79    80    1
    82    84    83    1
    83    80    83    1
    84    80    81    1
    85    81    82    2
    86    81    86   am
    87    86    87    1
    88    91    92    1
    89    91    90    1
    90    92    93    1
    91    87    90    1
    92    87    88    1
    93    88    89    2
    94    93    94    2
    95    95    94    1
    96    94    96    1
