@<TRIPOS>MOLECULE
tmp/2xg9A00.pdb
 87 78 0 0 0
SMALL
GASTEIGER

@<TRIPOS>ATOM
      1  N         21.5520   10.3510   34.4820 N.3    13  MET13      -0.1245
      2  CA        20.1220   10.0040   34.6180 C.3    13  MET13       0.1570
      3  C         19.9470    8.9010   35.6220 C.2    13  MET13       0.2261
      4  O         20.6600    7.8850   35.5640 O.2    13  MET13      -0.2867
      5  CB        19.5320    9.4740   33.3340 C.3    13  MET13       0.0387
      6  CG        19.5840   10.4360   32.1680 C.3    13  MET13       0.0595
      7  SD        18.6560    9.7270   30.7960 S.3    13  MET13      -0.1393
      8  CE        19.0360   10.9000   29.5000 C.3    13  MET13       0.0692
      9  N         14.8300    4.6170   35.5170 N.3    16  LEU16      -0.1245
     10  CA        13.4900    5.0330   35.1370 C.3    16  LEU16       0.1561
     11  C         12.4550    4.9480   36.2670 C.2    16  LEU16       0.2260
     12  O         11.5740    5.8060   36.3580 O.2    16  LEU16      -0.2867
     13  CB        13.0200    4.2500   33.9320 C.3    16  LEU16       0.0270
     14  CG        13.7470    4.6030   32.6460 C.3    16  LEU16       0.0019
     15  CD1       13.4520    3.5510   31.6230 C.3    16  LEU16       0.0001
     16  CD2       13.3260    6.0080   32.1450 C.3    16  LEU16       0.0001
     17  N          8.3930   10.3510   25.2220 N.3   180  ALA180     -0.1245
     18  CA         9.7470   10.2660   25.7810 C.3   180  ALA180      0.1562
     19  C         10.2440   11.6080   26.2990 C.2   180  ALA180      0.2260
     20  O         11.4210   11.8170   26.4360 O.2   180  ALA180     -0.2867
     21  CB        10.7700    9.6860   24.7890 C.3   180  ALA180      0.0290
     22  N         10.1360   14.3070   24.6860 N.3   182  GLU182     -0.1245
     23  CA        10.7500   15.0340   23.5740 C.3   182  GLU182      0.1567
     24  C          9.7030   15.8200   22.7950 C.2   182  GLU182      0.2260
     25  O          8.5560   15.3790   22.6160 O.2   182  GLU182     -0.2867
     26  CB        11.4370   14.0160   22.6520 C.3   182  GLU182      0.0388
     27  CG        12.6340   13.3390   23.3240 C.3   182  GLU182      0.1160
     28  CD        13.2180   12.1890   22.5270 C.2   182  GLU182      0.3649
     29  OE1       12.4440   11.4640   21.8650 O.co2 182  GLU182     -0.2457
     30  OE2       14.4630   12.0440   22.5880 O.co2 182  GLU182     -0.2457
     31  N         13.7170   19.0680   25.2210 N.3   291  LYS291     -0.1245
     32  CA        14.4640   17.9790   24.6250 C.3   291  LYS291      0.1561
     33  C         14.0600   17.8010   23.1730 C.2   291  LYS291      0.2260
     34  O         12.8850   17.6020   22.8630 O.2   291  LYS291     -0.2867
     35  CB        14.1790   16.6740   25.3520 C.3   291  LYS291      0.0271
     36  CG        14.6220   16.6760   26.7500 C.3   291  LYS291      0.0035
     37  CD        14.8640   15.2640   27.3010 C.3   291  LYS291      0.0206
     38  CE        15.0950   15.3410   28.8490 C.3   291  LYS291      0.1093
     39  NZ        15.7720   14.0280   29.2050 N.3   291  LYS291     -0.1314
     40  N         20.2810   14.9690   21.7970 N.3   338  THR338     -0.1218
     41  CA        20.8760   13.6230   22.0100 C.3   338  THR338      0.1862
     42  C         21.8720   13.2380   20.9170 C.2   338  THR338      0.2287
     43  O         22.3650   14.1200   20.1780 O.2   338  THR338     -0.2866
     44  CB        19.7440   12.6490   22.1610 C.3   338  THR338      0.1770
     45  OG1       20.1940   11.3630   22.6000 O.3   338  THR338     -0.2211
     46  CG2       18.8990   12.5470   20.8470 C.3   338  THR338      0.0375
     47  N         22.6730   14.6330   25.5640 N.3   376  GLU376     -0.1245
     48  CA        22.6010   13.2810   26.1390 C.3   376  GLU376      0.1567
     49  C         23.1830   12.3090   25.1240 C.2   376  GLU376      0.2260
     50  O         23.3230   12.6300   23.9400 O.2   376  GLU376     -0.2867
     51  CB        21.1490   12.8800   26.3650 C.3   376  GLU376      0.0388
     52  CG        20.4670   13.7310   27.3940 C.3   376  GLU376      0.1160
     53  CD        18.9920   13.4360   27.5960 C.2   376  GLU376      0.3649
     54  OE1       18.3930   14.1270   28.4600 O.co2 376  GLU376     -0.2457
     55  OE2       18.4100   12.5610   26.9040 O.co2 376  GLU376     -0.2457
     56  N         22.2390    8.9700   23.1170 N.3   378  ALA378     -0.1231
     57  CA        21.0250    8.2910   22.6590 C.3   378  ALA378      0.1694
     58  C         20.8900    6.8350   23.1410 C.2   378  ALA378      0.2591
     59  O         19.7840    6.4050   23.5100 O.2   378  ALA378     -0.2718
     60  CB        20.9600    8.3110   21.0880 C.3   378  ALA378      0.0304
     61  N         21.9940    6.1000   23.1220 N.am  379  LEU379     -0.1980
     62  CA        22.0070    4.6860   23.4120 C.3   379  LEU379      0.1596
     63  C         23.0670    4.3980   24.4900 C.2   379  LEU379      0.2287
     64  O         24.0780    5.1170   24.6150 O.2   379  LEU379     -0.2864
     65  CB        22.3000    3.9080   22.1150 C.3   379  LEU379      0.0297
     66  CG        21.2470    4.0120   21.0140 C.3   379  LEU379      0.0022
     67  CD1       21.6530    3.3170   19.7330 C.3   379  LEU379      0.0001
     68  CD2       19.9110    3.4510   21.5780 C.3   379  LEU379      0.0001
     69  N         22.9510    8.7540   30.0040 N.3   415  LEU415     -0.1231
     70  CA        21.9350    7.7260   30.0720 C.3   415  LEU415      0.1693
     71  C         22.6110    6.3500   30.1790 C.2   415  LEU415      0.2591
     72  O         23.2840    5.9230   29.2320 O.2   415  LEU415     -0.2718
     73  CB        21.1270    7.7800   28.7730 C.3   415  LEU415      0.0284
     74  CG        19.9250    6.8220   28.5950 C.3   415  LEU415      0.0019
     75  CD1       18.8910    7.3890   27.5320 C.3   415  LEU415      0.0001
     76  CD2       20.3940    5.4260   28.1750 C.3   415  LEU415      0.0001
     77  N         22.4830    5.6340   31.2830 N.am  416  ARG416     -0.1980
     78  CA        21.8570    6.0620   32.5320 C.3   416  ARG416      0.1597
     79  C         22.5110    5.2700   33.6640 C.2   416  ARG416      0.2287
     80  O         23.2260    4.2930   33.4190 O.2   416  ARG416     -0.2864
     81  CB        20.3290    5.8900   32.5150 C.3   416  ARG416      0.0334
     82  CG        19.7390    4.6010   32.8360 C.3   416  ARG416      0.0492
     83  CD        18.2110    4.7010   33.0400 C.3   416  ARG416      0.2205
     84  NE        17.5590    5.1210   31.7960 N.pl3 416  ARG416     -0.0865
     85  CZ        16.8960    6.2680   31.5930 C.cat 416  ARG416      0.5346
     86  NH1       16.7260    7.1520   32.5750 N.pl3 416  ARG416      0.1354
     87  NH2       16.3810    6.5290   30.3860 N.pl3 416  ARG416      0.1354
@<TRIPOS>BOND
     1    67    66    1
     2    43    42    2
     3    46    44    1
     4    42    41    1
     5    66    68    1
     6    66    65    1
     7    60    57    1
     8    40    41    1
     9    29    28   ar
    10    41    44    1
    11    65    62    1
    12    44    45    1
    13    28    30   ar
    14    28    27    1
    15    25    24    2
    16    26    27    1
    17    26    23    1
    18    57    56    1
    19    57    58    1
    20    24    23    1
    21    34    33    2
    22    61    58   am
    23    61    62    1
    24    58    59    2
    25    33    32    1
    26    62    63    1
    27    23    22    1
    28    50    49    2
    29    63    64    2
    30    32    31    1
    31    32    35    1
    32    21    18    1
    33    49    48    1
    34    17    18    1
    35    35    36    1
    36    47    48    1
    37    18    19    1
    38    48    51    1
    39    19    20    2
    40    51    52    1
    41    36    37    1
    42    55    53   ar
    43    37    38    1
    44    52    53    1
    45    75    74    1
    46    53    54   ar
    47    76    74    1
    48    74    73    1
    49    73    70    1
    50    38    39    1
    51    72    71    2
    52     8     7    1
    53    69    70    1
    54    70    71    1
    55    71    77   am
    56    87    85    1
    57     7     6    1
    58    77    78    1
    59    85    84    2
    60    85    86    1
    61    15    14    1
    62    84    83    1
    63    16    14    1
    64     6     5    1
    65    81    78    1
    66    81    82    1
    67    78    79    1
    68    14    13    1
    69    82    83    1
    70     5     2    1
    71    80    79    2
    72    13    10    1
    73     1     2    1
    74     2     3    1
    75    10     9    1
    76    10    11    1
    77     4     3    2
    78    11    12    2
