@<TRIPOS>MOLECULE
tmp/2xgaB00.pdb
 100 94 0 0 0
SMALL
GASTEIGER

@<TRIPOS>ATOM
      1  N         47.3310   12.2610   32.3100 N.3    11  LEU11      -0.1245
      2  CA        48.7740   12.3090   32.4800 C.3    11  LEU11       0.1561
      3  C         49.3310   11.2440   33.4220 C.2    11  LEU11       0.2260
      4  O         50.4270   10.7570   33.1750 O.2    11  LEU11      -0.2867
      5  CB        49.2310   13.7160   32.8840 C.3    11  LEU11       0.0270
      6  CG        49.0800   14.7610   31.7710 C.3    11  LEU11       0.0019
      7  CD1       49.5250   16.1140   32.2680 C.3    11  LEU11       0.0001
      8  CD2       49.8640   14.3930   30.5150 C.3    11  LEU11       0.0001
      9  N         49.3650    7.6510   31.4890 N.3    14  ILE14      -0.1231
     10  CA        50.5120    7.3430   30.6330 C.3    14  ILE14       0.1692
     11  C         51.8520    7.5130   31.3410 C.2    14  ILE14       0.2593
     12  O         52.8920    7.4650   30.7010 O.2    14  ILE14      -0.2718
     13  CB        50.5090    8.1580   29.3090 C.3    14  ILE14       0.0266
     14  CG1       50.5210    9.6660   29.5680 C.3    14  ILE14       0.0019
     15  CG2       49.3180    7.7630   28.4580 C.3    14  ILE14       0.0020
     16  CD1       50.9010   10.4640   28.3490 C.3    14  ILE14       0.0001
     17  N         51.8250    7.7020   32.6570 N.am   15  GLY15      -0.1942
     18  CA        53.0390    7.7160   33.4600 C.3    15  GLY15       0.2014
     19  C         53.8810    8.9580   33.2730 C.2    15  GLY15       0.2639
     20  O         55.0960    8.9170   33.4710 O.2    15  GLY15      -0.2714
     21  N         53.2390   10.0610   32.8970 N.am   16  CYS16      -0.1954
     22  CA        53.9240   11.3410   32.7800 C.3    16  CYS16       0.1828
     23  C         54.1800   11.8510   34.1780 C.2    16  CYS16       0.2467
     24  O         53.4150   11.5500   35.0950 O.2    16  CYS16      -0.2730
     25  CB        53.1000   12.3830   32.0210 C.3    16  CYS16       0.0996
     26  SG        53.3200   12.1970   30.2850 S.3    16  CYS16      -0.0797
     27  N         55.2570   12.6330   34.3620 N.am   17  PRO17      -0.2726
     28  CA        55.4570   13.3030   35.6440 C.3    17  PRO17       0.1402
     29  C         54.3110   14.2770   35.9540 C.2    17  PRO17       0.2269
     30  O         53.7110   14.8190   35.0270 O.2    17  PRO17      -0.2865
     31  CB        56.7700   14.0720   35.4410 C.3    17  PRO17       0.0296
     32  CG        57.4360   13.4180   34.3000 C.3    17  PRO17       0.0237
     33  CD        56.3510   12.9190   33.4170 C.3    17  PRO17       0.0939
     34  N         54.9270   18.6840   35.4280 N.3    20  ILE20      -0.1245
     35  CA        54.8030   19.4010   34.1500 C.3    20  ILE20       0.1561
     36  C         53.5180   20.2400   33.9840 C.2    20  ILE20       0.2260
     37  O         53.4560   21.0930   33.0980 O.2    20  ILE20      -0.2867
     38  CB        54.9590   18.4420   32.9290 C.3    20  ILE20       0.0252
     39  CG1       53.8590   17.3750   32.8980 C.3    20  ILE20       0.0019
     40  CG2       56.3350   17.7830   32.9440 C.3    20  ILE20       0.0019
     41  CD1       53.9860   16.4160   31.7360 C.3    20  ILE20       0.0001
     42  N         51.1340   22.5530   29.8580 N.3    30  ILE30      -0.1245
     43  CA        51.9800   21.3840   30.0710 C.3    30  ILE30       0.1561
     44  C         53.3730   21.6690   29.5000 C.2    30  ILE30       0.2260
     45  O         53.5410   21.7770   28.2820 O.2    30  ILE30      -0.2867
     46  CB        51.3610   20.1290   29.3880 C.3    30  ILE30       0.0252
     47  CG1       50.0250   19.7680   30.0430 C.3    30  ILE30       0.0019
     48  CG2       52.2940   18.9280   29.4610 C.3    30  ILE30       0.0019
     49  CD1       49.3280   18.6130   29.3720 C.3    30  ILE30       0.0001
     50  N         57.2910   21.1710   28.3750 N.3    32  LEU32      -0.1245
     51  CA        58.0550   20.1290   27.6900 C.3    32  LEU32       0.1561
     52  C         59.4730   20.6240   27.5120 C.2    32  LEU32       0.2260
     53  O         59.6760   21.7850   27.1570 O.2    32  LEU32      -0.2867
     54  CB        57.4450   19.8450   26.3140 C.3    32  LEU32       0.0270
     55  CG        55.9730   19.4230   26.2880 C.3    32  LEU32       0.0019
     56  CD1       55.3890   19.5730   24.8840 C.3    32  LEU32       0.0001
     57  CD2       55.8130   17.9970   26.8030 C.3    32  LEU32       0.0001
     58  N         52.2090   22.7940   25.6720 N.3    38  ILE38      -0.1245
     59  CA        50.8730   22.5190   25.1880 C.3    38  ILE38       0.1561
     60  C         49.8920   23.2770   26.0680 C.2    38  ILE38       0.2260
     61  O         49.8960   23.1190   27.2870 O.2    38  ILE38      -0.2867
     62  CB        50.5240   21.0100   25.2060 C.3    38  ILE38       0.0252
     63  CG1       51.5070   20.2240   24.3360 C.3    38  ILE38       0.0019
     64  CG2       49.1020   20.7970   24.6940 C.3    38  ILE38       0.0019
     65  CD1       51.2090   18.7300   24.2280 C.3    38  ILE38       0.0001
     66  N         44.5050   11.0830   26.6710 N.3   111  ALA111     -0.1245
     67  CA        45.9670   10.9820   26.6740 C.3   111  ALA111      0.1562
     68  C         46.5040   10.7020   25.2740 C.2   111  ALA111      0.2260
     69  O         47.5530   11.2120   24.8860 O.2   111  ALA111     -0.2867
     70  CB        46.4270    9.9000   27.6280 C.3   111  ALA111      0.0290
     71  N         46.4200   14.0120   23.3560 N.3   114  LEU114     -0.1231
     72  CA        47.5650   14.8410   23.7240 C.3   114  LEU114      0.1693
     73  C         48.8770   14.3380   23.1250 C.2   114  LEU114      0.2592
     74  O         49.7550   15.1240   22.7660 O.2   114  LEU114     -0.2718
     75  CB        47.7280   14.8890   25.2440 C.3   114  LEU114      0.0284
     76  CG        46.7000   15.6980   26.0090 C.3   114  LEU114      0.0019
     77  CD1       46.9500   15.5720   27.5280 C.3   114  LEU114      0.0001
     78  CD2       46.7930   17.1370   25.5330 C.3   114  LEU114      0.0001
     79  N         49.0150   13.0240   23.0420 N.am  115  HIS115     -0.1976
     80  CA        50.2540   12.4250   22.5770 C.3   115  HIS115      0.1656
     81  C         50.3760   12.5680   21.0700 C.2   115  HIS115      0.2291
     82  O         51.4550   12.8150   20.5690 O.2   115  HIS115     -0.2864
     83  CB        50.3270   10.9570   22.9990 C.3   115  HIS115      0.0771
     84  CG        51.5610   10.2560   22.5380 C.ar  115  HIS115      0.0820
     85  ND1       52.8290   10.6960   22.8520 N.ar  115  HIS115     -0.2267
     86  CD2       51.7240    9.1360   21.7940 C.ar  115  HIS115      0.1154
     87  CE1       53.7210    9.8830   22.3110 C.ar  115  HIS115      0.1986
     88  NE2       53.0760    8.9230   21.6700 N.ar  115  HIS115     -0.2212
     89  N         51.1910   16.2770   20.4820 N.3   118  TYR118     -0.1241
     90  CA        52.6320   16.4230   20.7410 C.3   118  TYR118      0.1605
     91  C         53.4840   15.9320   19.5700 C.2   118  TYR118      0.2264
     92  O         54.4450   16.5690   19.1970 O.2   118  TYR118     -0.2867
     93  CB        53.0270   15.6800   22.0160 C.3   118  TYR118      0.0534
     94  CG        54.5100   15.6550   22.3190 C.ar  118  TYR118     -0.0201
     95  CD1       55.1270   16.7290   22.9400 C.ar  118  TYR118     -0.0009
     96  CD2       55.2910   14.5380   22.0120 C.ar  118  TYR118     -0.0009
     97  CE1       56.4940   16.7150   23.2390 C.ar  118  TYR118      0.0417
     98  CE2       56.6690   14.5050   22.3090 C.ar  118  TYR118      0.0417
     99  CZ        57.2610   15.6030   22.9230 C.ar  118  TYR118      0.1957
    100  OH        58.6150   15.6020   23.2320 O.3   118  TYR118     -0.2866
@<TRIPOS>BOND
     1    92    91    2
     2    91    90    1
     3    89    90    1
     4    82    81    2
     5    90    93    1
     6    81    80    1
     7    88    86   ar
     8    88    87   ar
     9    86    84   ar
    10    96    98   ar
    11    96    94   ar
    12    93    94    1
    13    98    99   ar
    14    87    85   ar
    15    94    95   ar
    16    84    85   ar
    17    84    83    1
    18    80    83    1
    19    80    79    1
    20    74    73    2
    21    99   100    1
    22    99    97   ar
    23    95    97   ar
    24    79    73   am
    25    73    72    1
    26    71    72    1
    27    72    75    1
    28    65    63    1
    29    63    62    1
    30    64    62    1
    31    56    55    1
    32    69    68    2
    33    59    62    1
    34    59    58    1
    35    59    60    1
    36    75    76    1
    37    68    67    1
    38    78    76    1
    39    76    77    1
    40    60    61    2
    41    55    54    1
    42    55    57    1
    43    54    51    1
    44    66    67    1
    45    67    70    1
    46    53    52    2
    47    52    51    1
    48    51    50    1
    49    45    44    2
    50    16    14    1
    51    15    13    1
    52    13    14    1
    53    13    10    1
    54    49    47    1
    55    46    48    1
    56    46    47    1
    57    46    43    1
    58    44    43    1
    59    42    43    1
    60    26    25    1
    61     8     6    1
    62    10    11    1
    63    10     9    1
    64    12    11    2
    65    11    17   am
    66    41    39    1
    67     6     7    1
    68     6     5    1
    69    25    22    1
    70     1     2    1
    71     2     5    1
    72     2     3    1
    73    17    18    1
    74    22    21    1
    75    22    23    1
    76    21    19   am
    77    39    38    1
    78    38    40    1
    79    38    35    1
    80    37    36    2
    81     4     3    2
    82    19    18    1
    83    19    20    2
    84    33    32    1
    85    33    27    1
    86    36    35    1
    87    35    34    1
    88    23    27   am
    89    23    24    2
    90    32    31    1
    91    27    28    1
    92    30    29    2
    93    31    28    1
    94    28    29    1
