@<TRIPOS>MOLECULE
tmp/2xgbA00.pdb
 206 193 0 0 0
SMALL
GASTEIGER

@<TRIPOS>ATOM
      1  N         21.5350   10.3810   34.3190 N.3    12  MET12      -0.1245
      2  CA        20.1260   10.0420   34.4640 C.3    12  MET12       0.1570
      3  C         19.9470    8.9340   35.4550 C.2    12  MET12       0.2261
      4  O         20.6660    7.9290   35.4000 O.2    12  MET12      -0.2867
      5  CB        19.5330    9.5220   33.1700 C.3    12  MET12       0.0387
      6  CG        19.4840   10.4770   32.0490 C.3    12  MET12       0.0595
      7  SD        18.5930    9.7670   30.6630 S.3    12  MET12      -0.1393
      8  CE        18.9380   10.9790   29.3890 C.3    12  MET12       0.0692
      9  N         14.7630    4.6720   35.3870 N.3    15  LEU15      -0.1245
     10  CA        13.4160    5.1170   35.0180 C.3    15  LEU15       0.1561
     11  C         12.4580    5.1190   36.1760 C.2    15  LEU15       0.2260
     12  O         11.6190    6.0590   36.3450 O.2    15  LEU15      -0.2867
     13  CB        12.9130    4.2740   33.8720 C.3    15  LEU15       0.0270
     14  CG        13.5570    4.5990   32.5360 C.3    15  LEU15       0.0019
     15  CD1       13.3170    3.5170   31.5410 C.3    15  LEU15       0.0001
     16  CD2       13.1190    5.9890   32.0190 C.3    15  LEU15       0.0001
     17  N         19.8280   13.5210   36.8000 N.3    46  MET46      -0.1245
     18  CA        18.5840   13.9050   36.1230 C.3    46  MET46       0.1570
     19  C         17.5500   12.8530   36.4440 C.2    46  MET46       0.2261
     20  O         17.8740   11.6460   36.4780 O.2    46  MET46      -0.2867
     21  CB        18.7960   13.9770   34.5890 C.3    46  MET46       0.0387
     22  CG        17.4920   14.0500   33.7690 C.3    46  MET46       0.0595
     23  SD        17.7220   14.1880   31.9570 S.3    46  MET46      -0.1393
     24  CE        18.1750   15.9010   31.7040 C.3    46  MET46       0.0692
     25  N         13.2250   11.6980   35.8410 N.3    48  ASP48      -0.1239
     26  CA        11.8300   11.8380   35.4210 C.3    48  ASP48       0.1674
     27  C         10.9390   12.0480   36.6350 C.2    48  ASP48       0.2266
     28  O         10.9830   11.2420   37.5750 O.2    48  ASP48      -0.2867
     29  CB        11.3520   10.5740   34.7340 C.3    48  ASP48       0.1410
     30  CG        11.9590   10.3470   33.3880 C.2    48  ASP48       0.3668
     31  OD1       11.5090   11.0340   32.4370 O.co2  48  ASP48      -0.2456
     32  OD2       12.8660    9.5050   33.2670 O.co2  48  ASP48      -0.2456
     33  N          7.3280   11.7550   37.1000 N.3    50  TRP50      -0.1241
     34  CA         6.2740   11.1730   36.2730 C.3    50  TRP50       0.1605
     35  C          4.8910   11.6640   36.6520 C.2    50  TRP50       0.2264
     36  O          4.3850   11.4330   37.7720 O.2    50  TRP50      -0.2867
     37  CB         6.2720    9.6120   36.4130 C.3    50  TRP50       0.0550
     38  CG         7.4830    8.9600   35.8590 C.ar   50  TRP50       0.0003
     39  CD1        8.4820    8.3540   36.5500 C.ar   50  TRP50       0.0946
     40  CD2        7.8350    8.8330   34.4660 C.ar   50  TRP50       0.0152
     41  NE1        9.4220    7.8520   35.6910 N.ar   50  TRP50      -0.2442
     42  CE2        9.0500    8.1470   34.4100 C.ar   50  TRP50       0.0810
     43  CE3        7.2090    9.2000   33.2830 C.ar   50  TRP50       0.0012
     44  CZ2        9.6980    7.9050   33.2150 C.ar   50  TRP50       0.0191
     45  CZ3        7.8380    8.9610   32.0930 C.ar   50  TRP50       0.0001
     46  CH2        9.0750    8.3320   32.0610 C.ar   50  TRP50       0.0015
     47  N         12.8370   16.4750   35.1690 N.3    84  ILE84      -0.1245
     48  CA        12.0370   16.4570   33.9640 C.3    84  ILE84       0.1561
     49  C         10.5570   16.4270   34.3610 C.2    84  ILE84       0.2260
     50  O         10.1440   15.5730   35.1570 O.2    84  ILE84      -0.2867
     51  CB        12.3020   15.2020   33.0690 C.3    84  ILE84       0.0252
     52  CG1       13.7920   14.9280   32.8190 C.3    84  ILE84       0.0019
     53  CG2       11.5520   15.2960   31.7610 C.3    84  ILE84       0.0019
     54  CD1       14.1070   13.5250   32.4020 C.3    84  ILE84       0.0001
     55  N          4.3090   12.1520   30.0960 N.3    88  HIS88      -0.1226
     56  CA         4.2550   11.0680   29.1200 C.3    88  HIS88       0.1752
     57  C          4.3400    9.7380   29.8000 C.2    88  HIS88       0.2596
     58  O          4.7330    9.6060   30.9510 O.2    88  HIS88      -0.2718
     59  CB         5.3880   11.2240   28.0930 C.3    88  HIS88       0.0759
     60  CG         6.7740   11.1830   28.6670 C.ar   88  HIS88       0.0818
     61  ND1        7.3670   12.2930   29.2480 N.ar   88  HIS88      -0.2268
     62  CD2        7.6700   10.1620   28.6980 C.ar   88  HIS88       0.1154
     63  CE1        8.5880   11.9140   29.6240 C.ar   88  HIS88       0.1986
     64  NE2        8.7930   10.6340   29.3120 N.ar   88  HIS88      -0.2212
     65  N          4.0310    8.7090   29.0200 N.am   89  GLN89      -0.1965
     66  CA         4.1140    7.3450   29.4770 C.3    89  GLN89       0.1733
     67  C          5.5530    6.8510   29.3990 C.2    89  GLN89       0.2616
     68  O          6.2720    7.0540   28.4120 O.2    89  GLN89      -0.2715
     69  CB         3.2670    6.4490   28.5960 C.3    89  GLN89       0.0408
     70  CG         3.4670    4.9540   28.7890 C.3    89  GLN89       0.0908
     71  CD         2.3760    4.1460   28.1630 C.2    89  GLN89       0.2608
     72  OE1        1.2100    4.2150   28.5390 O.2    89  GLN89      -0.2717
     73  NE2        2.7610    3.3550   27.1540 N.am   89  GLN89      -0.0878
     74  N          5.9670    6.1260   30.4340 N.am   90  CYS90      -0.1968
     75  CA         7.1550    5.2790   30.2950 C.3    90  CYS90       0.1712
     76  C          6.7140    3.8850   29.8420 C.2    90  CYS90       0.2296
     77  O          5.8380    3.3020   30.4610 O.2    90  CYS90      -0.2864
     78  CB         7.9300    5.1360   31.5890 C.3    90  CYS90       0.0983
     79  SG         9.5420    4.4050   31.2760 S.3    90  CYS90      -0.0798
     80  N          8.8810    3.1630   24.0810 N.3    93  ASN93      -0.1225
     81  CA        10.0290    3.7620   23.3830 C.3    93  ASN93       0.1785
     82  C         11.3200    3.0250   23.7050 C.2    93  ASN93       0.2597
     83  O         11.4060    2.2760   24.6760 O.2    93  ASN93      -0.2718
     84  CB        10.1170    5.2560   23.6790 C.3    93  ASN93       0.1169
     85  CG         8.9520    5.9890   23.1000 C.2    93  ASN93       0.2627
     86  OD1        8.7320    5.9630   21.8770 O.2    93  ASN93      -0.2716
     87  ND2        8.1620    6.5930   23.9450 N.am   93  ASN93      -0.0877
     88  N         12.3240    3.2140   22.8560 N.am   94  VAL94      -0.1980
     89  CA        13.5190    2.4020   22.9600 C.3    94  VAL94       0.1595
     90  C         14.1330    2.5610   24.3480 C.2    94  VAL94       0.2287
     91  O         14.2880    3.6670   24.8700 O.2    94  VAL94      -0.2864
     92  CB        14.5380    2.7370   21.8450 C.3    94  VAL94       0.0276
     93  CG1       15.0060    4.1810   21.9280 C.3    94  VAL94       0.0022
     94  CG2       15.7450    1.7750   21.9050 C.3    94  VAL94       0.0022
     95  N         12.9020    1.5380   27.2110 N.3    96  ASP96      -0.1239
     96  CA        12.0000    1.6930   28.3370 C.3    96  ASP96       0.1674
     97  C         11.8870    0.3480   29.0220 C.2    96  ASP96       0.2266
     98  O         11.5850   -0.6490   28.3730 O.2    96  ASP96      -0.2867
     99  CB        10.6160    2.1480   27.8690 C.3    96  ASP96       0.1410
    100  CG        10.5750    3.5920   27.4230 C.2    96  ASP96       0.3668
    101  OD1       11.5940    4.2730   27.5430 O.co2  96  ASP96      -0.2456
    102  OD2        9.4940    4.0140   26.9530 O.co2  96  ASP96      -0.2456
    103  N          8.1600   10.2570   25.2700 N.3   179  ALA179     -0.1231
    104  CA         9.5040   10.1030   25.8210 C.3   179  ALA179      0.1694
    105  C         10.0660   11.4560   26.2660 C.2   179  ALA179      0.2593
    106  O         11.2870   11.6240   26.4010 O.2   179  ALA179     -0.2718
    107  CB        10.4600    9.4110   24.8700 C.3   179  ALA179      0.0304
    108  N          9.1980   12.4280   26.5670 N.am  180  GLY180     -0.1942
    109  CA         9.5890   13.7720   26.9770 C.3   180  GLY180      0.2014
    110  C         10.0430   14.6920   25.8690 C.2   180  GLY180      0.2638
    111  O         10.3480   15.8450   26.1290 O.2   180  GLY180     -0.2714
    112  N         10.0950   14.1900   24.6500 N.am  181  GLU181     -0.1977
    113  CA        10.7110   14.8690   23.5320 C.3   181  GLU181      0.1602
    114  C          9.6510   15.6770   22.7580 C.2   181  GLU181      0.2287
    115  O          8.5300   15.2500   22.5900 O.2   181  GLU181     -0.2864
    116  CB        11.3560   13.8060   22.6460 C.3   181  GLU181      0.0415
    117  CG        12.5030   13.0740   23.3600 C.3   181  GLU181      0.1163
    118  CD        12.7110   11.6180   23.1360 C.2   181  GLU181      0.3649
    119  OE1       12.0460   10.9500   22.3640 O.co2 181  GLU181     -0.2457
    120  OE2       13.7060   11.1450   23.8400 O.co2 181  GLU181     -0.2457
    121  N          8.2150   16.2380   19.8470 N.3   183  ARG183     -0.1245
    122  CA         8.0650   15.4810   18.5940 C.3   183  ARG183      0.1563
    123  C          6.6950   14.8670   18.5530 C.2   183  ARG183      0.2260
    124  O          6.0020   14.7530   19.5800 O.2   183  ARG183     -0.2867
    125  CB         9.1410   14.4140   18.4370 C.3   183  ARG183      0.0307
    126  CG         9.0230   13.2810   19.4400 C.3   183  ARG183      0.0489
    127  CD        10.0960   12.2750   19.2140 C.3   183  ARG183      0.2205
    128  NE        10.1490   11.1750   20.1740 N.pl3 183  ARG183     -0.0865
    129  CZ         9.4970   10.0310   20.0400 C.cat 183  ARG183      0.5346
    130  NH1        8.5640    9.8720   19.1230 N.pl3 183  ARG183      0.1354
    131  NH2        9.7540    9.0240   20.8750 N.pl3 183  ARG183      0.1354
    132  N          7.4150    7.0310   15.1330 N.3   187  TYR187     -0.1241
    133  CA         8.1720    5.7720   15.0840 C.3   187  TYR187      0.1605
    134  C          7.8370    4.8840   16.2760 C.2   187  TYR187      0.2264
    135  O          8.6550    4.6940   17.1820 O.2   187  TYR187     -0.2867
    136  CB         9.7040    6.0390   14.9570 C.3   187  TYR187      0.0534
    137  CG        10.3640    7.0110   15.8870 C.ar  187  TYR187     -0.0201
    138  CD1       10.2830    8.3830   15.6550 C.ar  187  TYR187     -0.0009
    139  CD2       11.1060    6.6030   16.9730 C.ar  187  TYR187     -0.0009
    140  CE1       10.8840    9.2850   16.4640 C.ar  187  TYR187      0.0417
    141  CE2       11.7580    7.5370   17.8080 C.ar  187  TYR187      0.0417
    142  CZ        11.6050    8.8700   17.5340 C.ar  187  TYR187      0.1957
    143  OH        12.2000    9.8600   18.3080 O.3   187  TYR187     -0.2866
    144  N         13.7170   19.0780   25.2330 N.3   290  LYS290     -0.1245
    145  CA        14.4300   17.9680   24.6500 C.3   290  LYS290      0.1561
    146  C         13.9770   17.7610   23.2000 C.2   290  LYS290      0.2260
    147  O         12.8000   17.6060   22.9410 O.2   290  LYS290     -0.2867
    148  CB        14.1610   16.7020   25.4550 C.3   290  LYS290      0.0271
    149  CG        14.7030   15.4510   24.8980 C.3   290  LYS290      0.0035
    150  CD        16.1850   15.3050   24.8480 C.3   290  LYS290      0.0206
    151  CE        16.6170   13.9740   24.2480 C.3   290  LYS290      0.1093
    152  NZ        16.2330   12.8190   25.1430 N.3   290  LYS290     -0.1314
    153  N         14.4590   15.2680   19.9810 N.3   292  SER292     -0.1217
    154  CA        14.8650   13.9390   19.5830 C.3   292  SER292      0.1889
    155  C         15.9100   13.9720   18.4480 C.2   292  SER292      0.2288
    156  O         15.8630   14.8990   17.6360 O.2   292  SER292     -0.2866
    157  CB        13.6000   13.2240   19.1220 C.3   292  SER292      0.2089
    158  OG        13.7270   11.8290   19.1310 O.3   292  SER292     -0.2183
    159  N         20.6780   14.9730   21.7310 N.3   337  THR337     -0.1218
    160  CA        21.0710   13.5830   21.9350 C.3   337  THR337      0.1862
    161  C         22.0370   13.1730   20.8340 C.2   337  THR337      0.2287
    162  O         22.4900   14.0330   20.0730 O.2   337  THR337     -0.2866
    163  CB        19.8200   12.7040   22.0600 C.3   337  THR337      0.1770
    164  OG1       20.1830   11.3830   22.4200 O.3   337  THR337     -0.2211
    165  CG2       18.9580   12.7110   20.8340 C.3   337  THR337      0.0375
    166  N         22.7290   14.6180   25.4660 N.3   375  GLU375     -0.1231
    167  CA        22.7470   13.2700   25.9920 C.3   375  GLU375      0.1699
    168  C         23.3900   12.2950   24.9970 C.2   375  GLU375      0.2592
    169  O         23.5210   12.6070   23.7970 O.2   375  GLU375     -0.2718
    170  CB        21.3120   12.7950   26.2280 C.3   375  GLU375      0.0402
    171  CG        20.5840   13.6480   27.2250 C.3   375  GLU375      0.1161
    172  CD        19.0710   13.3970   27.3580 C.2   375  GLU375      0.3649
    173  OE1       18.4610   14.0490   28.2300 O.co2 375  GLU375     -0.2457
    174  OE2       18.5370   12.5450   26.5960 O.co2 375  GLU375     -0.2457
    175  N         23.7680   11.1130   25.4730 N.am  376  ASN376     -0.1960
    176  CA        23.9820   10.0030   24.5800 C.3   376  ASN376      0.1819
    177  C         22.6630    9.3660   24.2240 C.2   376  ASN376      0.2621
    178  O         21.7460    9.3080   25.0560 O.2   376  ASN376     -0.2715
    179  CB        24.9020    8.9080   25.1580 C.3   376  ASN376      0.1195
    180  CG        24.4510    8.3900   26.4880 C.2   376  ASN376      0.2630
    181  OD1       24.2810    9.1840   27.4350 O.2   376  ASN376     -0.2716
    182  ND2       24.2410    7.0750   26.5900 N.am  376  ASN376     -0.0877
    183  N         22.5320    8.9160   22.9720 N.am  377  ALA377     -0.1977
    184  CA        21.3380    8.2280   22.5130 C.3   377  ALA377      0.1597
    185  C         21.2180    6.8020   23.0140 C.2   377  ALA377      0.2287
    186  O         20.1310    6.4030   23.4220 O.2   377  ALA377     -0.2864
    187  CB        21.3130    8.2530   20.9710 C.3   377  ALA377      0.0319
    188  N         22.9510    8.7370   29.8480 N.3   414  LEU414     -0.1231
    189  CA        21.8840    7.7450   29.9260 C.3   414  LEU414      0.1693
    190  C         22.5460    6.3780   30.0560 C.2   414  LEU414      0.2595
    191  O         23.2280    5.9500   29.1140 O.2   414  LEU414     -0.2718
    192  CB        20.9990    7.8160   28.6910 C.3   414  LEU414      0.0284
    193  CG        19.7440    6.9650   28.4630 C.3   414  LEU414      0.0019
    194  CD1       18.8570    7.5600   27.3520 C.3   414  LEU414      0.0001
    195  CD2       20.1690    5.5730   28.1310 C.3   414  LEU414      0.0001
    196  N         22.3930    5.6540   31.1520 N.am  415  ARG415     -0.1934
    197  CA        21.7480    6.0500   32.4070 C.3   415  ARG415      0.1813
    198  C         22.4250    5.2520   33.5270 C.2   415  ARG415      0.2332
    199  O         23.1280    4.2810   33.2660 O.2   415  ARG415     -0.2860
    200  CB        20.2160    5.9420   32.4380 C.2   415  ARG415      0.0019
    201  CG        19.6140    4.6730   32.5840 C.2   415  ARG415      0.0178
    202  CD        18.0860    4.6690   32.8120 C.3   415  ARG415      0.2464
    203  NE        17.4300    5.2040   31.6340 N.pl3 415  ARG415     -0.0815
    204  CZ        16.7460    6.3350   31.5190 C.cat 415  ARG415      0.5349
    205  NH1       16.5750    7.1350   32.5360 N.pl3 415  ARG415      0.1354
    206  NH2       16.2430    6.6690   30.3520 N.pl3 415  ARG415      0.1354
@<TRIPOS>BOND
     1   136   133    1
     2   136   137    1
     3   133   132    1
     4   133   134    1
     5   138   137   ar
     6   138   140   ar
     7   137   139   ar
     8   134   135    2
     9   140   142   ar
    10   139   141   ar
    11   142   141   ar
    12   142   143    1
    13   156   155    2
    14   125   122    1
    15   125   126    1
    16   155   154    1
    17   123   122    1
    18   123   124    2
    19   122   121    1
    20   157   158    1
    21   157   154    1
    22   130   129    1
    23   127   126    1
    24   127   128    1
    25   154   153    1
    26   129   128    2
    27   129   131    1
    28   162   161    2
    29   161   160    1
    30   165   163    1
    31   187   184    1
    32   159   160    1
    33    92    94    1
    34    92    93    1
    35    92    89    1
    36    86    85    2
    37   160   163    1
    38   163   164    1
    39   119   118   ar
    40   184   183    1
    41   184   185    1
    42   115   114    2
    43   116   117    1
    44   116   113    1
    45   114   113    1
    46    88    89    1
    47    88    82   am
    48   147   146    2
    49    89    90    1
    50   183   177   am
    51   185   186    2
    52    85    84    1
    53    85    87   am
    54   118   117    1
    55   118   120   ar
    56   146   145    1
    57    81    84    1
    58    81    82    1
    59    81    80    1
    60   113   112    1
    61    82    83    2
    62   169   168    2
    63   177   176    1
    64   177   178    2
    65   151   150    1
    66   151   152    1
    67    90    91    2
    68   176   179    1
    69   176   175    1
    70   112   110   am
    71   145   144    1
    72   145   148    1
    73   150   149    1
    74   107   104    1
    75   149   148    1
    76   168   175   am
    77   168   167    1
    78   179   180    1
    79   103   104    1
    80   166   167    1
    81   104   105    1
    82   110   111    2
    83   110   109    1
    84   167   170    1
    85   170   171    1
    86   105   106    2
    87   105   108   am
    88   180   182   am
    89   180   181    2
    90   108   109    1
    91   174   172   ar
    92   102   100   ar
    93    73    71   am
    94    95    96    1
    95   171   172    1
    96   194   193    1
    97   172   173   ar
    98   100   101   ar
    99   100    99    1
   100    99    96    1
   101    59    60    1
   102    59    56    1
   103   195   193    1
   104    71    72    2
   105    71    70    1
   106    96    97    1
   107    98    97    2
   108    68    67    2
   109   193   192    1
   110    69    70    1
   111    69    66    1
   112    60    62   ar
   113    60    61   ar
   114   192   189    1
   115    62    64   ar
   116    65    66    1
   117    65    57   am
   118   191   190    2
   119    56    57    1
   120    56    55    1
   121    61    63   ar
   122    64    63   ar
   123     8     7    1
   124    67    66    1
   125    67    74   am
   126    57    58    2
   127    76    75    1
   128    76    77    2
   129   188   189    1
   130   189   190    1
   131   190   196   am
   132    75    74    1
   133    75    78    1
   134   206   204    1
   135     7     6    1
   136   196   197    1
   137    79    78    1
   138   204   203    2
   139   204   205    1
   140    15    14    1
   141   203   202    1
   142    24    23    1
   143    53    51    1
   144    23    22    1
   145    16    14    1
   146     6     5    1
   147    46    45   ar
   148    46    44   ar
   149    45    43   ar
   150    54    52    1
   151   197   200    1
   152   197   198    1
   153    31    30   ar
   154   200   201    2
   155    14    13    1
   156   201   202    1
   157    52    51    1
   158    51    48    1
   159     5     2    1
   160    44    42   ar
   161   199   198    2
   162    32    30   ar
   163    43    40   ar
   164    30    29    1
   165    22    21    1
   166    13    10    1
   167    48    49    1
   168    48    47    1
   169     1     2    1
   170    49    50    2
   171    42    40   ar
   172    42    41   ar
   173     2     3    1
   174    40    38   ar
   175    21    18    1
   176    29    26    1
   177    10     9    1
   178    10    11    1
   179     4     3    2
   180    26    25    1
   181    26    27    1
   182    41    39   ar
   183    38    37    1
   184    38    39   ar
   185    18    19    1
   186    18    17    1
   187    11    12    2
   188    34    37    1
   189    34    35    1
   190    34    33    1
   191    19    20    2
   192    27    28    2
   193    35    36    2
