@<TRIPOS>MOLECULE
tmp/2xgiA00.pdb
 172 162 0 0 0
SMALL
GASTEIGER

@<TRIPOS>ATOM
      1  N         21.5920   10.3380   34.3320 N.3    13  MET13      -0.1230
      2  CA        20.1800    9.9750   34.4630 C.3    13  MET13       0.1702
      3  C         20.0200    8.8900   35.4850 C.2    13  MET13       0.2592
      4  O         20.7600    7.8850   35.4430 O.2    13  MET13      -0.2718
      5  CB        19.6500    9.3870   33.1730 C.3    13  MET13       0.0401
      6  CG        19.5810   10.3730   32.0570 C.3    13  MET13       0.0596
      7  SD        18.7830    9.6120   30.6520 S.3    13  MET13      -0.1393
      8  CE        19.0980   10.8310   29.3570 C.3    13  MET13       0.0692
      9  N         19.0300    9.0240   36.3560 N.am   14  LEU14      -0.1980
     10  CA        18.6840    7.9860   37.2890 C.3    14  LEU14       0.1596
     11  C         17.9180    6.8570   36.5760 C.2    14  LEU14       0.2287
     12  O         17.4260    7.0290   35.4630 O.2    14  LEU14      -0.2864
     13  CB        17.8750    8.5490   38.4540 C.3    14  LEU14       0.0297
     14  CG        18.6240    9.5520   39.3200 C.3    14  LEU14       0.0022
     15  CD1       17.7850    9.8730   40.5780 C.3    14  LEU14       0.0001
     16  CD2       20.0200    9.1200   39.7110 C.3    14  LEU14       0.0001
     17  N         14.8070    4.5100   35.4910 N.3    16  LEU16      -0.1245
     18  CA        13.4440    4.8860   35.1580 C.3    16  LEU16       0.1561
     19  C         12.4790    4.6760   36.3050 C.2    16  LEU16       0.2260
     20  O         11.4890    5.4100   36.4210 O.2    16  LEU16      -0.2867
     21  CB        12.9850    4.1200   33.9290 C.3    16  LEU16       0.0270
     22  CG        13.6410    4.5710   32.6260 C.3    16  LEU16       0.0019
     23  CD1       13.3710    3.5310   31.5640 C.3    16  LEU16       0.0001
     24  CD2       13.2290    5.9910   32.1960 C.3    16  LEU16       0.0001
     25  N         19.8570   13.4870   36.8600 N.3    47  MET47      -0.1245
     26  CA        18.6170   13.8740   36.1780 C.3    47  MET47       0.1570
     27  C         17.5820   12.8050   36.4800 C.2    47  MET47       0.2261
     28  O         17.9210   11.6050   36.5410 O.2    47  MET47      -0.2867
     29  CB        18.8690   13.9890   34.6590 C.3    47  MET47       0.0387
     30  CG        17.5940   13.9930   33.8150 C.3    47  MET47       0.0595
     31  SD        17.7730   14.0890   32.0020 S.3    47  MET47      -0.1393
     32  CE        18.4870   15.7530   31.8500 C.3    47  MET47       0.0692
     33  N         13.2560   11.6570   35.8270 N.3    49  ASP49      -0.1239
     34  CA        11.8640   11.8220   35.4300 C.3    49  ASP49       0.1674
     35  C         10.9610   12.0440   36.6390 C.2    49  ASP49       0.2266
     36  O         11.0370   11.2800   37.6010 O.2    49  ASP49      -0.2867
     37  CB        11.3670   10.5430   34.7500 C.3    49  ASP49       0.1410
     38  CG        11.9730   10.3300   33.3930 C.2    49  ASP49       0.3668
     39  OD1       11.5230   10.9960   32.4200 O.co2  49  ASP49      -0.2456
     40  OD2       12.8770    9.4770   33.3070 O.co2  49  ASP49      -0.2456
     41  N          7.3560   11.7310   37.1430 N.3    51  TRP51      -0.1241
     42  CA         6.3050   11.1440   36.3080 C.3    51  TRP51       0.1605
     43  C          4.9180   11.6450   36.6600 C.2    51  TRP51       0.2264
     44  O          4.3960   11.4250   37.7780 O.2    51  TRP51      -0.2867
     45  CB         6.2960    9.6160   36.4370 C.3    51  TRP51       0.0550
     46  CG         7.5160    8.9420   35.9040 C.ar   51  TRP51       0.0003
     47  CD1        8.4990    8.3240   36.6040 C.ar   51  TRP51       0.0946
     48  CD2        7.9020    8.8410   34.5130 C.ar   51  TRP51       0.0152
     49  NE1        9.4630    7.8290   35.7500 N.ar   51  TRP51      -0.2442
     50  CE2        9.1090    8.1170   34.4600 C.ar   51  TRP51       0.0810
     51  CE3        7.3070    9.2560   33.3130 C.ar   51  TRP51       0.0012
     52  CZ2        9.7750    7.8870   33.2590 C.ar   51  TRP51       0.0191
     53  CZ3        7.9230    8.9980   32.1400 C.ar   51  TRP51       0.0001
     54  CH2        9.1580    8.3340   32.1070 C.ar   51  TRP51       0.0015
     55  N         12.8840   16.4090   35.1410 N.3    85  ILE85      -0.1245
     56  CA        12.0610   16.3750   33.9400 C.3    85  ILE85       0.1561
     57  C         10.5950   16.3810   34.3560 C.2    85  ILE85       0.2260
     58  O         10.1650   15.5670   35.1620 O.2    85  ILE85      -0.2867
     59  CB        12.3100   15.1180   33.0610 C.3    85  ILE85       0.0252
     60  CG1       13.8100   14.8760   32.7960 C.3    85  ILE85       0.0019
     61  CG2       11.5310   15.2720   31.7410 C.3    85  ILE85       0.0019
     62  CD1       14.1110   13.5020   32.2620 C.3    85  ILE85       0.0001
     63  N          4.4470   12.1820   30.0440 N.3    89  HIS89      -0.1226
     64  CA         4.3810   11.1100   29.0790 C.3    89  HIS89       0.1752
     65  C          4.4440    9.7580   29.7650 C.2    89  HIS89       0.2596
     66  O          4.8300    9.6530   30.9360 O.2    89  HIS89      -0.2718
     67  CB         5.4970   11.2310   28.0580 C.3    89  HIS89       0.0759
     68  CG         6.8870   11.1860   28.6380 C.ar   89  HIS89       0.0818
     69  ND1        7.4880   12.2670   29.2600 N.ar   89  HIS89      -0.2268
     70  CD2        7.7860   10.1710   28.6910 C.ar   89  HIS89       0.1154
     71  CE1        8.7050   11.9210   29.6630 C.ar   89  HIS89       0.1986
     72  NE2        8.9120   10.6480   29.3370 N.ar   89  HIS89      -0.2212
     73  N          4.0770    8.7150   29.0300 N.am   90  GLN90      -0.1965
     74  CA         4.1830    7.3370   29.5040 C.3    90  GLN90       0.1733
     75  C          5.6100    6.8620   29.4650 C.2    90  GLN90       0.2616
     76  O          6.3450    7.0910   28.4800 O.2    90  GLN90      -0.2715
     77  CB         3.3270    6.4570   28.6230 C.3    90  GLN90       0.0408
     78  CG         3.5140    4.9680   28.8100 C.3    90  GLN90       0.0908
     79  CD         2.4820    4.2160   28.0960 C.2    90  GLN90       0.2608
     80  OE1        1.3470    4.1170   28.5160 O.2    90  GLN90      -0.2717
     81  NE2        2.8520    3.7350   26.9260 N.am   90  GLN90      -0.0878
     82  N          6.0130    6.2100   30.5590 N.am   91  CYS91      -0.1954
     83  CA         7.2770    5.5100   30.6180 C.3    91  CYS91       0.1843
     84  C          7.0520    4.1180   30.0620 C.2    91  CYS91       0.2626
     85  O          6.1090    3.4210   30.4390 O.2    91  CYS91      -0.2714
     86  CB         7.7410    5.3600   32.0620 C.3    91  CYS91       0.0997
     87  SG         9.4080    4.6830   32.2590 S.3    91  CYS91      -0.0797
     88  N          7.9440    3.6910   29.1950 N.am   92  GLY92      -0.1954
     89  CA         7.8490    2.3290   28.7050 C.3    92  GLY92       0.1869
     90  C          6.6760    2.1290   27.7660 C.2    92  GLY92       0.2309
     91  O          6.4200    2.9710   26.8640 O.2    92  GLY92      -0.2863
     92  N          8.3840   10.2810   25.2690 N.3   180  ALA180     -0.1231
     93  CA         9.7410   10.2080   25.8000 C.3   180  ALA180      0.1694
     94  C         10.2680   11.5730   26.2630 C.2   180  ALA180      0.2593
     95  O         11.4850   11.7800   26.3440 O.2   180  ALA180     -0.2718
     96  CB        10.7110    9.4930   24.8290 C.3   180  ALA180      0.0304
     97  N          9.3420   12.4820   26.5980 N.am  181  GLY181     -0.1942
     98  CA         9.6790   13.8120   27.0480 C.3   181  GLY181      0.2014
     99  C         10.1320   14.7600   25.9510 C.2   181  GLY181      0.2638
    100  O         10.4680   15.9080   26.2250 O.2   181  GLY181     -0.2714
    101  N         10.0880   14.3190   24.7070 N.am  182  GLU182     -0.1977
    102  CA        10.7080   15.0050   23.5900 C.3   182  GLU182      0.1602
    103  C          9.6750   15.7800   22.7680 C.2   182  GLU182      0.2287
    104  O          8.5540   15.3190   22.5860 O.2   182  GLU182     -0.2864
    105  CB        11.4570   13.9690   22.7400 C.3   182  GLU182      0.0415
    106  CG        12.7550   13.5460   23.4300 C.3   182  GLU182      0.1163
    107  CD        13.2100   12.1340   23.2370 C.2   182  GLU182      0.3649
    108  OE1       12.5850   11.3760   22.4210 O.co2 182  GLU182     -0.2457
    109  OE2       14.2060   11.8210   24.0070 O.co2 182  GLU182     -0.2457
    110  N         13.7380   19.0570   25.2000 N.3   291  LYS291     -0.1245
    111  CA        14.4730   17.9370   24.6300 C.3   291  LYS291      0.1561
    112  C         14.0170   17.7650   23.1690 C.2   291  LYS291      0.2260
    113  O         12.8430   17.6130   22.9190 O.2   291  LYS291     -0.2867
    114  CB        14.2050   16.6600   25.4520 C.3   291  LYS291      0.0271
    115  CG        14.9130   15.4140   24.9680 C.3   291  LYS291      0.0035
    116  CD        16.3590   15.6770   24.9970 C.3   291  LYS291      0.0206
    117  CE        17.2570   14.5540   24.5320 C.3   291  LYS291      0.1093
    118  NZ        18.6010   14.7410   25.0550 N.3   291  LYS291     -0.1314
    119  N         14.3990   15.3790   19.8840 N.3   293  SER293     -0.1217
    120  CA        14.7910   14.0370   19.4810 C.3   293  SER293      0.1889
    121  C         15.8390   14.0600   18.3610 C.2   293  SER293      0.2288
    122  O         15.8210   14.9660   17.5320 O.2   293  SER293     -0.2866
    123  CB        13.5820   13.2320   18.9800 C.3   293  SER293      0.2089
    124  OG        12.5880   13.1200   20.0070 O.3   293  SER293     -0.2183
    125  N         20.6890   14.9980   21.7360 N.3   338  THR338     -0.1218
    126  CA        21.0570   13.6150   21.9150 C.3   338  THR338      0.1862
    127  C         22.0810   13.2290   20.8330 C.2   338  THR338      0.2287
    128  O         22.5670   14.0870   20.0550 O.2   338  THR338     -0.2866
    129  CB        19.8040   12.7530   21.9410 C.3   338  THR338      0.1770
    130  OG1       20.1390   11.4260   22.2960 O.3   338  THR338     -0.2211
    131  CG2       19.0530   12.7440   20.5930 C.3   338  THR338      0.0375
    132  N         22.7440   14.6300   25.4960 N.3   376  GLU376     -0.1231
    133  CA        22.7530   13.2700   26.0270 C.3   376  GLU376      0.1699
    134  C         23.3640   12.3230   25.0170 C.2   376  GLU376      0.2592
    135  O         23.4790   12.6330   23.8210 O.2   376  GLU376     -0.2718
    136  CB        21.3240   12.8380   26.3050 C.3   376  GLU376      0.0402
    137  CG        20.6310   13.6730   27.3280 C.3   376  GLU376      0.1161
    138  CD        19.1160   13.4020   27.4700 C.2   376  GLU376      0.3649
    139  OE1       18.5190   14.0230   28.3770 O.co2 376  GLU376     -0.2457
    140  OE2       18.5280   12.5760   26.6950 O.co2 376  GLU376     -0.2457
    141  N         23.7410   11.1320   25.4630 N.am  377  ASN377     -0.1960
    142  CA        23.9700   10.0110   24.5570 C.3   377  ASN377      0.1819
    143  C         22.6530    9.3920   24.2000 C.2   377  ASN377      0.2621
    144  O         21.7300    9.3610   25.0150 O.2   377  ASN377     -0.2715
    145  CB        24.9020    8.9440   25.1160 C.3   377  ASN377      0.1195
    146  CG        24.4780    8.4440   26.4770 C.2   377  ASN377      0.2630
    147  OD1       24.3290    9.2240   27.4120 O.2   377  ASN377     -0.2716
    148  ND2       24.3380    7.1170   26.6110 N.am  377  ASN377     -0.0877
    149  N         22.5310    8.9410   22.9550 N.am  378  ALA378     -0.1977
    150  CA        21.3140    8.2830   22.4720 C.3   378  ALA378      0.1597
    151  C         21.1900    6.8530   22.9940 C.2   378  ALA378      0.2287
    152  O         20.1040    6.4200   23.3800 O.2   378  ALA378     -0.2864
    153  CB        21.2970    8.2730   20.9440 C.3   378  ALA378      0.0319
    154  N         23.0790    8.7330   29.8500 N.3   415  LEU415     -0.1231
    155  CA        22.0330    7.7110   29.9350 C.3   415  LEU415      0.1693
    156  C         22.7120    6.3570   30.0700 C.2   415  LEU415      0.2591
    157  O         23.3980    5.9430   29.1310 O.2   415  LEU415     -0.2718
    158  CB        21.1790    7.7510   28.6690 C.3   415  LEU415      0.0284
    159  CG        20.0490    6.7600   28.4530 C.3   415  LEU415      0.0019
    160  CD1       19.1620    7.2720   27.2860 C.3   415  LEU415      0.0001
    161  CD2       20.5190    5.3130   28.1600 C.3   415  LEU415      0.0001
    162  N         22.5960    5.6580   31.2040 N.am  416  ARG416     -0.1980
    163  CA        21.9830    6.0780   32.4710 C.3   416  ARG416      0.1597
    164  C         22.6510    5.2820   33.5800 C.2   416  ARG416      0.2287
    165  O         23.4100    4.3320   33.3420 O.2   416  ARG416     -0.2864
    166  CB        20.4570    5.9260   32.5470 C.3   416  ARG416      0.0334
    167  CG        19.9050    4.5660   32.6350 C.3   416  ARG416      0.0492
    168  CD        18.3720    4.5480   32.9110 C.3   416  ARG416      0.2205
    169  NE        17.6720    4.9710   31.7320 N.pl3 416  ARG416     -0.0865
    170  CZ        16.9220    6.0730   31.5760 C.cat 416  ARG416      0.5346
    171  NH1       16.6710    6.9140   32.5690 N.pl3 416  ARG416      0.1354
    172  NH2       16.4160    6.3100   30.3900 N.pl3 416  ARG416      0.1354
@<TRIPOS>BOND
     1   122   121    2
     2   121   120    1
     3   123   120    1
     4   123   124    1
     5   120   119    1
     6   128   127    2
     7   131   129    1
     8   127   126    1
     9   153   150    1
    10   125   126    1
    11   126   129    1
    12   129   130    1
    13   108   107   ar
    14   150   149    1
    15   150   151    1
    16   104   103    2
    17   105   106    1
    18   105   102    1
    19   103   102    1
    20   113   112    2
    21   149   143   am
    22   151   152    2
    23   112   111    1
    24   107   106    1
    25   107   109   ar
    26   102   101    1
    27   135   134    2
    28   143   142    1
    29   143   144    2
    30   117   116    1
    31   117   118    1
    32   142   145    1
    33   142   141    1
    34   111   110    1
    35   111   114    1
    36   101    99   am
    37    96    93    1
    38   115   116    1
    39   115   114    1
    40   134   141   am
    41   134   133    1
    42   145   146    1
    43    92    93    1
    44   132   133    1
    45    93    94    1
    46    99   100    2
    47    99    98    1
    48   133   136    1
    49    94    95    2
    50    94    97   am
    51   136   137    1
    52   146   148   am
    53   146   147    2
    54    97    98    1
    55   140   138   ar
    56    91    90    2
    57    81    79   am
    58   160   159    1
    59   137   138    1
    60   138   139   ar
    61    90    89    1
    62    67    68    1
    63    67    64    1
    64    79    80    2
    65    79    78    1
    66   161   159    1
    67   159   158    1
    68    76    75    2
    69    77    78    1
    70    77    74    1
    71    68    70   ar
    72    68    69   ar
    73   158   155    1
    74    70    72   ar
    75    89    88    1
    76    73    74    1
    77    73    65   am
    78    64    65    1
    79    64    63    1
    80   157   156    2
    81    88    84   am
    82    69    71   ar
    83    72    71   ar
    84     8     7    1
    85    75    74    1
    86    75    82   am
    87    65    66    2
    88   154   155    1
    89   155   156    1
    90    84    85    2
    91    84    83    1
    92   156   162   am
    93   172   170    1
    94    82    83    1
    95    83    86    1
    96     7     6    1
    97   162   163    1
    98    23    22    1
    99   170   169    2
   100   170   171    1
   101   169   168    1
   102    61    59    1
   103    32    31    1
   104    31    30    1
   105     6     5    1
   106    86    87    1
   107    54    53   ar
   108    54    52   ar
   109    53    51   ar
   110    24    22    1
   111    62    60    1
   112    39    38   ar
   113   163   166    1
   114   163   164    1
   115   166   167    1
   116    22    21    1
   117   167   168    1
   118    60    59    1
   119    59    56    1
   120     5     2    1
   121    52    50   ar
   122    40    38   ar
   123    51    48   ar
   124   165   164    2
   125    38    37    1
   126    30    29    1
   127    21    18    1
   128    56    57    1
   129    56    55    1
   130     1     2    1
   131    57    58    2
   132    50    48   ar
   133    50    49   ar
   134     2     3    1
   135    48    46   ar
   136    29    26    1
   137    37    34    1
   138    18    17    1
   139    18    19    1
   140    34    33    1
   141    34    35    1
   142     4     3    2
   143    12    11    2
   144     3     9   am
   145    49    47   ar
   146    46    45    1
   147    46    47   ar
   148    26    27    1
   149    26    25    1
   150    19    20    2
   151    42    45    1
   152    42    43    1
   153    42    41    1
   154     9    10    1
   155    27    28    2
   156    11    10    1
   157    35    36    2
   158    43    44    2
   159    10    13    1
   160    13    14    1
   161    14    16    1
   162    14    15    1
