@<TRIPOS>MOLECULE
tmp/2xgjB00.pdb
 108 104 0 0 0
SMALL
GASTEIGER

@<TRIPOS>ATOM
      1  N         36.2690   -9.2100   -8.5550 N.3    32  PHE32      -0.1227
      2  CA        37.6320   -8.9540   -9.0040 C.3    32  PHE32       0.1736
      3  C         37.6880   -7.9390  -10.1390 C.2    32  PHE32       0.2596
      4  O         36.6610   -7.5560  -10.6980 O.2    32  PHE32      -0.2718
      5  CB        38.3040  -10.2610   -9.4310 C.3    32  PHE32       0.0547
      6  CG        37.4060  -11.1770  -10.2120 C.ar   32  PHE32      -0.0202
      7  CD1       37.0780  -10.8940  -11.5250 C.ar   32  PHE32      -0.0042
      8  CD2       36.8890  -12.3230   -9.6330 C.ar   32  PHE32      -0.0042
      9  CE1       36.2530  -11.7320  -12.2460 C.ar   32  PHE32      -0.0003
     10  CE2       36.0620  -13.1650  -10.3500 C.ar   32  PHE32      -0.0003
     11  CZ        35.7450  -12.8680  -11.6580 C.ar   32  PHE32      -0.0000
     12  N         38.8970   -7.4990  -10.4710 N.am   33  THR33      -0.1939
     13  CA        39.0860   -6.6060  -11.6040 C.3    33  THR33       0.2028
     14  C         39.1270   -7.4400  -12.8740 C.2    33  THR33       0.2642
     15  O         39.9030   -8.3880  -12.9760 O.2    33  THR33      -0.2714
     16  CB        40.3900   -5.8040  -11.4900 C.3    33  THR33       0.1808
     17  OG1       40.4960   -5.2400  -10.1760 O.3    33  THR33      -0.2208
     18  CG2       40.4230   -4.6900  -12.5340 C.3    33  THR33       0.0379
     19  N         38.2900   -7.0840  -13.8400 N.am   34  LEU34      -0.1963
     20  CA        38.1710   -7.8610  -15.0650 C.3    34  LEU34       0.1728
     21  C         39.3770   -7.6840  -15.9780 C.2    34  LEU34       0.2616
     22  O         39.9010   -6.5790  -16.1280 O.2    34  LEU34      -0.2715
     23  CB        36.8970   -7.4790  -15.8150 C.3    34  LEU34       0.0311
     24  CG        35.6030   -7.6320  -15.0300 C.3    34  LEU34       0.0022
     25  CD1       34.4310   -7.1970  -15.8790 C.3    34  LEU34       0.0001
     26  CD2       35.4280   -9.0700  -14.5880 C.3    34  LEU34       0.0001
     27  N         39.8150   -8.7820  -16.5830 N.am   35  ASP35      -0.1971
     28  CA        40.8470   -8.7190  -17.6030 C.3    35  ASP35       0.1709
     29  C         40.2850   -7.9460  -18.7840 C.2    35  ASP35       0.2293
     30  O         39.0920   -8.0300  -19.0720 O.2    35  ASP35      -0.2864
     31  CB        41.2720  -10.1220  -18.0350 C.3    35  ASP35       0.1436
     32  CG        42.0800  -10.8830  -16.9950 C.2    35  ASP35       0.3671
     33  OD1       42.5000  -10.2730  -15.9850 O.co2  35  ASP35      -0.2456
     34  OD2       42.2840  -12.0810  -17.1730 O.co2  35  ASP35      -0.2456
     35  N         37.6810   -9.5540  -20.9440 N.3    38  GLN38      -0.1245
     36  CA        36.3890   -9.7420  -20.2930 C.3    38  GLN38       0.1566
     37  C         35.5940   -8.4420  -20.3150 C.2    38  GLN38       0.2260
     38  O         34.4350   -8.4140  -20.7300 O.2    38  GLN38      -0.2867
     39  CB        36.5820  -10.2060  -18.8500 C.3    38  GLN38       0.0367
     40  CG        37.2200  -11.5750  -18.7200 C.3    38  GLN38       0.0905
     41  CD        37.6580  -11.8770  -17.3020 C.2    38  GLN38       0.2608
     42  OE1       38.1240  -10.9930  -16.5840 O.2    38  GLN38      -0.2717
     43  NE2       37.5160  -13.1310  -16.8930 N.am   38  GLN38      -0.0878
     44  N         41.3630  -22.1870  -21.8300 N.3    57  THR57      -0.1203
     45  CA        40.5210  -22.5540  -20.7000 C.3    57  THR57       0.1994
     46  C         41.1240  -22.0130  -19.4080 C.2    57  THR57       0.2619
     47  O         42.3440  -21.9420  -19.2670 O.2    57  THR57      -0.2717
     48  CB        40.3340  -24.0780  -20.5920 C.3    57  THR57       0.1784
     49  OG1       41.6150  -24.7150  -20.5040 O.3    57  THR57      -0.2211
     50  CG2       39.5920  -24.6100  -21.8100 C.3    57  THR57       0.0376
     51  N         40.2560  -21.6260  -18.4780 N.am   58  SER58      -0.1937
     52  CA        40.6670  -21.0480  -17.2000 C.3    58  SER58       0.2055
     53  C         41.0610  -19.5780  -17.3320 C.2    58  SER58       0.2643
     54  O         41.5050  -18.9590  -16.3660 O.2    58  SER58      -0.2714
     55  CB        41.8040  -21.8550  -16.5660 C.3    58  SER58       0.2130
     56  OG        41.3870  -23.1770  -16.2700 O.3    58  SER58      -0.2179
     57  N         40.8900  -19.0220  -18.5270 N.am   59  ALA59      -0.1963
     58  CA        41.1820  -17.6120  -18.7560 C.3    59  ALA59       0.1728
     59  C         40.1310  -16.7270  -18.0960 C.2    59  ALA59       0.2617
     60  O         40.4290  -15.6180  -17.6520 O.2    59  ALA59      -0.2715
     61  CB        41.2620  -17.3200  -20.2440 C.3    59  ALA59       0.0334
     62  N         38.9000  -17.2250  -18.0380 N.am   60  GLY60      -0.1940
     63  CA        37.8080  -16.5010  -17.4120 C.3    60  GLY60       0.2014
     64  C         36.6850  -16.1710  -18.3760 C.2    60  GLY60       0.2639
     65  O         36.2030  -15.0400  -18.4160 O.2    60  GLY60      -0.2714
     66  N         36.2600  -17.1630  -19.1520 N.am   61  LYS61      -0.1963
     67  CA        35.2100  -16.9600  -20.1460 C.3    61  LYS61       0.1728
     68  C         33.8030  -16.9890  -19.5510 C.2    61  LYS61       0.2617
     69  O         32.9000  -16.3200  -20.0530 O.2    61  LYS61      -0.2715
     70  CB        35.3300  -17.9840  -21.2790 C.3    61  LYS61       0.0311
     71  CG        36.3190  -17.5860  -22.3650 C.3    61  LYS61       0.0038
     72  CD        36.4480  -18.6610  -23.4330 C.3    61  LYS61       0.0206
     73  CE        37.1430  -19.8970  -22.8890 C.3    61  LYS61       0.1093
     74  NZ        37.3830  -20.9100  -23.9520 N.3    61  LYS61      -0.1314
     75  N         33.6200  -17.7620  -18.4840 N.am   62  THR62      -0.1937
     76  CA        32.3060  -17.8940  -17.8580 C.3    62  THR62       0.2028
     77  C         31.7730  -16.5500  -17.3730 C.2    62  THR62       0.2642
     78  O         30.5680  -16.3030  -17.4050 O.2    62  THR62      -0.2714
     79  CB        32.3250  -18.8850  -16.6770 C.3    62  THR62       0.1808
     80  OG1       33.2430  -18.4260  -15.6760 O.3    62  THR62      -0.2208
     81  CG2       32.7380  -20.2700  -17.1490 C.3    62  THR62       0.0379
     82  N         32.6780  -15.6880  -16.9220 N.am   63  VAL63      -0.1977
     83  CA        32.3120  -14.3470  -16.4860 C.3    63  VAL63       0.1596
     84  C         31.4590  -13.6480  -17.5430 C.2    63  VAL63       0.2287
     85  O         30.5080  -12.9380  -17.2190 O.2    63  VAL63      -0.2864
     86  CB        33.5640  -13.4980  -16.1830 C.3    63  VAL63       0.0276
     87  CG1       33.1960  -12.0320  -16.0240 C.3    63  VAL63       0.0022
     88  CG2       34.2680  -14.0190  -14.9400 C.3    63  VAL63       0.0022
     89  N         27.0580  -27.5660  -15.6990 N.3    92  LYS92      -0.1245
     90  CA        26.7450  -26.1560  -15.9060 C.3    92  LYS92       0.1561
     91  C         25.3880  -25.7880  -15.3150 C.2    92  LYS92       0.2260
     92  O         25.2240  -24.7080  -14.7490 O.2    92  LYS92      -0.2867
     93  CB        26.7990  -25.7940  -17.3920 C.3    92  LYS92       0.0271
     94  CG        28.2080  -25.5910  -17.9250 C.3    92  LYS92       0.0035
     95  CD        28.9010  -24.4300  -17.2240 C.3    92  LYS92       0.0206
     96  CE        30.3170  -24.2360  -17.7450 C.3    92  LYS92       0.1093
     97  NZ        31.0160  -23.1100  -17.0650 N.3    92  LYS92      -0.1314
     98  N         44.2990  -21.7460  -11.3870 N.3   389  ARG389     -0.1245
     99  CA        44.3850  -20.2980  -11.2320 C.3   389  ARG389      0.1563
    100  C         44.7290  -19.8680   -9.8100 C.2   389  ARG389      0.2260
    101  O         45.6620  -19.0940   -9.5970 O.2   389  ARG389     -0.2867
    102  CB        43.0800  -19.6420  -11.6850 C.3   389  ARG389      0.0307
    103  CG        43.1840  -18.1560  -11.9910 C.3   389  ARG389      0.0489
    104  CD        42.1530  -17.7830  -13.0410 C.3   389  ARG389      0.2205
    105  NE        41.9910  -16.3430  -13.2110 N.pl3 389  ARG389     -0.0865
    106  CZ        42.7980  -15.5840  -13.9430 C.cat 389  ARG389      0.5346
    107  NH1       43.8360  -16.1260  -14.5580 N.pl3 389  ARG389      0.1354
    108  NH2       42.5750  -14.2830  -14.0520 N.pl3 389  ARG389      0.1354
@<TRIPOS>BOND
     1    74    73    1
     2    72    73    1
     3    72    71    1
     4    71    70    1
     5    44    45    1
     6    50    48    1
     7    70    67    1
     8    35    36    1
     9    38    37    2
    10    45    48    1
    11    45    46    1
    12    48    49    1
    13    37    36    1
    14    36    39    1
    15    61    58    1
    16    67    68    1
    17    67    66    1
    18    69    68    2
    19    68    75   am
    20    46    47    2
    21    46    51   am
    22    66    64   am
    23    30    29    2
    24    39    40    1
    25    29    28    1
    26    58    57    1
    27    58    59    1
    28    40    41    1
    29    57    53   am
    30    75    76    1
    31    51    52    1
    32    65    64    2
    33    64    63    1
    34    59    62   am
    35    59    60    2
    36    62    63    1
    37    31    28    1
    38    31    32    1
    39    94    93    1
    40    94    95    1
    41    76    77    1
    42    76    79    1
    43    96    95    1
    44    96    97    1
    45    28    27    1
    46    84    85    2
    47    84    83    1
    48    78    77    2
    49    93    90    1
    50    77    82   am
    51    53    52    1
    52    53    54    2
    53    41    43   am
    54    41    42    2
    55    52    55    1
    56    34    32   ar
    57    81    79    1
    58    32    33   ar
    59    82    83    1
    60    79    80    1
    61    27    21   am
    62    55    56    1
    63    83    86    1
    64    86    87    1
    65    86    88    1
    66    22    21    2
    67    21    20    1
    68    90    89    1
    69    90    91    1
    70    25    24    1
    71    23    20    1
    72    23    24    1
    73    91    92    2
    74    20    19    1
    75    24    26    1
    76   107   106    1
    77   108   106    1
    78   106   105    2
    79    19    14   am
    80   105   104    1
    81   104   103    1
    82    15    14    2
    83    14    13    1
    84    18    16    1
    85     9    11   ar
    86     9     7   ar
    87   103   102    1
    88   102    99    1
    89    11    10   ar
    90    13    16    1
    91    13    12    1
    92     7     6   ar
    93    16    17    1
    94    98    99    1
    95    99   100    1
    96     4     3    2
    97    12     3   am
    98    10     8   ar
    99     6     8   ar
   100     6     5    1
   101     3     2    1
   102   100   101    2
   103     5     2    1
   104     2     1    1
