@<TRIPOS>MOLECULE
tmp/2xgjA00.pdb
 116 110 0 0 0
SMALL
GASTEIGER

@<TRIPOS>ATOM
      1  N        -15.6070  -53.0650   34.1810 N.3    69  PHE69      -0.1227
      2  CA       -16.7060  -53.2540   33.2420 C.3    69  PHE69       0.1736
      3  C        -16.4050  -54.3310   32.2050 C.2    69  PHE69       0.2596
      4  O        -15.2910  -54.8490   32.1360 O.2    69  PHE69      -0.2718
      5  CB       -17.0130  -51.9330   32.5370 C.3    69  PHE69       0.0547
      6  CG       -15.7870  -51.1380   32.1910 C.ar   69  PHE69      -0.0202
      7  CD1      -15.0250  -51.4600   31.0800 C.ar   69  PHE69      -0.0042
      8  CD2      -15.3910  -50.0730   32.9830 C.ar   69  PHE69      -0.0042
      9  CE1      -13.8940  -50.7310   30.7630 C.ar   69  PHE69      -0.0003
     10  CE2      -14.2610  -49.3410   32.6710 C.ar   69  PHE69      -0.0003
     11  CZ       -13.5120  -49.6710   31.5600 C.ar   69  PHE69      -0.0000
     12  N        -17.4110  -54.6590   31.4010 N.am   70  THR70      -0.1953
     13  CA       -17.2510  -55.6140   30.3110 C.3    70  THR70       0.1897
     14  C        -16.8270  -54.8980   29.0320 C.2    70  THR70       0.2313
     15  O        -17.4450  -53.9150   28.6240 O.2    70  THR70      -0.2863
     16  CB       -18.5520  -56.3970   30.0510 C.3    70  THR70       0.1794
     17  OG1      -18.8640  -57.2020   31.1950 O.3    70  THR70      -0.2208
     18  CG2      -18.4000  -57.2960   28.8330 C.3    70  THR70       0.0378
     19  N        -16.1100  -53.7480   25.2110 N.3    72  ASP72      -0.1239
     20  CA       -16.8210  -53.7100   23.9420 C.3    72  ASP72       0.1674
     21  C        -16.0100  -54.5070   22.9240 C.2    72  ASP72       0.2266
     22  O        -14.7870  -54.5900   23.0370 O.2    72  ASP72      -0.2867
     23  CB       -16.9870  -52.2610   23.4750 C.3    72  ASP72       0.1410
     24  CG       -17.9430  -52.1260   22.3030 C.2    72  ASP72       0.3668
     25  OD1      -17.4890  -52.2380   21.1440 O.co2  72  ASP72      -0.2456
     26  OD2      -19.1490  -51.9040   22.5410 O.co2  72  ASP72      -0.2456
     27  N        -12.9380  -52.9290   21.7120 N.3    75  GLN75      -0.1245
     28  CA       -11.8720  -52.8510   22.7050 C.3    75  GLN75       0.1566
     29  C        -11.1470  -54.1840   22.8410 C.2    75  GLN75       0.2260
     30  O         -9.9180  -54.2310   22.9050 O.2    75  GLN75      -0.2867
     31  CB       -12.4330  -52.4260   24.0620 C.3    75  GLN75       0.0367
     32  CG       -12.8600  -50.9730   24.1340 C.3    75  GLN75       0.0905
     33  CD       -13.5860  -50.6470   25.4230 C.2    75  GLN75       0.2608
     34  OE1      -14.4530  -51.4000   25.8670 O.2    75  GLN75      -0.2717
     35  NE2      -13.2390  -49.5180   26.0290 N.am   75  GLN75      -0.0878
     36  N        -15.0600  -39.8780   20.5810 N.3    94  THR94      -0.1203
     37  CA       -14.3390  -39.4970   21.7910 C.3    94  THR94       0.1994
     38  C        -14.8030  -40.2280   23.0500 C.2    94  THR94       0.2619
     39  O        -14.0000  -40.5120   23.9340 O.2    94  THR94      -0.2717
     40  CB       -14.4230  -37.9780   22.0390 C.3    94  THR94       0.1784
     41  OG1      -15.7960  -37.5880   22.1620 O.3    94  THR94      -0.2211
     42  CG2      -13.7840  -37.2140   20.8910 C.3    94  THR94       0.0376
     43  N        -16.0910  -40.5330   23.1360 N.am   95  SER95      -0.1937
     44  CA       -16.6390  -41.1200   24.3560 C.3    95  SER95       0.2055
     45  C        -16.5060  -42.6440   24.4270 C.2    95  SER95       0.2643
     46  O        -16.7160  -43.2400   25.4830 O.2    95  SER95      -0.2714
     47  CB       -18.1050  -40.7170   24.5260 C.3    95  SER95       0.2130
     48  OG       -18.6530  -41.2920   25.6990 O.3    95  SER95      -0.2179
     49  N        -16.1440  -43.2650   23.3070 N.am   96  ALA96      -0.1963
     50  CA       -16.1490  -44.7250   23.1860 C.3    96  ALA96       0.1728
     51  C        -15.3490  -45.4680   24.2610 C.2    96  ALA96       0.2617
     52  O        -15.8860  -46.3370   24.9490 O.2    96  ALA96      -0.2715
     53  CB       -15.6870  -45.1420   21.7980 C.3    96  ALA96       0.0334
     54  N        -14.0670  -45.1440   24.3900 N.am   97  GLY97      -0.1940
     55  CA       -13.2250  -45.7900   25.3810 C.3    97  GLY97       0.2014
     56  C        -11.8630  -46.1960   24.8510 C.2    97  GLY97       0.2639
     57  O        -11.3810  -47.2950   25.1230 O.2    97  GLY97      -0.2714
     58  N        -11.2380  -45.2980   24.0970 N.am   98  LYS98      -0.1963
     59  CA        -9.9330  -45.5670   23.5080 C.3    98  LYS98       0.1728
     60  C         -8.8180  -45.5860   24.5530 C.2    98  LYS98       0.2617
     61  O         -7.7690  -46.1940   24.3390 O.2    98  LYS98      -0.2715
     62  CB        -9.6260  -44.5460   22.4100 C.3    98  LYS98       0.0311
     63  CG       -10.4780  -44.7180   21.1600 C.3    98  LYS98       0.0038
     64  CD       -10.2920  -43.5630   20.1880 C.3    98  LYS98       0.0206
     65  CE       -10.9200  -42.2860   20.7220 C.3    98  LYS98       0.1093
     66  NZ       -10.7540  -41.1500   19.7750 N.3    98  LYS98      -0.1314
     67  N         -9.0490  -44.9250   25.6830 N.am   99  THR99      -0.1937
     68  CA        -8.0580  -44.8880   26.7530 C.3    99  THR99       0.2028
     69  C         -7.8590  -46.2740   27.3600 C.2    99  THR99       0.2642
     70  O         -6.7600  -46.6180   27.7930 O.2    99  THR99      -0.2714
     71  CB        -8.4400  -43.8870   27.8610 C.3    99  THR99       0.1808
     72  OG1       -8.6090  -42.5820   27.2930 O.3    99  THR99      -0.2208
     73  CG2       -7.3550  -43.8270   28.9270 C.3    99  THR99       0.0379
     74  N         -8.9260  -47.0660   27.3900 N.am  100  VAL100     -0.1977
     75  CA        -8.8400  -48.4390   27.8710 C.3   100  VAL100      0.1596
     76  C         -7.7760  -49.2110   27.0980 C.2   100  VAL100      0.2287
     77  O         -6.9900  -49.9590   27.6790 O.2   100  VAL100     -0.2864
     78  CB       -10.1910  -49.1700   27.7460 C.3   100  VAL100      0.0276
     79  CG1       -9.9860  -50.6780   27.7480 C.3   100  VAL100      0.0022
     80  CG2      -11.1300  -48.7470   28.8650 C.3   100  VAL100      0.0022
     81  N         -3.7950  -38.1340   35.0710 N.3   132  GLU132     -0.1245
     82  CA        -4.6690  -39.3030   35.0500 C.3   132  GLU132      0.1567
     83  C         -3.8850  -40.6150   35.0950 C.2   132  GLU132      0.2260
     84  O         -4.2750  -41.5550   35.7890 O.2   132  GLU132     -0.2867
     85  CB        -5.5760  -39.2800   33.8170 C.3   132  GLU132      0.0388
     86  CG        -6.5710  -40.4280   33.7680 C.3   132  GLU132      0.1160
     87  CD        -7.2430  -40.5690   32.4150 C.2   132  GLU132      0.3649
     88  OE1       -7.1800  -39.6120   31.6140 O.co2 132  GLU132     -0.2457
     89  OE2       -7.8350  -41.6380   32.1540 O.co2 132  GLU132     -0.2457
     90  N        -10.1900  -33.2730   27.4160 N.3   400  LEU400     -0.1231
     91  CA       -10.6550  -34.5270   27.9670 C.3   400  LEU400      0.1693
     92  C        -11.3920  -34.4030   29.2880 C.2   400  LEU400      0.2592
     93  O        -11.0070  -33.6290   30.1460 O.2   400  LEU400     -0.2718
     94  CB        -9.4870  -35.4950   28.1240 C.3   400  LEU400      0.0284
     95  CG        -8.8940  -36.0590   26.8340 C.3   400  LEU400      0.0019
     96  CD1       -7.6690  -36.8730   27.1810 C.3   400  LEU400      0.0001
     97  CD2       -9.8750  -36.9330   26.0950 C.3   400  LEU400      0.0001
     98  N        -12.4170  -35.2300   29.4610 N.am  401  ASN401     -0.1974
     99  CA       -13.2260  -35.2370   30.6660 C.3   401  ASN401      0.1688
    100  C        -13.9260  -33.9230   30.9340 C.2   401  ASN401      0.2292
    101  O        -14.0140  -33.4920   32.0760 O.2   401  ASN401     -0.2864
    102  CB       -12.3770  -35.5900   31.8630 C.3   401  ASN401      0.1181
    103  CG       -12.0750  -37.0660   31.9440 C.2   401  ASN401      0.2629
    104  OD1      -12.6190  -37.8870   31.2230 O.2   401  ASN401     -0.2716
    105  ND2      -11.1820  -37.4590   32.8030 N.am  401  ASN401     -0.0877
    106  N        -20.8420  -40.1930   29.8710 N.3   438  ARG438     -0.1245
    107  CA       -21.0070  -41.6350   29.6810 C.3   438  ARG438      0.1563
    108  C        -21.8630  -42.3530   30.7280 C.2   438  ARG438      0.2260
    109  O        -22.8070  -43.0610   30.3790 O.2   438  ARG438     -0.2867
    110  CB       -19.6390  -42.3150   29.5510 C.3   438  ARG438      0.0307
    111  CG       -19.6130  -43.4710   28.5600 C.3   438  ARG438      0.0489
    112  CD       -19.8040  -44.8130   29.2450 C.3   438  ARG438      0.2205
    113  NE       -19.8760  -45.9150   28.2880 N.pl3 438  ARG438     -0.0865
    114  CZ       -18.8380  -46.3760   27.5950 C.cat 438  ARG438      0.5346
    115  NH1      -17.6410  -45.8250   27.7390 N.pl3 438  ARG438      0.1354
    116  NH2      -18.9990  -47.3850   26.7500 N.pl3 438  ARG438      0.1354
@<TRIPOS>BOND
     1    66    65    1
     2    64    65    1
     3    64    63    1
     4    36    37    1
     5    42    40    1
     6    25    24   ar
     7    63    62    1
     8    27    28    1
     9    37    40    1
    10    37    38    1
    11    53    50    1
    12    40    41    1
    13    24    26   ar
    14    24    23    1
    15    62    59    1
    16    28    29    1
    17    28    31    1
    18    29    30    2
    19    21    22    2
    20    21    20    1
    21    38    43   am
    22    38    39    2
    23    43    44    1
    24    50    49    1
    25    50    51    1
    26    49    45   am
    27    23    20    1
    28    59    58    1
    29    59    60    1
    30    20    19    1
    31    31    32    1
    32    58    56   am
    33    32    33    1
    34    51    54   am
    35    51    52    2
    36    61    60    2
    37    44    45    1
    38    44    47    1
    39    54    55    1
    40    45    46    2
    41    47    48    1
    42    60    67   am
    43    56    57    2
    44    56    55    1
    45    33    34    2
    46    33    35   am
    47    67    68    1
    48    97    95    1
    49   116   114    1
    50    68    69    1
    51    68    71    1
    52    95    96    1
    53    95    94    1
    54    76    77    2
    55    76    75    1
    56    72    71    1
    57    69    74   am
    58    69    70    2
    59    74    75    1
    60    90    91    1
    61   114   115    1
    62   114   113    2
    63    78    79    1
    64    78    75    1
    65    78    80    1
    66    71    73    1
    67    91    94    1
    68    91    92    1
    69   113   112    1
    70   111   112    1
    71   111   110    1
    72    15    14    2
    73    18    16    1
    74    14    13    1
    75    92    98   am
    76    92    93    2
    77    98    99    1
    78   110   107    1
    79   107   106    1
    80   107   108    1
    81    16    13    1
    82    16    17    1
    83    13    12    1
    84   109   108    2
    85    99   100    1
    86    99   102    1
    87     9     7   ar
    88     9    11   ar
    89   100   101    2
    90     7     6   ar
    91   104   103    2
    92    12     3   am
    93    11    10   ar
    94    88    87   ar
    95   102   103    1
    96   103   105   am
    97     4     3    2
    98    89    87   ar
    99     6     5    1
   100     6     8   ar
   101     3     2    1
   102    87    86    1
   103     5     2    1
   104    10     8   ar
   105     2     1    1
   106    86    85    1
   107    85    82    1
   108    82    81    1
   109    82    83    1
   110    83    84    2
