@<TRIPOS>MOLECULE
tmp/2xgmB00.pdb
 92 88 0 0 0
SMALL
GASTEIGER

@<TRIPOS>ATOM
      1  N         24.9880   18.2650   23.8930 N.3   196  LEU196     -0.1245
      2  CA        23.6950   18.9040   23.8010 C.3   196  LEU196      0.1561
      3  C         23.3040   19.7400   25.0430 C.2   196  LEU196      0.2260
      4  O         22.5760   20.7470   24.9050 O.2   196  LEU196     -0.2867
      5  CB        22.6430   17.8230   23.5240 C.3   196  LEU196      0.0270
      6  CG        21.1370   18.1160   23.4700 C.3   196  LEU196      0.0019
      7  CD1       20.8100   19.3900   22.6970 C.3   196  LEU196      0.0001
      8  CD2       20.3810   16.9210   22.8810 C.3   196  LEU196      0.0001
      9  N          8.6610    7.1470   23.3920 N.3   386  LEU386     -0.1245
     10  CA         9.7050    6.7930   22.4600 C.3   386  LEU386      0.1561
     11  C          9.6560    5.3110   22.0920 C.2   386  LEU386      0.2260
     12  O          9.4370    4.4730   22.9450 O.2   386  LEU386     -0.2867
     13  CB        11.0420    7.0790   23.1020 C.3   386  LEU386      0.0270
     14  CG        11.3770    8.5520   23.2040 C.3   386  LEU386      0.0019
     15  CD1       12.7510    8.7350   23.8300 C.3   386  LEU386      0.0001
     16  CD2       11.2980    9.1430   21.8140 C.3   386  LEU386      0.0001
     17  N          7.0910    7.0520   19.0890 N.3   413  MET413     -0.1231
     18  CA         7.8660    7.9120   18.2100 C.3   413  MET413      0.1687
     19  C          9.1360    7.1790   17.7930 C.2   413  MET413      0.2434
     20  O          9.8150    6.5790   18.6410 O.2   413  MET413     -0.2733
     21  CB         8.2070    9.2300   18.9120 C.3   413  MET413      0.0400
     22  CG         8.9030   10.2660   18.0280 C.3   413  MET413      0.0596
     23  SD         9.4440   11.7310   18.9530 S.3   413  MET413     -0.1393
     24  CE        11.1920   11.4060   19.1870 C.3   413  MET413      0.0692
     25  N          9.4750    7.2300   16.4920 N.am  414  PRO414     -0.2718
     26  CA        10.7200    6.6020   16.0620 C.3   414  PRO414      0.1535
     27  C         11.9410    7.4750   16.4350 C.2   414  PRO414      0.2598
     28  O         11.7820    8.5720   17.0130 O.2   414  PRO414     -0.2715
     29  CB        10.5440    6.4970   14.5520 C.3   414  PRO414      0.0310
     30  CG         9.7120    7.7020   14.2060 C.3   414  PRO414      0.0237
     31  CD         8.8430    8.0030   15.4080 C.3   414  PRO414      0.0939
     32  N         13.1430    6.9760   16.1320 N.am  415  LYS415     -0.1964
     33  CA        14.3960    7.7060   16.3910 C.3   415  LYS415      0.1728
     34  C         14.5380    8.8110   15.3510 C.2   415  LYS415      0.2616
     35  O         14.3350    8.5840   14.1500 O.2   415  LYS415     -0.2715
     36  CB        15.5890    6.7600   16.2700 C.3   415  LYS415      0.0311
     37  CG        16.8010    7.1610   17.0850 C.3   415  LYS415      0.0038
     38  CD        18.1200    6.7110   16.4200 C.3   415  LYS415      0.0206
     39  CE        19.3170    7.0060   17.3460 C.3   415  LYS415      0.1093
     40  NZ        19.2240    8.3410   18.0380 N.3   415  LYS415     -0.1314
     41  N         14.8850   10.0030   15.8060 N.am  416  LEU416     -0.1977
     42  CA        14.8910   11.1670   14.9310 C.3   416  LEU416      0.1596
     43  C         16.0060   12.1550   15.2880 C.2   416  LEU416      0.2287
     44  O         16.3360   12.3250   16.4720 O.2   416  LEU416     -0.2864
     45  CB        13.5330   11.8770   14.9870 C.3   416  LEU416      0.0297
     46  CG        12.2810   11.3190   14.3090 C.3   416  LEU416      0.0022
     47  CD1       11.0940   12.1460   14.7560 C.3   416  LEU416      0.0001
     48  CD2       12.4010   11.3670   12.7920 C.3   416  LEU416      0.0001
     49  N         17.8650   15.3830   16.4840 N.3   418  HIS418     -0.1241
     50  CA        17.3690   16.2390   17.5620 C.3   418  HIS418      0.1621
     51  C         16.3700   17.3310   17.1230 C.2   418  HIS418      0.2264
     52  O         15.3290   17.5040   17.7480 O.2   418  HIS418     -0.2867
     53  CB        18.4930   16.8560   18.3930 C.3   418  HIS418      0.0745
     54  CG        17.9910   17.5950   19.5930 C.ar  418  HIS418      0.0817
     55  ND1       17.6250   16.9540   20.7550 N.ar  418  HIS418     -0.2268
     56  CD2       17.7500   18.9120   19.7980 C.ar  418  HIS418      0.1154
     57  CE1       17.2120   17.8480   21.6360 C.ar  418  HIS418      0.1986
     58  NE2       17.2700   19.0430   21.0780 N.ar  418  HIS418     -0.2212
     59  N         13.0340   15.8660   16.3980 N.3   421  TYR421     -0.1241
     60  CA        12.5970   15.2410   17.6500 C.3   421  TYR421      0.1605
     61  C         12.1060   16.3220   18.6010 C.2   421  TYR421      0.2264
     62  O         10.9980   16.2500   19.1280 O.2   421  TYR421     -0.2867
     63  CB        13.7350   14.4120   18.3020 C.3   421  TYR421      0.0534
     64  CG        13.7560   14.4780   19.8140 C.ar  421  TYR421     -0.0201
     65  CD1       12.8730   13.7180   20.5750 C.ar  421  TYR421     -0.0009
     66  CD2       14.6430   15.3360   20.4930 C.ar  421  TYR421     -0.0009
     67  CE1       12.8680   13.7800   21.9690 C.ar  421  TYR421      0.0417
     68  CE2       14.6370   15.4230   21.9070 C.ar  421  TYR421      0.0417
     69  CZ        13.7410   14.6260   22.6200 C.ar  421  TYR421      0.1957
     70  OH        13.7090   14.6780   23.9820 O.3   421  TYR421     -0.2866
     71  N         17.7460   14.7850   30.2920 N.3   441  THR441     -0.1203
     72  CA        17.8410   15.6920   29.1620 C.3   441  THR441      0.1994
     73  C         16.4920   15.8560   28.5320 C.2   441  THR441      0.2618
     74  O         16.1970   16.9530   28.0480 O.2   441  THR441     -0.2717
     75  CB        18.8710   15.3390   28.0580 C.3   441  THR441      0.1784
     76  OG1       18.4370   14.1620   27.3740 O.3   441  THR441     -0.2211
     77  CG2       20.1930   15.0310   28.6370 C.3   441  THR441      0.0376
     78  N         15.6720   14.8060   28.5440 N.am  442  THR442     -0.1952
     79  CA        14.3310   14.9440   27.9840 C.3   442  THR442      0.1897
     80  C         13.4710   15.8610   28.8310 C.2   442  THR442      0.2313
     81  O         12.6290   16.5970   28.2880 O.2   442  THR442     -0.2863
     82  CB        13.5910   13.6250   27.7480 C.3   442  THR442      0.1794
     83  OG1       13.5570   12.8660   28.9610 O.3   442  THR442     -0.2208
     84  CG2       14.2760   12.8330   26.6590 C.3   442  THR442      0.0378
     85  N         14.3620   19.1960   27.8260 N.3   445  ASP445     -0.1239
     86  CA        13.8320   19.3820   26.4640 C.3   445  ASP445      0.1674
     87  C         12.3950   19.8220   26.5130 C.2   445  ASP445      0.2266
     88  O         12.0770   20.8630   25.9740 O.2   445  ASP445     -0.2867
     89  CB        13.9340   18.1210   25.6060 C.3   445  ASP445      0.1410
     90  CG        15.3440   17.8340   25.1510 C.2   445  ASP445      0.3668
     91  OD1       16.2430   18.6610   25.4170 O.co2 445  ASP445     -0.2456
     92  OD2       15.5470   16.7750   24.5190 O.co2 445  ASP445     -0.2456
@<TRIPOS>BOND
     1    48    46    1
     2    35    34    2
     3    30    29    1
     4    30    31    1
     5    46    47    1
     6    46    45    1
     7    29    26    1
     8    42    45    1
     9    42    43    1
    10    42    41    1
    11    43    44    2
    12    34    41   am
    13    34    33    1
    14    31    25    1
    15    26    27    1
    16    26    25    1
    17    32    33    1
    18    32    27   am
    19    36    33    1
    20    36    37    1
    21    59    60    1
    22    38    37    1
    23    38    39    1
    24    27    28    2
    25    49    50    1
    26    25    19   am
    27    51    50    1
    28    51    52    2
    29    39    40    1
    30    50    53    1
    31    60    63    1
    32    60    61    1
    33    19    18    1
    34    19    20    2
    35    22    21    1
    36    22    23    1
    37    18    21    1
    38    18    17    1
    39    63    64    1
    40    53    54    1
    41    61    62    2
    42    23    24    1
    43    54    56   ar
    44    54    55   ar
    45    56    58   ar
    46    64    66   ar
    47    64    65   ar
    48    66    68   ar
    49    65    67   ar
    50    55    57   ar
    51    58    57   ar
    52    16    14    1
    53    68    69   ar
    54    67    69   ar
    55    11    10    1
    56    11    12    2
    57    10    13    1
    58    10     9    1
    59    69    70    1
    60     7     6    1
    61     8     6    1
    62    13    14    1
    63    14    15    1
    64     6     5    1
    65     5     2    1
    66     2     1    1
    67     2     3    1
    68    92    90   ar
    69     4     3    2
    70    90    91   ar
    71    90    89    1
    72    89    86    1
    73    88    87    2
    74    86    87    1
    75    86    85    1
    76    84    82    1
    77    76    75    1
    78    82    79    1
    79    82    83    1
    80    79    78    1
    81    79    80    1
    82    74    73    2
    83    75    77    1
    84    75    72    1
    85    81    80    2
    86    73    78   am
    87    73    72    1
    88    72    71    1
