@<TRIPOS>MOLECULE
tmp/2xgoA00.pdb
 199 194 0 0 0
SMALL
GASTEIGER

@<TRIPOS>ATOM
      1  N         22.4510   -4.9530   -5.8390 N.3   117  ARG117     -0.1245
      2  CA        22.7930   -4.4340   -4.5160 C.3   117  ARG117      0.1563
      3  C         23.3730   -5.5180   -3.5960 C.2   117  ARG117      0.2260
      4  O         24.1180   -5.2320   -2.6690 O.2   117  ARG117     -0.2867
      5  CB        21.5890   -3.8110   -3.8380 C.3   117  ARG117      0.0307
      6  CG        21.0550   -2.5590   -4.4760 C.3   117  ARG117      0.0489
      7  CD        20.0310   -1.8580   -3.5610 C.3   117  ARG117      0.2205
      8  NE        19.1750   -0.8770   -4.2580 N.pl3 117  ARG117     -0.0865
      9  CZ        19.3950    0.4520   -4.3320 C.cat 117  ARG117      0.5346
     10  NH1       18.5270    1.2310   -4.9940 N.pl3 117  ARG117      0.1354
     11  NH2       20.4560    1.0150   -3.7370 N.pl3 117  ARG117      0.1354
     12  N         17.1700    5.5350  -12.6260 N.3   145  PHE145     -0.1241
     13  CA        18.3690    5.5220  -11.8380 C.3   145  PHE145      0.1605
     14  C         18.9540    4.1140  -11.6370 C.2   145  PHE145      0.2264
     15  O         20.1680    3.9360  -11.6850 O.2   145  PHE145     -0.2867
     16  CB        18.1230    6.2010  -10.5280 C.3   145  PHE145      0.0534
     17  CG        19.2810    6.1460   -9.6140 C.ar  145  PHE145     -0.0203
     18  CD1       19.5000    5.0060   -8.7950 C.ar  145  PHE145     -0.0042
     19  CD2       20.1590    7.2310   -9.5270 C.ar  145  PHE145     -0.0042
     20  CE1       20.6050    4.9320   -7.8930 C.ar  145  PHE145     -0.0003
     21  CE2       21.2810    7.1730   -8.6500 C.ar  145  PHE145     -0.0003
     22  CZ        21.5020    6.0180   -7.8240 C.ar  145  PHE145     -0.0000
     23  N         23.6240   15.4630    5.0900 N.3   197  ALA197     -0.1231
     24  CA        24.7530   14.5640    4.9310 C.3   197  ALA197      0.1694
     25  C         24.5310   13.5480    3.8180 C.2   197  ALA197      0.2592
     26  O         24.3560   12.3590    4.0620 O.2   197  ALA197     -0.2718
     27  CB        25.1200   13.9030    6.2330 C.3   197  ALA197      0.0304
     28  N         24.5720   14.0530    2.5810 N.am  198  HIS198     -0.1962
     29  CA        24.2940   13.2810    1.3820 C.3   198  HIS198      0.1772
     30  C         25.1400   13.8240    0.2490 C.2   198  HIS198      0.2462
     31  O         25.6420   14.9320    0.3090 O.2   198  HIS198     -0.2730
     32  CB        22.8140   13.3740    1.0350 C.3   198  HIS198      0.0785
     33  CG        21.9210   12.9560    2.1560 C.ar  198  HIS198      0.0821
     34  ND1       21.6360   11.6310    2.4320 N.ar  198  HIS198     -0.2267
     35  CD2       21.3060   13.6820    3.1200 C.ar  198  HIS198      0.1154
     36  CE1       20.8750   11.5590    3.5110 C.ar  198  HIS198      0.1986
     37  NE2       20.6490   12.7890    3.9410 N.ar  198  HIS198     -0.2212
     38  N         25.3220   13.0410   -0.8000 N.am  199  PRO199     -0.2727
     39  CA        26.1600   13.5700   -1.8440 C.3   199  PRO199      0.1402
     40  C         25.8510   15.0320   -2.2270 C.2   199  PRO199      0.2269
     41  O         26.7570   15.8790   -2.2160 O.2   199  PRO199     -0.2865
     42  CB        25.8740   12.6180   -3.0150 C.3   199  PRO199      0.0296
     43  CG        25.5630   11.3430   -2.3600 C.3   199  PRO199      0.0237
     44  CD        25.0210   11.6160   -1.0030 C.3   199  PRO199      0.0939
     45  N         26.9260   17.6110   -0.0430 N.3   202  LEU202     -0.1245
     46  CA        28.3630   17.4960    0.1290 C.3   202  LEU202      0.1561
     47  C         29.1340   18.0890   -1.0560 C.2   202  LEU202      0.2260
     48  O         30.2720   18.5150   -0.9080 O.2   202  LEU202     -0.2867
     49  CB        28.6720   16.0330    0.2360 C.3   202  LEU202      0.0270
     50  CG        29.9130   15.3590    0.7540 C.3   202  LEU202      0.0019
     51  CD1       30.3810   15.9770    2.0540 C.3   202  LEU202      0.0001
     52  CD2       29.4870   13.8900    0.9620 C.3   202  LEU202      0.0001
     53  N         35.2350    2.4650   -3.1100 N.3   363  PHE363     -0.1227
     54  CA        34.2240    2.7150   -2.1310 C.3   363  PHE363      0.1736
     55  C         32.8480    3.0350   -2.7170 C.2   363  PHE363      0.2595
     56  O         32.0080    3.6600   -2.0540 O.2   363  PHE363     -0.2718
     57  CB        34.6880    3.8260   -1.2280 C.3   363  PHE363      0.0547
     58  CG        35.7900    3.4260   -0.2900 C.ar  363  PHE363     -0.0202
     59  CD1       35.9070    2.1110    0.1600 C.ar  363  PHE363     -0.0042
     60  CD2       36.6770    4.3840    0.2040 C.ar  363  PHE363     -0.0042
     61  CE1       36.9040    1.7480    1.0670 C.ar  363  PHE363     -0.0003
     62  CE2       37.6750    4.0250    1.0900 C.ar  363  PHE363     -0.0003
     63  CZ        37.7820    2.6940    1.5270 C.ar  363  PHE363     -0.0000
     64  N         32.5780    2.5780   -3.9310 N.am  364  ASN364     -0.1960
     65  CA        31.2720    2.7570   -4.5110 C.3   364  ASN364      0.1819
     66  C         30.2790    1.8150   -3.8700 C.2   364  ASN364      0.2621
     67  O         30.6800    0.7450   -3.4280 O.2   364  ASN364     -0.2715
     68  CB        31.3550    2.4710   -5.9890 C.3   364  ASN364      0.1195
     69  CG        32.0540    3.5530   -6.7470 C.2   364  ASN364      0.2630
     70  OD1       32.1470    4.6940   -6.2870 O.2   364  ASN364     -0.2716
     71  ND2       32.5260    3.2220   -7.9420 N.am  364  ASN364     -0.0877
     72  N         28.9950    2.1850   -3.8350 N.am  365  ASN365     -0.1972
     73  CA        27.9530    1.2620   -3.3850 C.3   365  ASN365      0.1688
     74  C         27.9450   -0.0210   -4.1920 C.2   365  ASN365      0.2292
     75  O         28.4240   -0.0710   -5.3230 O.2   365  ASN365     -0.2864
     76  CB        26.5610    1.8630   -3.5210 C.3   365  ASN365      0.1181
     77  CG        26.3280    3.0880   -2.6250 C.2   365  ASN365      0.2629
     78  OD1       26.7640    3.1610   -1.4550 O.2   365  ASN365     -0.2716
     79  ND2       25.6050    4.0680   -3.1950 N.am  365  ASN365     -0.0877
     80  N         25.9760   -1.8350   -5.9280 N.3   367  TYR367     -0.1227
     81  CA        25.3830   -1.9860   -7.2400 C.3   367  TYR367      0.1736
     82  C         26.3100   -1.5370   -8.3750 C.2   367  TYR367      0.2595
     83  O         26.0530   -1.8490   -9.5580 O.2   367  TYR367     -0.2718
     84  CB        24.0140   -1.3150   -7.3270 C.3   367  TYR367      0.0548
     85  CG        23.9990    0.1190   -6.9500 C.ar  367  TYR367     -0.0200
     86  CD1       24.3710    1.0880   -7.8580 C.ar  367  TYR367     -0.0009
     87  CD2       23.6270    0.5150   -5.6610 C.ar  367  TYR367     -0.0009
     88  CE1       24.3520    2.4420   -7.5090 C.ar  367  TYR367      0.0417
     89  CE2       23.6240    1.8480   -5.2880 C.ar  367  TYR367      0.0417
     90  CZ        23.9710    2.8060   -6.2160 C.ar  367  TYR367      0.1957
     91  OH        23.9840    4.1220   -5.8530 O.3   367  TYR367     -0.2866
     92  N         27.3930   -0.8450   -8.0350 N.am  368  LYS368     -0.1980
     93  CA        28.3680   -0.4830   -9.0440 C.3   368  LYS368      0.1596
     94  C         29.4090   -1.5910   -9.1820 C.2   368  LYS368      0.2287
     95  O         30.0910   -1.6610  -10.1890 O.2   368  LYS368     -0.2864
     96  CB        29.0180    0.8410   -8.7220 C.3   368  LYS368      0.0298
     97  CG        28.0590    1.9830   -8.8120 C.3   368  LYS368      0.0038
     98  CD        28.6240    3.2040   -8.1730 C.3   368  LYS368      0.0206
     99  CE        27.7450    4.3680   -8.3920 C.3   368  LYS368      0.1093
    100  NZ        28.3960    5.6720   -8.0380 N.3   368  LYS368     -0.1314
    101  N         33.8750   -0.8870    0.3770 N.3   392  LEU392     -0.1245
    102  CA        32.7890   -0.6450    1.3170 C.3   392  LEU392      0.1561
    103  C         32.0570   -1.9230    1.6850 C.2   392  LEU392      0.2260
    104  O         31.8710   -2.7810    0.8550 O.2   392  LEU392     -0.2867
    105  CB        31.7620    0.3520    0.7470 C.3   392  LEU392      0.0270
    106  CG        31.9370    1.8360    1.0560 C.3   392  LEU392      0.0019
    107  CD1       30.7760    2.5770    0.5010 C.3   392  LEU392      0.0001
    108  CD2       31.9880    2.0440    2.5580 C.3   392  LEU392      0.0001
    109  N         35.1890   -2.0440    4.7600 N.3   419  MET419     -0.1245
    110  CA        34.9740   -0.9170    5.6610 C.3   419  MET419      0.1570
    111  C         33.4920   -0.7810    5.9880 C.2   419  MET419      0.2261
    112  O         32.6660   -0.7990    5.0830 O.2   419  MET419     -0.2867
    113  CB        35.4770    0.3430    4.9810 C.3   419  MET419      0.0387
    114  CG        35.6140    1.5170    5.8850 C.3   419  MET419      0.0595
    115  SD        35.9300    2.9500    4.8470 S.3   419  MET419     -0.1393
    116  CE        34.2810    3.5840    4.6470 C.3   419  MET419      0.0692
    117  N         30.1390    1.3700    7.4610 N.3   421  LYS421     -0.1231
    118  CA        29.6020    2.6740    7.1740 C.3   421  LYS421      0.1693
    119  C         30.0980    3.6380    8.2250 C.2   421  LYS421      0.2591
    120  O         29.9410    3.4220    9.4080 O.2   421  LYS421     -0.2718
    121  CB        28.0650    2.6150    7.2160 C.3   421  LYS421      0.0285
    122  CG        27.3820    3.8110    6.5060 C.3   421  LYS421      0.0035
    123  CD        25.8650    3.6220    6.3150 C.3   421  LYS421      0.0206
    124  CE        25.1870    4.9670    5.8610 C.3   421  LYS421      0.1093
    125  NZ        25.0230    5.8990    7.0700 N.3   421  LYS421     -0.1314
    126  N         30.6800    4.7280    7.7830 N.am  422  LEU422     -0.1980
    127  CA        31.2380    5.6650    8.7200 C.3   422  LEU422      0.1596
    128  C         30.7250    7.0500    8.3930 C.2   422  LEU422      0.2287
    129  O         30.5010    7.3490    7.2260 O.2   422  LEU422     -0.2864
    130  CB        32.7750    5.6070    8.6410 C.3   422  LEU422      0.0297
    131  CG        33.4350    4.4460    9.3640 C.3   422  LEU422      0.0022
    132  CD1       34.8540    4.3940    8.9280 C.3   422  LEU422      0.0001
    133  CD2       33.3460    4.6040   10.8630 C.3   422  LEU422      0.0001
    134  N         30.9020   10.7830    7.3010 N.3   424  HIS424     -0.1241
    135  CA        31.8040   11.4200    6.3450 C.3   424  HIS424      0.1621
    136  C         33.1990   11.7750    6.8900 C.2   424  HIS424      0.2264
    137  O         34.1810   11.3020    6.3540 O.2   424  HIS424     -0.2867
    138  CB        31.1400   12.6240    5.6580 C.3   424  HIS424      0.0745
    139  CG        31.9040   13.1100    4.4750 C.ar  424  HIS424      0.0817
    140  ND1       31.8710   12.4620    3.2550 N.ar  424  HIS424     -0.2268
    141  CD2       32.7750   14.1380    4.3340 C.ar  424  HIS424      0.1154
    142  CE1       32.6660   13.0840    2.4090 C.ar  424  HIS424      0.1986
    143  NE2       33.2230   14.1070    3.0360 N.ar  424  HIS424     -0.2212
    144  N         35.1380    8.5770    7.3910 N.3   427  TYR427     -0.1241
    145  CA        35.3270    7.8390    6.1590 C.3   427  TYR427      0.1605
    146  C         36.4150    8.4730    5.2790 C.2   427  TYR427      0.2264
    147  O         37.2900    7.7920    4.6900 O.2   427  TYR427     -0.2867
    148  CB        33.9890    7.7880    5.4080 C.3   427  TYR427      0.0534
    149  CG        34.0480    7.9200    3.9010 C.ar  427  TYR427     -0.0201
    150  CD1       34.3400    6.8350    3.0940 C.ar  427  TYR427     -0.0009
    151  CD2       33.7600    9.1340    3.2760 C.ar  427  TYR427     -0.0009
    152  CE1       34.3650    6.9590    1.6920 C.ar  427  TYR427      0.0417
    153  CE2       33.7970    9.2710    1.8910 C.ar  427  TYR427      0.0417
    154  CZ        34.0960    8.1900    1.1030 C.ar  427  TYR427      0.1957
    155  OH        34.1410    8.3430   -0.2640 O.3   427  TYR427     -0.2866
    156  N         29.0830    2.3870  -14.2940 N.3   443  TYR443     -0.1241
    157  CA        28.6400    3.4060  -13.3720 C.3   443  TYR443      0.1605
    158  C         29.7870    3.8490  -12.4480 C.2   443  TYR443      0.2264
    159  O         30.1000    3.2030  -11.4590 O.2   443  TYR443     -0.2867
    160  CB        27.4280    2.8930  -12.6030 C.3   443  TYR443      0.0534
    161  CG        26.6180    3.9420  -11.8910 C.ar  443  TYR443     -0.0201
    162  CD1       25.3840    3.6240  -11.3500 C.ar  443  TYR443     -0.0009
    163  CD2       27.0860    5.2690  -11.7420 C.ar  443  TYR443     -0.0009
    164  CE1       24.6390    4.5860  -10.6570 C.ar  443  TYR443      0.0417
    165  CE2       26.3460    6.2280  -11.0530 C.ar  443  TYR443      0.0417
    166  CZ        25.1300    5.8820  -10.5250 C.ar  443  TYR443      0.1957
    167  OH        24.3780    6.8220   -9.8670 O.3   443  TYR443     -0.2866
    168  N         31.3200    8.7360   -8.3010 N.3   446  HIS446     -0.1226
    169  CA        30.9480   10.0970   -8.6060 C.3   446  HIS446      0.1752
    170  C         31.4800   10.9590   -7.4550 C.2   446  HIS446      0.2597
    171  O         32.6230   11.4750   -7.4870 O.2   446  HIS446     -0.2718
    172  CB        29.4340   10.2290   -8.8270 C.3   446  HIS446      0.0759
    173  CG        28.9320    9.6950  -10.1570 C.ar  446  HIS446      0.0818
    174  ND1       29.6900    8.8900  -11.0070 N.ar  446  HIS446     -0.2268
    175  CD2       27.7160    9.8120  -10.7560 C.ar  446  HIS446      0.1154
    176  CE1       28.9800    8.5770  -12.0790 C.ar  446  HIS446      0.1986
    177  NE2       27.7810    9.1280  -11.9520 N.ar  446  HIS446     -0.2212
    178  N         30.6620   11.0910   -6.4250 N.am  447  THR447     -0.1939
    179  CA        31.0770   11.7660   -5.2320 C.3   447  THR447      0.2028
    180  C         32.3780   11.1470   -4.6890 C.2   447  THR447      0.2642
    181  O         33.3480   11.8740   -4.4190 O.2   447  THR447     -0.2714
    182  CB        29.9410   11.7570   -4.2140 C.3   447  THR447      0.1808
    183  OG1       29.1920   12.9700   -4.3250 O.3   447  THR447     -0.2208
    184  CG2       30.4680   11.6930   -2.8470 C.3   447  THR447      0.0379
    185  N         32.4350    9.8180   -4.5820 N.am  448  THR448     -0.1950
    186  CA        33.6330    9.1900   -4.0350 C.3   448  THR448      0.1897
    187  C         34.9080    9.4480   -4.8490 C.2   448  THR448      0.2313
    188  O         35.9900    9.5710   -4.2870 O.2   448  THR448     -0.2863
    189  CB        33.4850    7.6880   -3.8600 C.3   448  THR448      0.1794
    190  OG1       33.2600    7.1180   -5.1390 O.3   448  THR448     -0.2208
    191  CG2       32.3330    7.3450   -2.9100 C.3   448  THR448      0.0378
    192  N         35.9370   12.6430   -3.5150 N.3   451  ASP451     -0.1239
    193  CA        36.5150   12.3900   -2.1960 C.3   451  ASP451      0.1674
    194  C         37.9220   11.8770   -2.3320 C.2   451  ASP451      0.2266
    195  O         38.8390   12.4850   -1.8220 O.2   451  ASP451     -0.2867
    196  CB        35.6900   11.3600   -1.4350 C.3   451  ASP451      0.1410
    197  CG        34.2430   11.8220   -1.1500 C.2   451  ASP451      0.3668
    198  OD1       33.9080   13.0210   -1.2720 O.co2 451  ASP451     -0.2456
    199  OD2       33.4300   10.9670   -0.7640 O.co2 451  ASP451     -0.2456
@<TRIPOS>BOND
     1   156   157    1
     2   157   160    1
     3   157   158    1
     4    12    13    1
     5   160   161    1
     6   158   159    2
     7   176   177   ar
     8   176   174   ar
     9   177   175   ar
    10   161   163   ar
    11   161   162   ar
    12    13    14    1
    13    13    16    1
    14   163   165   ar
    15    15    14    2
    16   162   164   ar
    17   165   166   ar
    18   174   173   ar
    19   175   173   ar
    20   164   166   ar
    21    16    17    1
    22   166   167    1
    23    95    94    2
    24   173   172    1
    25    17    19   ar
    26    17    18   ar
    27    83    82    2
    28    19    21   ar
    29    94    93    1
    30    93    96    1
    31    93    92    1
    32   172   169    1
    33    97    96    1
    34    97    98    1
    35    18    20   ar
    36    21    22   ar
    37   169   168    1
    38   169   170    1
    39    99    98    1
    40    99   100    1
    41    82    92   am
    42    82    81    1
    43    71    69   am
    44    20    22   ar
    45    86    88   ar
    46    86    85   ar
    47    88    90   ar
    48   171   170    2
    49   170   178   am
    50    84    81    1
    51    84    85    1
    52    81    80    1
    53    85    87   ar
    54    69    70    2
    55    69    68    1
    56   178   179    1
    57    90    91    1
    58    90    89   ar
    59    68    65    1
    60     1     2    1
    61    87    89   ar
    62    75    74    2
    63   179   180    1
    64   179   182    1
    65   190   189    1
    66    10     9    1
    67   187   188    2
    68   187   186    1
    69   180   185   am
    70   180   181    2
    71   185   186    1
    72     2     5    1
    73     2     3    1
    74    65    64    1
    75    65    66    1
    76     6     5    1
    77     6     7    1
    78     9     8    2
    79     9    11    1
    80   183   182    1
    81     8     7    1
    82   182   184    1
    83    74    73    1
    84   186   189    1
    85    64    55   am
    86    66    72   am
    87    66    67    2
    88   189   191    1
    89    72    73    1
    90     3     4    2
    91    76    73    1
    92    76    77    1
    93   192   193    1
    94    79    77   am
    95    53    54    1
    96    42    43    1
    97    42    39    1
    98    55    54    1
    99    55    56    2
   100    77    78    2
   101    43    44    1
   102   194   193    1
   103   194   195    2
   104    40    41    2
   105    40    39    1
   106   193   196    1
   107    54    57    1
   108    39    38    1
   109   196   197    1
   110   198   197   ar
   111    57    58    1
   112   197   199   ar
   113    47    48    2
   114    47    46    1
   115    44    38    1
   116    38    30   am
   117    58    59   ar
   118    58    60   ar
   119   155   154    1
   120    45    46    1
   121    46    49    1
   122    59    61   ar
   123    60    62   ar
   124    49    50    1
   125    30    31    2
   126    30    29    1
   127   101   102    1
   128   107   106    1
   129   105   106    1
   130   105   102    1
   131    50    52    1
   132    50    51    1
   133   104   103    2
   134    32    29    1
   135    32    33    1
   136   106   108    1
   137    61    63   ar
   138    62    63   ar
   139   154   152   ar
   140   154   153   ar
   141   102   103    1
   142    29    28    1
   143   152   150   ar
   144   153   151   ar
   145    33    34   ar
   146    33    35   ar
   147   142   143   ar
   148   142   140   ar
   149    34    36   ar
   150    28    25   am
   151   143   141   ar
   152   150   149   ar
   153    35    37   ar
   154   140   139   ar
   155   151   149   ar
   156    36    37   ar
   157    25    26    2
   158    25    24    1
   159   149   148    1
   160   141   139   ar
   161   139   138    1
   162   116   115    1
   163   147   146    2
   164   109   110    1
   165   115   114    1
   166    24    23    1
   167    24    27    1
   168   113   110    1
   169   113   114    1
   170   112   111    2
   171   146   145    1
   172   148   145    1
   173   138   135    1
   174   110   111    1
   175   124   123    1
   176   124   125    1
   177   145   144    1
   178   123   122    1
   179   135   136    1
   180   135   134    1
   181   137   136    2
   182   122   121    1
   183   118   121    1
   184   118   117    1
   185   118   119    1
   186   129   128    2
   187   126   119   am
   188   126   127    1
   189   119   120    2
   190   128   127    1
   191   130   127    1
   192   130   131    1
   193   132   131    1
   194   131   133    1
