@<TRIPOS>MOLECULE
tmp/2xgrA04.pdb
 82 79 0 0 0
SMALL
GASTEIGER

@<TRIPOS>ATOM
      1  N          0.8900   65.5950   17.6210 N.3    56  ASP56      -0.1239
      2  CA         1.7140   66.6070   18.3290 C.3    56  ASP56       0.1674
      3  C          1.9520   67.7380   17.3190 C.2    56  ASP56       0.2266
      4  O          2.4250   67.5230   16.1940 O.2    56  ASP56      -0.2867
      5  CB         3.0620   65.9610   18.7330 C.3    56  ASP56       0.1410
      6  CG         2.9490   65.1350   20.0130 C.2    56  ASP56       0.3668
      7  OD1        1.9290   65.2320   20.6740 O.co2  56  ASP56      -0.2456
      8  OD2        3.8840   64.3990   20.3890 O.co2  56  ASP56      -0.2456
      9  N          7.4830   68.3600   17.1170 N.3    59  THR59      -0.1203
     10  CA         8.0920   67.0880   17.5740 C.3    59  THR59       0.1994
     11  C          9.5240   67.3230   18.0170 C.2    59  THR59       0.2617
     12  O         10.0210   68.4290   17.9160 O.2    59  THR59      -0.2717
     13  CB         8.0570   66.0280   16.4550 C.3    59  THR59       0.1784
     14  OG1        8.5610   66.6510   15.2720 O.3    59  THR59      -0.2211
     15  CG2        6.6100   65.5920   16.2180 C.3    59  THR59       0.0376
     16  N         10.1760   66.2450   18.4510 N.am   60  LYS60      -0.1979
     17  CA        11.4900   66.2830   19.1250 C.3    60  LYS60       0.1596
     18  C         12.6040   66.8740   18.2370 C.2    60  LYS60       0.2287
     19  O         12.5760   66.6970   17.0350 O.2    60  LYS60      -0.2864
     20  CB        11.8610   64.8490   19.5490 C.3    60  LYS60       0.0298
     21  CG        12.5560   64.1040   18.4350 C.3    60  LYS60       0.0038
     22  CD        13.0620   62.6910   18.8560 C.3    60  LYS60       0.0206
     23  CE        14.1800   62.1400   17.9000 C.3    60  LYS60       0.1093
     24  NZ        14.0940   62.6320   16.4750 N.3    60  LYS60      -0.1314
     25  N         17.9090   58.9040    9.6810 N.3    66  ARG66      -0.1231
     26  CA        16.9540   57.7970    9.8680 C.3    66  ARG66       0.1694
     27  C         15.4860   58.2990    9.8900 C.2    66  ARG66       0.2593
     28  O         15.1690   59.3380   10.4680 O.2    66  ARG66      -0.2718
     29  CB        17.2760   57.0830   11.1650 C.3    66  ARG66       0.0321
     30  CG        18.5730   56.1970   11.0860 C.3    66  ARG66       0.0489
     31  CD        18.6690   55.2920   12.3030 C.3    66  ARG66       0.2205
     32  NE        18.7150   56.0470   13.5450 N.pl3  66  ARG66      -0.0865
     33  CZ        18.4960   55.5310   14.7620 C.cat  66  ARG66       0.5346
     34  NH1       18.1940   54.2370   14.9360 N.pl3  66  ARG66       0.1354
     35  NH2       18.5940   56.3240   15.8330 N.pl3  66  ARG66       0.1354
     36  N         14.6370   57.5790    9.1800 N.am   67  GLY67      -0.1942
     37  CA        13.2230   57.9200    9.1170 C.3    67  GLY67       0.2014
     38  C         12.3890   56.8070    9.7280 C.2    67  GLY67       0.2638
     39  O         12.8330   55.6200    9.9100 O.2    67  GLY67      -0.2714
     40  N         11.1580   57.1600   10.1060 N.am   68  HIS68      -0.1973
     41  CA        10.3190   56.2010   10.7550 C.3    68  HIS68       0.1656
     42  C          9.8250   55.1300    9.7510 C.2    68  HIS68       0.2291
     43  O          9.6750   55.4170    8.5610 O.2    68  HIS68      -0.2864
     44  CB         9.0190   56.9040   11.2270 C.3    68  HIS68       0.0771
     45  CG         9.1830   57.6260   12.5430 C.ar   68  HIS68       0.0820
     46  ND1       10.1240   58.6140   12.7210 N.ar   68  HIS68      -0.2267
     47  CD2        8.5120   57.5340   13.7110 C.ar   68  HIS68       0.1154
     48  CE1       10.0610   59.0620   13.9650 C.ar   68  HIS68       0.1986
     49  NE2        9.0700   58.4530   14.5720 N.ar   68  HIS68      -0.2212
     50  N          4.8610   56.0910   10.5540 N.3    71  GLY71      -0.1210
     51  CA         5.0520   57.5080   10.9050 C.3    71  GLY71       0.1956
     52  C          4.6110   57.8630   12.3210 C.2    71  GLY71       0.2612
     53  O          3.6690   57.2700   12.9310 O.2    71  GLY71      -0.2717
     54  N          5.2150   58.9540   12.7860 N.am   72  TYR72      -0.1962
     55  CA         5.0320   59.3500   14.1860 C.3    72  TYR72       0.1771
     56  C          3.5950   59.5310   14.6340 C.2    72  TYR72       0.2619
     57  O          3.2380   59.0690   15.7290 O.2    72  TYR72      -0.2715
     58  CB         5.7920   60.7120   14.3950 C.3    72  TYR72       0.0574
     59  CG         5.7060   61.1570   15.8100 C.ar   72  TYR72      -0.0198
     60  CD1        6.4230   60.5210   16.8210 C.ar   72  TYR72      -0.0009
     61  CD2        4.8050   62.1320   16.1640 C.ar   72  TYR72      -0.0009
     62  CE1        6.3620   60.9560   18.1550 C.ar   72  TYR72       0.0417
     63  CE2        4.7440   62.5960   17.5010 C.ar   72  TYR72       0.0417
     64  CZ         5.4670   61.9490   18.4810 C.ar   72  TYR72       0.1957
     65  OH         5.3770   62.3700   19.8020 O.3    72  TYR72      -0.2866
     66  N          2.7590   60.2280   13.8540 N.am   73  GLN73      -0.1977
     67  CA         1.4390   60.5610   14.4000 C.3    73  GLN73       0.1601
     68  C          0.5600   59.3270   14.4930 C.2    73  GLN73       0.2287
     69  O         -0.4740   59.3310   15.1580 O.2    73  GLN73      -0.2864
     70  CB         0.7430   61.6380   13.5650 C.3    73  GLN73       0.0394
     71  CG         1.4400   62.9910   13.6160 C.3    73  GLN73       0.0908
     72  CD         0.5170   64.1310   13.2570 C.2    73  GLN73       0.2608
     73  OE1        0.6700   65.2710   13.7730 O.2    73  GLN73      -0.2717
     74  NE2       -0.3750   63.8900   12.3580 N.am   73  GLN73      -0.0878
     75  N         11.2370   59.8000    2.5650 N.3    92  ASN92      -0.1240
     76  CA        10.5650   60.1120    3.8190 C.3    92  ASN92       0.1653
     77  C          9.3790   61.1070    3.6120 C.2    92  ASN92       0.2266
     78  O          8.2120   60.8040    3.9020 O.2    92  ASN92      -0.2867
     79  CB        11.5850   60.6490    4.8220 C.3    92  ASN92       0.1155
     80  CG        10.9410   61.0610    6.1790 C.2    92  ASN92       0.2627
     81  OD1       10.2990   60.2640    6.8400 O.2    92  ASN92      -0.2716
     82  ND2       11.2310   62.2950    6.6220 N.am   92  ASN92      -0.0877
@<TRIPOS>BOND
     1    75    76    1
     2    77    76    1
     3    77    78    2
     4    76    79    1
     5    79    80    1
     6    80    82   am
     7    80    81    2
     8    43    42    2
     9    37    36    1
    10    37    38    1
    11    36    27   am
    12    25    26    1
    13    38    39    2
    14    38    40   am
    15    42    41    1
    16    26    27    1
    17    26    29    1
    18    27    28    2
    19    40    41    1
    20    50    51    1
    21    41    44    1
    22    51    52    1
    23    30    29    1
    24    30    31    1
    25    44    45    1
    26    31    32    1
    27    52    54   am
    28    52    53    2
    29    74    72   am
    30    45    46   ar
    31    45    47   ar
    32    46    48   ar
    33    54    55    1
    34    72    71    1
    35    72    73    2
    36    32    33    2
    37    70    71    1
    38    70    67    1
    39    47    49   ar
    40    66    67    1
    41    66    56   am
    42    48    49   ar
    43    55    58    1
    44    55    56    1
    45    58    59    1
    46    67    68    1
    47    68    69    2
    48    56    57    2
    49    33    34    1
    50    33    35    1
    51    14    13    1
    52    59    61   ar
    53    59    60   ar
    54    61    63   ar
    55     4     3    2
    56    15    13    1
    57    13    10    1
    58    24    23    1
    59    60    62   ar
    60    19    18    2
    61     9    10    1
    62     3     2    1
    63    63    64   ar
    64    10    11    1
    65     1     2    1
    66    23    22    1
    67    12    11    2
    68    11    16   am
    69    62    64   ar
    70    18    17    1
    71     2     5    1
    72    21    22    1
    73    21    20    1
    74    16    17    1
    75    64    65    1
    76     5     6    1
    77    17    20    1
    78     6     8   ar
    79     6     7   ar
