@<TRIPOS>MOLECULE
tmp/2xgsA00.pdb
 188 182 0 0 0
SMALL
GASTEIGER

@<TRIPOS>ATOM
      1  N        -25.4710    3.3500  -11.7290 N.3   139  PHE139     -0.1241
      2  CA       -24.3030    3.3780  -10.8650 C.3   139  PHE139      0.1605
      3  C        -23.6590    1.9820  -10.7810 C.2   139  PHE139      0.2264
      4  O        -22.5290    1.8210  -11.1990 O.2   139  PHE139     -0.2867
      5  CB       -24.5900    4.0160   -9.4830 C.3   139  PHE139      0.0534
      6  CG       -23.3680    4.1360   -8.6340 C.ar  139  PHE139     -0.0203
      7  CD1      -23.0120    3.1050   -7.7390 C.ar  139  PHE139     -0.0042
      8  CD2      -22.5160    5.2420   -8.7720 C.ar  139  PHE139     -0.0042
      9  CE1      -21.8360    3.1930   -6.9700 C.ar  139  PHE139     -0.0003
     10  CE2      -21.3360    5.3480   -8.0080 C.ar  139  PHE139     -0.0003
     11  CZ       -20.9950    4.3230   -7.1260 C.ar  139  PHE139     -0.0000
     12  N        -17.6760   13.2490    3.4300 N.3   192  HIS192     -0.1227
     13  CA       -18.0260   12.4230    2.2930 C.3   192  HIS192      0.1737
     14  C        -17.2220   12.9130    1.0930 C.2   192  HIS192      0.2438
     15  O        -16.7840   14.0520    1.0890 O.2   192  HIS192     -0.2733
     16  CB       -19.4950   12.6100    1.9860 C.3   192  HIS192      0.0758
     17  CG       -20.4120   12.1900    3.0930 C.ar  192  HIS192      0.0818
     18  ND1      -20.6780   10.8650    3.3890 N.ar  192  HIS192     -0.2268
     19  CD2      -21.1700   12.9240    3.9430 C.ar  192  HIS192      0.1154
     20  CE1      -21.5470   10.8060    4.3850 C.ar  192  HIS192      0.1986
     21  NE2      -21.8630   12.0420    4.7350 N.ar  192  HIS192     -0.2212
     22  N        -17.0220   12.0500    0.0710 N.am  193  PRO193     -0.2729
     23  CA       -16.2760   12.4630   -1.1240 C.3   193  PRO193      0.1401
     24  C        -16.6330   13.8770   -1.5910 C.2   193  PRO193      0.2269
     25  O        -15.7410   14.7220   -1.7260 O.2   193  PRO193     -0.2865
     26  CB       -16.6980   11.4230   -2.1850 C.3   193  PRO193      0.0296
     27  CG       -17.0330   10.1890   -1.3840 C.3   193  PRO193      0.0237
     28  CD       -17.4760   10.6440   -0.0070 C.3   193  PRO193      0.0939
     29  N        -15.4840   16.6600    0.4840 N.3   196  LEU196     -0.1231
     30  CA       -14.0600   16.6040    0.5880 C.3   196  LEU196      0.1693
     31  C        -13.4090   17.1700   -0.6390 C.2   196  LEU196      0.2591
     32  O        -12.3530   17.7890   -0.5470 O.2   196  LEU196     -0.2718
     33  CB       -13.6910   15.1460    0.6830 C.3   196  LEU196      0.0284
     34  CG       -12.4570   14.6110    1.3520 C.3   196  LEU196      0.0019
     35  CD1      -12.0290   15.5290    2.4990 C.3   196  LEU196      0.0001
     36  CD2      -12.8280   13.1360    1.8300 C.3   196  LEU196      0.0001
     37  N        -14.0150   16.9140   -1.8060 N.am  197  LEU197     -0.1980
     38  CA       -13.4470   17.3830   -3.0520 C.3   197  LEU197      0.1596
     39  C        -13.6820   18.8940   -3.2980 C.2   197  LEU197      0.2287
     40  O        -12.8450   19.5630   -3.8720 O.2   197  LEU197     -0.2864
     41  CB       -13.9810   16.5670   -4.2130 C.3   197  LEU197      0.0297
     42  CG       -13.3870   15.1650   -4.3120 C.3   197  LEU197      0.0022
     43  CD1      -14.1010   14.4110   -5.3940 C.3   197  LEU197      0.0001
     44  CD2      -11.8660   15.1800   -4.5210 C.3   197  LEU197      0.0001
     45  N        -19.2150   13.9140   -9.2460 N.3   288  ALA288     -0.1245
     46  CA       -19.2530   12.6600   -8.4700 C.3   288  ALA288      0.1562
     47  C        -20.0970   11.5150   -9.0080 C.2   288  ALA288      0.2260
     48  O        -20.2760   10.5070   -8.3350 O.2   288  ALA288     -0.2867
     49  CB       -19.5170   12.9050   -6.9610 C.3   288  ALA288      0.0290
     50  N         -6.5990    1.5250   -2.0440 N.3   357  PHE357     -0.1241
     51  CA        -7.5830    1.7050   -1.0030 C.3   357  PHE357      0.1605
     52  C         -9.0110    1.8510   -1.5330 C.2   357  PHE357      0.2264
     53  O         -9.8940    2.2390   -0.7940 O.2   357  PHE357     -0.2867
     54  CB        -7.2100    2.8590   -0.0970 C.3   357  PHE357      0.0534
     55  CG        -6.0940    2.5470    0.8660 C.ar  357  PHE357     -0.0203
     56  CD1       -5.8640    1.2530    1.2950 C.ar  357  PHE357     -0.0042
     57  CD2       -5.2680    3.5650    1.3360 C.ar  357  PHE357     -0.0042
     58  CE1       -4.8150    0.9560    2.1670 C.ar  357  PHE357     -0.0003
     59  CE2       -4.2270    3.3040    2.2230 C.ar  357  PHE357     -0.0003
     60  CZ        -3.9980    1.9770    2.6510 C.ar  357  PHE357     -0.0000
     61  N        -12.9050    1.1460   -3.0560 N.3   359  ASN359     -0.1240
     62  CA       -14.1180    0.4280   -2.6360 C.3   359  ASN359      0.1653
     63  C        -14.1800   -1.0250   -3.1800 C.2   359  ASN359      0.2266
     64  O        -13.7020   -1.3020   -4.2900 O.2   359  ASN359     -0.2867
     65  CB       -15.3400    1.2170   -3.1130 C.3   359  ASN359      0.1155
     66  CG       -16.1080    1.8360   -1.9750 C.2   359  ASN359      0.2627
     67  OD1      -16.7970    1.1340   -1.2260 O.2   359  ASN359     -0.2716
     68  ND2      -16.0380    3.1660   -1.8550 N.am  359  ASN359     -0.0877
     69  N        -16.4190   -3.0890   -4.5530 N.3   361  TYR361     -0.1227
     70  CA       -16.9780   -3.2490   -5.8890 C.3   361  TYR361      0.1736
     71  C        -16.0540   -2.7870   -7.0330 C.2   361  TYR361      0.2595
     72  O        -16.3080   -3.0860   -8.2030 O.2   361  TYR361     -0.2718
     73  CB       -18.3650   -2.5850   -5.9890 C.3   361  TYR361      0.0548
     74  CG       -18.3510   -1.1080   -5.7320 C.ar  361  TYR361     -0.0200
     75  CD1      -17.8980   -0.2090   -6.7090 C.ar  361  TYR361     -0.0009
     76  CD2      -18.7560   -0.5960   -4.4890 C.ar  361  TYR361     -0.0009
     77  CE1      -17.8550    1.1530   -6.4600 C.ar  361  TYR361      0.0417
     78  CE2      -18.7210    0.7640   -4.2350 C.ar  361  TYR361      0.0417
     79  CZ       -18.2600    1.6380   -5.2150 C.ar  361  TYR361      0.1957
     80  OH       -18.2010    2.9900   -4.9550 O.3   361  TYR361     -0.2866
     81  N        -14.9830   -2.0690   -6.7150 N.am  362  LYS362     -0.1980
     82  CA       -13.9930   -1.6770   -7.7430 C.3   362  LYS362      0.1596
     83  C        -12.9270   -2.7640   -7.9500 C.2   362  LYS362      0.2287
     84  O        -12.2570   -2.8110   -8.9990 O.2   362  LYS362     -0.2864
     85  CB       -13.3110   -0.3590   -7.3710 C.3   362  LYS362      0.0298
     86  CG       -14.2730    0.7810   -7.2560 C.3   362  LYS362      0.0038
     87  CD       -13.5500    2.1170   -7.3020 C.3   362  LYS362      0.0206
     88  CE       -14.3680    3.2160   -6.7140 C.3   362  LYS362      0.1093
     89  NZ       -13.6560    4.5250   -6.8760 N.3   362  LYS362     -0.1314
     90  N         -8.1390   -1.6740    1.5270 N.3   386  LEU386     -0.1245
     91  CA        -9.2780   -1.4030    2.3770 C.3   386  LEU386      0.1561
     92  C         -9.9500   -2.7180    2.7290 C.2   386  LEU386      0.2260
     93  O        -10.2710   -3.5210    1.8330 O.2   386  LEU386     -0.2867
     94  CB       -10.3130   -0.5470    1.6610 C.3   386  LEU386      0.0270
     95  CG       -10.5210    0.8490    2.2050 C.3   386  LEU386      0.0019
     96  CD1      -11.7610    1.4500    1.5440 C.3   386  LEU386      0.0001
     97  CD2      -10.6640    0.8240    3.7320 C.3   386  LEU386      0.0001
     98  N         -6.7850   -2.6700    5.7530 N.3   413  MET413     -0.1245
     99  CA        -6.9960   -1.4880    6.5830 C.3   413  MET413      0.1570
    100  C         -8.4680   -1.3500    6.9620 C.2   413  MET413      0.2261
    101  O         -9.3110   -1.2710    6.0630 O.2   413  MET413     -0.2867
    102  CB        -6.5140   -0.2220    5.8600 C.3   413  MET413      0.0387
    103  CG        -6.6150    1.0310    6.7280 C.3   413  MET413      0.0595
    104  SD        -6.3900    2.6390    5.8870 S.3   413  MET413     -0.1393
    105  CE        -7.5770    2.6490    4.5580 C.3   413  MET413      0.0692
    106  N        -11.8090    0.7040    8.1920 N.3   415  LYS415     -0.1231
    107  CA       -12.2300    2.0340    7.8050 C.3   415  LYS415      0.1693
    108  C        -11.7940    3.0330    8.8650 C.2   415  LYS415      0.2591
    109  O        -12.0190    2.8150   10.0620 O.2   415  LYS415     -0.2718
    110  CB       -13.7520    2.0820    7.6350 C.3   415  LYS415      0.0285
    111  CG       -14.2680    3.2780    6.8650 C.3   415  LYS415      0.0035
    112  CD       -15.7530    3.3720    7.1870 C.3   415  LYS415      0.0206
    113  CE       -16.3490    4.7250    6.9090 C.3   415  LYS415      0.1093
    114  NZ       -17.5170    5.1510    7.7160 N.3   415  LYS415     -0.1314
    115  N        -11.1480    4.1170    8.4380 N.am  416  LEU416     -0.1980
    116  CA       -10.7040    5.1110    9.4160 C.3   416  LEU416      0.1596
    117  C        -11.3020    6.4970    9.1610 C.2   416  LEU416      0.2287
    118  O        -11.5950    6.8350    8.0420 O.2   416  LEU416     -0.2864
    119  CB        -9.1750    5.1970    9.4380 C.3   416  LEU416      0.0297
    120  CG        -8.4520    3.9570    9.9220 C.3   416  LEU416      0.0022
    121  CD1       -7.0520    3.9150    9.3930 C.3   416  LEU416      0.0001
    122  CD2       -8.5300    3.8020   11.5070 C.3   416  LEU416      0.0001
    123  N        -11.2480   10.1280    8.1080 N.3   418  HIS418     -0.1241
    124  CA       -10.4540   10.6060    6.9890 C.3   418  HIS418      0.1621
    125  C         -9.0340   11.0780    7.3540 C.2   418  HIS418      0.2264
    126  O         -8.0830   10.6440    6.7460 O.2   418  HIS418     -0.2867
    127  CB       -11.2310   11.6820    6.2240 C.3   418  HIS418      0.0745
    128  CG       -10.5180   12.1920    5.0170 C.ar  418  HIS418      0.0817
    129  ND1      -10.3990   11.4530    3.8620 N.ar  418  HIS418     -0.2268
    130  CD2       -9.8640   13.3590    4.7950 C.ar  418  HIS418      0.1154
    131  CE1       -9.7110   12.1520    2.9770 C.ar  418  HIS418      0.1986
    132  NE2       -9.3670   13.3080    3.5220 N.ar  418  HIS418     -0.2212
    133  N         -6.9410    7.8940    7.9860 N.3   421  TYR421     -0.1241
    134  CA        -6.7650    7.1150    6.7640 C.3   421  TYR421      0.1605
    135  C         -5.7690    7.7950    5.8150 C.2   421  TYR421      0.2264
    136  O         -4.9130    7.1450    5.2260 O.2   421  TYR421     -0.2867
    137  CB        -8.1370    6.8670    6.0810 C.3   421  TYR421      0.0534
    138  CG        -8.1670    7.0580    4.5620 C.ar  421  TYR421     -0.0201
    139  CD1       -8.1120    5.9780    3.7010 C.ar  421  TYR421     -0.0009
    140  CD2       -8.2420    8.3650    3.9900 C.ar  421  TYR421     -0.0009
    141  CE1       -8.1280    6.1680    2.2880 C.ar  421  TYR421      0.0417
    142  CE2       -8.2560    8.5790    2.6020 C.ar  421  TYR421      0.0417
    143  CZ        -8.2060    7.4870    1.7530 C.ar  421  TYR421      0.1957
    144  OH        -8.2270    7.7100    0.3710 O.3   421  TYR421     -0.2866
    145  N        -13.2610    0.6070  -13.1630 N.3   437  TYR437     -0.1241
    146  CA       -13.7400    1.7040  -12.3080 C.3   437  TYR437      0.1605
    147  C        -12.5520    2.1970  -11.4930 C.2   437  TYR437      0.2264
    148  O        -12.2270    1.6160  -10.4590 O.2   437  TYR437     -0.2867
    149  CB       -14.9310    1.2430  -11.4140 C.3   437  TYR437      0.0534
    150  CG       -15.7580    2.3510  -10.7560 C.ar  437  TYR437     -0.0201
    151  CD1      -17.0610    2.1090  -10.3220 C.ar  437  TYR437     -0.0009
    152  CD2      -15.2380    3.6400  -10.5890 C.ar  437  TYR437     -0.0009
    153  CE1      -17.8080    3.0910   -9.7120 C.ar  437  TYR437      0.0417
    154  CE2      -15.9660    4.6330   -9.9980 C.ar  437  TYR437      0.0417
    155  CZ       -17.2530    4.3590   -9.5640 C.ar  437  TYR437      0.1957
    156  OH       -17.9780    5.3530   -9.0080 O.3   437  TYR437     -0.2866
    157  N        -10.9850    7.2800   -7.6910 N.3   440  HIS440     -0.1226
    158  CA       -11.3260    8.6710   -8.0020 C.3   440  HIS440      0.1752
    159  C        -10.8890    9.6120   -6.8690 C.2   440  HIS440      0.2597
    160  O         -9.8440   10.2420   -6.9500 O.2   440  HIS440     -0.2718
    161  CB       -12.8300    8.8220   -8.3570 C.3   440  HIS440      0.0759
    162  CG       -13.2180    8.1120   -9.6250 C.ar  440  HIS440      0.0818
    163  ND1      -14.4780    7.6570   -9.8870 N.ar  440  HIS440     -0.2268
    164  CD2      -12.4920    7.7570  -10.6970 C.ar  440  HIS440      0.1154
    165  CE1      -14.5220    7.0730  -11.0720 C.ar  440  HIS440      0.1986
    166  NE2      -13.3200    7.0990  -11.5780 N.ar  440  HIS440     -0.2212
    167  N        -11.6610    9.6720   -5.7940 N.am  441  THR441     -0.1939
    168  CA       -11.3250   10.5180   -4.6600 C.3   441  THR441      0.2028
    169  C        -10.0230    9.9880   -4.0180 C.2   441  THR441      0.2642
    170  O         -9.1740   10.7170   -3.5190 O.2   441  THR441     -0.2714
    171  CB       -12.4490   10.4560   -3.6200 C.3   441  THR441      0.1808
    172  OG1      -13.7240   10.5130   -4.2750 O.3   441  THR441     -0.2208
    173  CG2      -12.3280   11.6030   -2.5950 C.3   441  THR441      0.0379
    174  N         -9.8860    8.6880   -4.0950 N.am  442  THR442     -0.1950
    175  CA        -8.9100    7.9340   -3.3930 C.3   442  THR442      0.1897
    176  C         -7.6050    8.1740   -4.1340 C.2   442  THR442      0.2313
    177  O         -6.5340    8.2590   -3.5130 O.2   442  THR442     -0.2863
    178  CB        -9.5140    6.5040   -3.3230 C.3   442  THR442      0.1794
    179  OG1       -8.7380    5.5670   -2.5840 O.3   442  THR442     -0.2208
    180  CG2       -9.8220    5.9420   -4.5180 C.3   442  THR442      0.0378
    181  N         -6.5340   11.5490   -3.1410 N.3   445  ASP445     -0.1239
    182  CA        -6.0180   11.4530   -1.7730 C.3   445  ASP445      0.1674
    183  C         -4.5910   10.9940   -1.7780 C.2   445  ASP445      0.2266
    184  O         -3.7220   11.6780   -1.2620 O.2   445  ASP445     -0.2867
    185  CB        -6.8050   10.4420   -0.9610 C.3   445  ASP445      0.1410
    186  CG        -8.1910   10.9120   -0.6160 C.2   445  ASP445      0.3668
    187  OD1       -8.5510   12.1230   -0.7380 O.co2 445  ASP445     -0.2456
    188  OD2       -8.9420   10.0280   -0.1900 O.co2 445  ASP445     -0.2456
@<TRIPOS>BOND
     1   145   146    1
     2   146   147    1
     3   146   149    1
     4     1     2    1
     5   166   165   ar
     6   166   164   ar
     7   147   148    2
     8   149   150    1
     9     4     3    2
    10   165   163   ar
    11     2     3    1
    12     2     5    1
    13   150   152   ar
    14   150   151   ar
    15   164   162   ar
    16   152   154   ar
    17   151   153   ar
    18   154   155   ar
    19   163   162   ar
    20   153   155   ar
    21   162   161    1
    22   155   156    1
    23     5     6    1
    24    45    46    1
    25    47    46    1
    26    47    48    2
    27    84    83    2
    28     8     6   ar
    29     8    10   ar
    30     6     7   ar
    31    46    49    1
    32   161   158    1
    33    72    71    2
    34    10    11   ar
    35   158   157    1
    36   158   159    1
    37    83    82    1
    38    82    85    1
    39    82    81    1
    40     7     9   ar
    41    85    86    1
    42    87    86    1
    43    87    88    1
    44    11     9   ar
    45    71    81   am
    46    71    70    1
    47   160   159    2
    48    89    88    1
    49   159   167   am
    50    75    77   ar
    51    75    74   ar
    52    77    79   ar
    53    73    70    1
    54    73    74    1
    55    70    69    1
    56   167   168    1
    57    74    76   ar
    58    43    42    1
    59    79    80    1
    60    79    78   ar
    61   168   169    1
    62   168   171    1
    63    44    42    1
    64   180   178    1
    65    76    78   ar
    66    42    41    1
    67    64    63    2
    68   172   171    1
    69    41    38    1
    70   176   177    2
    71   176   175    1
    72   174   169   am
    73   174   175    1
    74   169   170    2
    75    40    39    2
    76   171   173    1
    77   175   178    1
    78   178   179    1
    79    39    38    1
    80    63    62    1
    81   181   182    1
    82    65    62    1
    83    65    66    1
    84    61    62    1
    85    38    37    1
    86    26    27    1
    87    26    23    1
    88    50    51    1
    89    66    68   am
    90    66    67    2
    91    37    31   am
    92   183   182    1
    93   183   184    2
    94   182   185    1
    95    25    24    2
    96    24    23    1
    97    52    51    1
    98    52    53    2
    99    27    28    1
   100    23    22    1
   101    51    54    1
   102   185   186    1
   103   187   186   ar
   104    31    32    2
   105    31    30    1
   106   186   188   ar
   107    54    55    1
   108    28    22    1
   109    22    14   am
   110   144   143    1
   111    29    30    1
   112    30    33    1
   113    33    34    1
   114    55    56   ar
   115    55    57   ar
   116    15    14    2
   117    14    13    1
   118    56    58   ar
   119    57    59   ar
   120    34    36    1
   121    34    35    1
   122    90    91    1
   123    96    95    1
   124    94    95    1
   125    94    91    1
   126   143   141   ar
   127   143   142   ar
   128    93    92    2
   129    16    13    1
   130    16    17    1
   131    58    60   ar
   132    95    97    1
   133    59    60   ar
   134   141   139   ar
   135    13    12    1
   136    91    92    1
   137   142   140   ar
   138   131   132   ar
   139   131   129   ar
   140    17    18   ar
   141    17    19   ar
   142    18    20   ar
   143   132   130   ar
   144   139   138   ar
   145   129   128   ar
   146    19    21   ar
   147   140   138   ar
   148    20    21   ar
   149   105   104    1
   150   138   137    1
   151   130   128   ar
   152   128   127    1
   153   136   135    2
   154    98    99    1
   155   135   134    1
   156   102    99    1
   157   102   103    1
   158   104   103    1
   159   101   100    2
   160   137   134    1
   161   127   124    1
   162    99   100    1
   163   126   125    2
   164   134   133    1
   165   111   112    1
   166   111   110    1
   167   113   112    1
   168   113   114    1
   169   124   125    1
   170   124   123    1
   171   110   107    1
   172   107   106    1
   173   107   108    1
   174   118   117    2
   175   115   108   am
   176   115   116    1
   177   108   109    2
   178   117   116    1
   179   121   120    1
   180   116   119    1
   181   119   120    1
   182   120   122    1
