@<TRIPOS>MOLECULE
tmp/2xh0B00.pdb
 136 126 0 0 0
SMALL
GASTEIGER

@<TRIPOS>ATOM
      1  N         -9.3360    6.5150  -60.7760 N.3    37  GLY37      -0.1210
      2  CA       -10.0800    5.2660  -60.9150 C.3    37  GLY37       0.1956
      3  C         -9.2450    4.0160  -60.8900 C.2    37  GLY37       0.2611
      4  O         -8.0110    4.0730  -60.9240 O.2    37  GLY37      -0.2717
      5  N         -9.9130    2.8730  -60.8170 N.am   38  ALA38      -0.1979
      6  CA        -9.2520    1.5740  -61.0140 C.3    38  ALA38       0.1597
      7  C         -9.7470    0.8930  -62.2980 C.2    38  ALA38       0.2287
      8  O        -10.9160    1.0380  -62.6660 O.2    38  ALA38      -0.2864
      9  CB        -9.4760    0.6900  -59.8210 C.3    38  ALA38       0.0319
     10  N        -20.4290   -5.0930  -61.0320 N.3   167  LYS167     -0.1231
     11  CA       -19.5880   -4.3510  -60.0890 C.3   167  LYS167      0.1693
     12  C        -20.3090   -3.5520  -58.9880 C.2   167  LYS167      0.2591
     13  O        -19.9320   -3.6310  -57.8250 O.2   167  LYS167     -0.2718
     14  CB       -18.5830   -3.4630  -60.8390 C.3   167  LYS167      0.0285
     15  CG       -17.6500   -2.7060  -59.9140 C.3   167  LYS167      0.0035
     16  CD       -16.5320   -2.0300  -60.6600 C.3   167  LYS167      0.0206
     17  CE       -16.9880   -0.7050  -61.2470 C.3   167  LYS167      0.1093
     18  NZ       -15.8210    0.1630  -61.5840 N.3   167  LYS167     -0.1314
     19  N        -21.3150   -2.7630  -59.3410 N.am  168  GLU168     -0.1979
     20  CA       -21.8760   -1.8390  -58.3680 C.3   168  GLU168      0.1602
     21  C        -23.3560   -2.0660  -58.3070 C.2   168  GLU168      0.2287
     22  O        -24.0340   -2.0860  -59.3420 O.2   168  GLU168     -0.2864
     23  CB       -21.6640   -0.3560  -58.7360 C.3   168  GLU168      0.0415
     24  CG       -20.2230    0.1450  -58.9020 C.3   168  GLU168      0.1163
     25  CD       -20.1870    1.6120  -59.3570 C.2   168  GLU168      0.3649
     26  OE1      -21.2690    2.1810  -59.6380 O.co2 168  GLU168     -0.2457
     27  OE2      -19.0830    2.2080  -59.4360 O.co2 168  GLU168     -0.2457
     28  N        -15.5770    1.8530  -52.3450 N.3   211  GLU211     -0.1245
     29  CA       -16.6520    2.8490  -52.4300 C.3   211  GLU211      0.1567
     30  C        -17.5900    2.8330  -51.2110 C.2   211  GLU211      0.2260
     31  O        -18.5820    3.5680  -51.1760 O.2   211  GLU211     -0.2867
     32  CB       -17.4900    2.6120  -53.7050 C.3   211  GLU211      0.0388
     33  CG       -16.7630    2.8430  -55.0210 C.3   211  GLU211      0.1160
     34  CD       -17.6940    2.7510  -56.2400 C.2   211  GLU211      0.3649
     35  OE1      -18.8050    3.3280  -56.2040 O.co2 211  GLU211     -0.2457
     36  OE2      -17.3240    2.0950  -57.2440 O.co2 211  GLU211     -0.2457
     37  N        -24.0670   -0.8330  -61.9460 N.3   246  ASP246     -0.1239
     38  CA       -22.9210   -0.5910  -62.8190 C.3   246  ASP246      0.1674
     39  C        -22.3140   -1.9650  -63.0680 C.2   246  ASP246      0.2266
     40  O        -21.7280   -2.5810  -62.1690 O.2   246  ASP246     -0.2867
     41  CB       -21.9120    0.3650  -62.1920 C.3   246  ASP246      0.1410
     42  CG       -20.6870    0.6460  -63.0990 C.2   246  ASP246      0.3668
     43  OD1      -20.5890    0.1510  -64.2540 O.co2 246  ASP246     -0.2456
     44  OD2      -19.8170    1.4130  -62.6460 O.co2 246  ASP246     -0.2456
     45  N        -20.0030   -2.6800  -65.2360 N.3   248  ALA248     -0.1245
     46  CA       -18.5790   -2.5940  -65.5670 C.3   248  ALA248      0.1562
     47  C        -18.1530   -3.7360  -66.5120 C.2   248  ALA248      0.2260
     48  O        -17.1110   -4.3850  -66.3190 O.2   248  ALA248     -0.2867
     49  CB       -17.7500   -2.5940  -64.2940 C.3   248  ALA248      0.0290
     50  N        -25.5720    0.8670  -65.9540 N.3   295  GLU295     -0.1245
     51  CA       -24.3700    1.5220  -66.4490 C.3   295  GLU295      0.1567
     52  C        -23.3920    0.5050  -66.9990 C.2   295  GLU295      0.2260
     53  O        -23.2110   -0.5600  -66.4220 O.2   295  GLU295     -0.2867
     54  CB       -23.7280    2.3000  -65.3110 C.3   295  GLU295      0.0388
     55  CG       -22.4810    3.0770  -65.6790 C.3   295  GLU295      0.1160
     56  CD       -21.7200    3.5470  -64.4490 C.2   295  GLU295      0.3649
     57  OE1      -22.3410    3.9080  -63.4160 O.co2 295  GLU295     -0.2457
     58  OE2      -20.4800    3.5350  -64.5190 O.co2 295  GLU295     -0.2457
     59  N        -20.2870    4.9850  -69.3640 N.3   320  ASP320     -0.1225
     60  CA       -19.1360    5.3490  -68.5310 C.3   320  ASP320      0.1805
     61  C        -17.8830    5.1100  -69.3360 C.2   320  ASP320      0.2597
     62  O        -17.2930    6.0660  -69.8440 O.2   320  ASP320     -0.2718
     63  CB       -19.1500    4.5910  -67.1900 C.3   320  ASP320      0.1424
     64  CG       -17.8610    4.7120  -66.4070 C.2   320  ASP320      0.3668
     65  OD1      -16.9650    5.4990  -66.7780 O.co2 320  ASP320     -0.2456
     66  OD2      -17.7260    3.9750  -65.4070 O.co2 320  ASP320     -0.2456
     67  N        -17.4630    3.8540  -69.4790 N.am  321  ARG321     -0.1979
     68  CA       -16.2110    3.6160  -70.2000 C.3   321  ARG321      0.1597
     69  C        -16.4030    3.7810  -71.7300 C.2   321  ARG321      0.2287
     70  O        -15.4540    4.1100  -72.4740 O.2   321  ARG321     -0.2864
     71  CB       -15.5710    2.2970  -69.7760 C.3   321  ARG321      0.0334
     72  CG       -14.7810    2.4580  -68.4470 C.3   321  ARG321      0.0492
     73  CD       -14.5680    1.1610  -67.6780 C.3   321  ARG321      0.2205
     74  NE       -13.5970    1.2900  -66.5740 N.pl3 321  ARG321     -0.0865
     75  CZ       -13.7160    2.0860  -65.4970 C.cat 321  ARG321      0.5346
     76  NH1      -14.7680    2.8880  -65.3220 N.pl3 321  ARG321      0.1354
     77  NH2      -12.7540    2.0970  -64.5820 N.pl3 321  ARG321      0.1354
     78  N        -22.2300    9.2630  -67.7460 N.3   343  LEU343     -0.1245
     79  CA       -21.5720    9.2950  -66.4460 C.3   343  LEU343      0.1561
     80  C        -20.4040   10.2570  -66.5590 C.2   343  LEU343      0.2260
     81  O        -19.4610   10.0350  -67.3330 O.2   343  LEU343     -0.2867
     82  CB       -21.1100    7.8890  -66.0060 C.3   343  LEU343      0.0270
     83  CG       -20.8210    7.8550  -64.4970 C.3   343  LEU343      0.0019
     84  CD1      -22.0960    7.7530  -63.6870 C.3   343  LEU343      0.0001
     85  CD2      -19.8240    6.7650  -64.1210 C.3   343  LEU343      0.0001
     86  N        -17.3120   12.0630  -65.3780 N.3   345  LYS345     -0.1245
     87  CA       -16.1560   11.9850  -64.4860 C.3   345  LYS345      0.1561
     88  C        -15.1320   12.9770  -65.0440 C.2   345  LYS345      0.2260
     89  O        -14.4990   12.7080  -66.0470 O.2   345  LYS345     -0.2867
     90  CB       -15.5630   10.5740  -64.4840 C.3   345  LYS345      0.0271
     91  CG       -16.3770    9.4860  -63.7960 C.3   345  LYS345      0.0035
     92  CD       -15.8130    8.1160  -64.1870 C.3   345  LYS345      0.0206
     93  CE       -16.3210    7.0320  -63.3080 C.3   345  LYS345      0.1093
     94  NZ       -15.9720    5.7700  -63.9510 N.3   345  LYS345     -0.1314
     95  N        -20.2460   11.8850  -61.2760 N.3   372  SER372     -0.1202
     96  CA       -19.7360   10.6820  -60.6250 C.3   372  SER372      0.2020
     97  C        -18.3850   10.8900  -59.9720 C.2   372  SER372      0.2619
     98  O        -17.5250   11.5710  -60.5200 O.2   372  SER372     -0.2717
     99  CB       -19.6160    9.5410  -61.6400 C.3   372  SER372      0.2103
    100  OG       -19.1440    8.3590  -61.0150 O.3   372  SER372     -0.2182
    101  N        -18.2320   10.2850  -58.7930 N.am  373  HIS373     -0.1961
    102  CA       -16.9360   10.1080  -58.1260 C.3   373  HIS373      0.1787
    103  C        -16.0150    9.1600  -58.9010 C.2   373  HIS373      0.2620
    104  O        -16.4100    8.6360  -59.9540 O.2   373  HIS373     -0.2715
    105  CB       -17.1620    9.5970  -56.6870 C.3   373  HIS373      0.0785
    106  CG       -17.7610    8.2260  -56.6140 C.ar  373  HIS373      0.0821
    107  ND1      -17.7190    7.4520  -55.4770 N.ar  373  HIS373     -0.2267
    108  CD2      -18.3890    7.4820  -57.5540 C.ar  373  HIS373      0.1154
    109  CE1      -18.3100    6.2930  -55.7150 C.ar  373  HIS373      0.1986
    110  NE2      -18.7320    6.2890  -56.9670 N.ar  373  HIS373     -0.2212
    111  N        -14.7630    9.0220  -58.4520 N.am  374  ARG374     -0.1963
    112  CA       -13.9520    7.8460  -58.7970 C.3   374  ARG374      0.1729
    113  C        -13.8460    6.8870  -57.6060 C.2   374  ARG374      0.2616
    114  O        -14.0590    7.2710  -56.4700 O.2   374  ARG374     -0.2715
    115  CB       -12.5350    8.2210  -59.2590 C.3   374  ARG374      0.0348
    116  CG       -12.4620    9.1640  -60.4810 C.3   374  ARG374      0.0492
    117  CD       -13.2970    8.7430  -61.6700 C.3   374  ARG374      0.2205
    118  NE       -12.9310    7.4440  -62.2460 N.pl3 374  ARG374     -0.0865
    119  CZ       -12.2750    7.2820  -63.3950 C.cat 374  ARG374      0.5346
    120  NH1      -11.8470    8.3320  -64.0890 N.pl3 374  ARG374      0.1354
    121  NH2      -12.0170    6.0620  -63.8350 N.pl3 374  ARG374      0.1354
    122  N        -13.4950    5.6340  -57.8690 N.am  375  SER375     -0.1950
    123  CA       -13.3360    4.6630  -56.7950 C.3   375  SER375      0.1924
    124  C        -12.2110    5.1010  -55.8600 C.2   375  SER375      0.2314
    125  O        -12.2520    4.8300  -54.6730 O.2   375  SER375     -0.2863
    126  CB       -13.1140    3.2660  -57.3640 C.3   375  SER375      0.2116
    127  OG       -11.9190    3.2270  -58.1250 O.3   375  SER375     -0.2180
    128  N        -23.6030   10.0590  -58.3860 N.3   396  LYS396     -0.1245
    129  CA       -23.1560    8.8120  -57.8410 C.3   396  LYS396      0.1561
    130  C        -21.8570    9.1690  -57.1670 C.2   396  LYS396      0.2260
    131  O        -20.9110    9.5080  -57.8440 O.2   396  LYS396     -0.2867
    132  CB       -22.9020    7.8330  -58.9930 C.3   396  LYS396      0.0271
    133  CG       -22.4780    6.4820  -58.6050 C.3   396  LYS396      0.0035
    134  CD       -22.4830    5.5590  -59.8130 C.3   396  LYS396      0.0206
    135  CE       -21.1740    5.5870  -60.5810 C.3   396  LYS396      0.1093
    136  NZ       -20.8230    4.2180  -61.0970 N.3   396  LYS396     -0.1314
@<TRIPOS>BOND
     1    70    69    2
     2    69    68    1
     3    68    71    1
     4    68    67    1
     5    62    61    2
     6    71    72    1
     7    67    61   am
     8    59    60    1
     9    61    60    1
    10    60    63    1
    11    72    73    1
    12    78    79    1
    13    73    74    1
    14    81    80    2
    15    63    64    1
    16    52    51    1
    17    52    53    2
    18    65    64   ar
    19    74    75    2
    20    80    79    1
    21    47    48    2
    22    47    46    1
    23    51    50    1
    24    51    54    1
    25    79    82    1
    26    64    66   ar
    27    89    88    2
    28    82    83    1
    29    55    54    1
    30    55    56    1
    31    46    45    1
    32    46    49    1
    33    75    76    1
    34    75    77    1
    35    86    87    1
    36    88    87    1
    37    58    56   ar
    38    83    85    1
    39    83    84    1
    40    87    90    1
    41    90    91    1
    42    56    57   ar
    43    43    42   ar
    44    92    91    1
    45    92    93    1
    46   120   119    1
    47    94    93    1
    48   121   119    1
    49   119   118    2
    50    42    44   ar
    51    42    41    1
    52    39    38    1
    53    39    40    2
    54    38    41    1
    55    38    37    1
    56     8     7    2
    57     7     6    1
    58   118   117    1
    59   117   116    1
    60    99   100    1
    61    99    96    1
    62    18    17    1
    63    95    96    1
    64    17    16    1
    65   136   135    1
    66    10    11    1
    67     6     5    1
    68     6     9    1
    69     4     3    2
    70     2     3    1
    71     2     1    1
    72     3     5   am
    73    14    11    1
    74    14    15    1
    75    16    15    1
    76    96    97    1
    77   135   134    1
    78    98    97    2
    79   116   115    1
    80    11    12    1
    81    97   101   am
    82   104   103    2
    83   134   133    1
    84    26    25   ar
    85    27    25   ar
    86    25    24    1
    87    22    21    2
    88    19    12   am
    89    19    20    1
    90   115   112    1
    91   132   133    1
    92   132   129    1
    93    12    13    2
    94    24    23    1
    95   103   111   am
    96   103   102    1
    97   112   111    1
    98   112   113    1
    99   101   102    1
   100    23    20    1
   101   128   129    1
   102    20    21    1
   103   102   105    1
   104   127   126    1
   105   122   113   am
   106   122   123    1
   107   131   130    2
   108   129   130    1
   109   113   114    2
   110   108   110   ar
   111   108   106   ar
   112   126   123    1
   113    36    34   ar
   114   110   109   ar
   115   123   124    1
   116   105   106    1
   117   106   107   ar
   118    34    35   ar
   119    34    33    1
   120   124   125    2
   121   109   107   ar
   122    33    32    1
   123    32    29    1
   124    29    28    1
   125    29    30    1
   126    30    31    2
