@<TRIPOS>MOLECULE
tmp/2xh1B00.pdb
 76 74 0 0 0
SMALL
GASTEIGER

@<TRIPOS>ATOM
      1  N         27.5380   52.4260    8.0210 N.3    17  SER17      -0.1217
      2  CA        27.0820   53.7970    7.8220 C.3    17  SER17       0.1889
      3  C         28.2460   54.7310    7.4070 C.2    17  SER17       0.2288
      4  O         29.4030   54.5510    7.8450 O.2    17  SER17      -0.2866
      5  CB        26.4740   54.3310    9.1170 C.3    17  SER17       0.2089
      6  OG        26.1710   53.2590    9.9910 O.3    17  SER17      -0.2183
      7  N         23.8810   62.5620   16.5580 N.3    26  GLY26      -0.1210
      8  CA        22.4290   62.5520   16.4910 C.3    26  GLY26       0.1956
      9  C         21.7220   62.0720   17.7510 C.2    26  GLY26       0.2611
     10  O         20.5950   61.5890   17.6780 O.2    26  GLY26      -0.2717
     11  N         22.3710   62.2250   18.9040 N.am   27  LEU27      -0.1979
     12  CA        21.8370   61.7530   20.2010 C.3    27  LEU27       0.1596
     13  C         20.8220   62.6920   20.8300 C.2    27  LEU27       0.2287
     14  O         21.0510   63.8930   20.8350 O.2    27  LEU27      -0.2864
     15  CB        22.9880   61.5670   21.1820 C.3    27  LEU27       0.0297
     16  CG        23.9680   60.4680   20.7290 C.3    27  LEU27       0.0022
     17  CD1       25.4220   60.8700   20.9470 C.3    27  LEU27       0.0001
     18  CD2       23.6560   59.1080   21.3850 C.3    27  LEU27       0.0001
     19  N         21.1920   55.3590   23.3860 N.3    61  TYR61      -0.1227
     20  CA        21.7700   54.4940   22.3440 C.3    61  TYR61       0.1736
     21  C         23.1350   53.9910   22.7610 C.2    61  TYR61       0.2596
     22  O         23.8500   54.6960   23.4850 O.2    61  TYR61      -0.2718
     23  CB        22.0080   55.2770   21.0010 C.3    61  TYR61       0.0548
     24  CG        20.7540   55.7450   20.3300 C.ar   61  TYR61      -0.0200
     25  CD1       19.8330   54.8250   19.8590 C.ar   61  TYR61      -0.0009
     26  CD2       20.4980   57.1190   20.1250 C.ar   61  TYR61      -0.0009
     27  CE1       18.6540   55.2140   19.2250 C.ar   61  TYR61       0.0417
     28  CE2       19.3020   57.5230   19.4620 C.ar   61  TYR61       0.0417
     29  CZ        18.4060   56.5530   18.9970 C.ar   61  TYR61       0.1957
     30  OH        17.2130   56.8880   18.3430 O.3    61  TYR61      -0.2866
     31  N         23.4960   52.8070   22.2550 N.am   62  SER62      -0.1938
     32  CA        24.7720   52.1510   22.4970 C.3    62  SER62       0.2040
     33  C         25.2140   51.3040   21.2650 C.2    62  SER62       0.2485
     34  O         24.4690   51.2370   20.2830 O.2    62  SER62      -0.2729
     35  CB        24.7150   51.3300   23.7550 C.3    62  SER62       0.2129
     36  OG        23.7180   50.3200   23.6780 O.3    62  SER62      -0.2179
     37  N         26.4560   50.7400   21.2730 N.am   63  PRO63      -0.2715
     38  CA        26.9390   50.0900   20.0560 C.3    63  PRO63       0.1536
     39  C         26.1170   48.9310   19.5540 C.2    63  PRO63       0.2599
     40  O         25.5600   48.1410   20.3470 O.2    63  PRO63      -0.2715
     41  CB        28.3700   49.6950   20.3960 C.3    63  PRO63       0.0310
     42  CG        28.7450   50.6160   21.5830 C.3    63  PRO63       0.0237
     43  CD        27.4920   50.7460   22.3410 C.3    63  PRO63       0.0939
     44  N         26.0230   48.8510   18.2230 N.am   64  SER64      -0.1950
     45  CA        25.2180   47.8300   17.5630 C.3    64  SER64       0.1924
     46  C         25.5530   46.4000   17.9670 C.2    64  SER64       0.2314
     47  O         24.6590   45.6030   18.2330 O.2    64  SER64      -0.2863
     48  CB        25.3660   47.9840   16.0420 C.3    64  SER64       0.2116
     49  OG        24.5590   49.0770   15.6030 O.3    64  SER64      -0.2180
     50  N         22.2810   46.8570   12.5430 N.3   276  GLN276     -0.1245
     51  CA        22.3200   48.3140   12.5030 C.3   276  GLN276      0.1566
     52  C         21.1220   48.9990   11.8010 C.2   276  GLN276      0.2260
     53  O         20.8210   50.1530   12.0960 O.2   276  GLN276     -0.2867
     54  CB        23.5440   48.8170   11.7390 C.3   276  GLN276      0.0367
     55  CG        24.7740   48.7630   12.5180 C.3   276  GLN276      0.0905
     56  CD        25.8300   49.6710   11.9580 C.2   276  GLN276      0.2608
     57  OE1       26.1610   49.6520   10.7500 O.2   276  GLN276     -0.2717
     58  NE2       26.3540   50.4910   12.8300 N.am  276  GLN276     -0.0878
     59  N         18.8840   48.4390   15.6440 N.3   280  LEU280     -0.1231
     60  CA        20.0180   49.3050   16.0300 C.3   280  LEU280      0.1693
     61  C         20.9430   48.7430   17.0840 C.2   280  LEU280      0.2592
     62  O         22.1740   48.7350   16.9110 O.2   280  LEU280     -0.2718
     63  CB        19.5650   50.6890   16.4610 C.3   280  LEU280      0.0284
     64  CG        18.7250   51.6080   15.5740 C.3   280  LEU280      0.0019
     65  CD1       18.6650   52.9680   16.3470 C.3   280  LEU280      0.0001
     66  CD2       19.3290   51.8090   14.1740 C.3   280  LEU280      0.0001
     67  N         20.3860   48.2460   18.1860 N.am  281  HIS281     -0.1976
     68  CA        21.2500   47.6560   19.2190 C.3   281  HIS281      0.1656
     69  C         20.3490   46.9470   20.2270 C.2   281  HIS281      0.2291
     70  O         19.1730   47.2390   20.2620 O.2   281  HIS281     -0.2864
     71  CB        22.1340   48.7350   19.8660 C.3   281  HIS281      0.0771
     72  CG        21.3930   49.6960   20.7410 C.ar  281  HIS281      0.0820
     73  ND1       21.0810   50.9810   20.3410 N.ar  281  HIS281     -0.2267
     74  CD2       20.9620   49.5820   22.0180 C.ar  281  HIS281      0.1154
     75  CE1       20.3940   51.5860   21.3040 C.ar  281  HIS281      0.1986
     76  NE2       20.3310   50.7690   22.3430 N.ar  281  HIS281     -0.2212
@<TRIPOS>BOND
     1     3     2    1
     2     3     4    2
     3     2     1    1
     4     2     5    1
     5     5     6    1
     6    57    56    2
     7    54    51    1
     8    54    55    1
     9    52    53    2
    10    52    51    1
    11    56    55    1
    12    56    58   am
    13    51    50    1
    14    66    64    1
    15    64    65    1
    16    64    63    1
    17    49    48    1
    18    59    60    1
    19    60    63    1
    20    60    61    1
    21    48    45    1
    22     8     7    1
    23     8     9    1
    24    62    61    2
    25    61    67   am
    26    45    46    1
    27    45    44    1
    28    10     9    2
    29     9    11   am
    30    46    47    2
    31    67    68    1
    32    44    39   am
    33    30    29    1
    34    11    12    1
    35    29    27   ar
    36    29    28   ar
    37    68    71    1
    38    68    69    1
    39    27    25   ar
    40    28    26   ar
    41    39    38    1
    42    39    40    2
    43    25    24   ar
    44    71    72    1
    45    38    41    1
    46    38    37    1
    47    26    24   ar
    48    12    13    1
    49    12    15    1
    50    69    70    2
    51    34    33    2
    52    24    23    1
    53    73    72   ar
    54    73    75   ar
    55    41    42    1
    56    16    17    1
    57    16    15    1
    58    16    18    1
    59    72    74   ar
    60    13    14    2
    61    23    20    1
    62    33    37   am
    63    33    32    1
    64    37    43    1
    65    75    76   ar
    66    42    43    1
    67    74    76   ar
    68    31    32    1
    69    31    21   am
    70    20    21    1
    71    20    19    1
    72    32    35    1
    73    21    22    2
    74    36    35    1
