@<TRIPOS>MOLECULE
tmp/2xh3B00.pdb
 102 100 0 0 0
SMALL
GASTEIGER

@<TRIPOS>ATOM
      1  N        -19.5250   24.2000   44.5170 N.3    41  TRP41      -0.1241
      2  CA       -19.4940   22.8540   45.1150 C.3    41  TRP41       0.1605
      3  C        -18.3050   22.4610   46.0050 C.2    41  TRP41       0.2264
      4  O        -17.2350   23.0650   45.9940 O.2    41  TRP41      -0.2867
      5  CB       -19.6930   21.7610   44.0530 C.3    41  TRP41       0.0550
      6  CG       -18.7210   21.8070   42.9880 C.ar   41  TRP41       0.0003
      7  CD1      -17.5820   21.0270   42.8470 C.ar   41  TRP41       0.0946
      8  CD2      -18.7490   22.6950   41.8720 C.ar   41  TRP41       0.0152
      9  NE1      -16.9080   21.3910   41.6970 N.ar   41  TRP41      -0.2442
     10  CE2      -17.5990   22.4140   41.0840 C.ar   41  TRP41       0.0810
     11  CE3      -19.6320   23.7160   41.4610 C.ar   41  TRP41       0.0012
     12  CZ2      -17.3200   23.1160   39.9030 C.ar   41  TRP41       0.0191
     13  CZ3      -19.3540   24.4040   40.2910 C.ar   41  TRP41       0.0001
     14  CH2      -18.2070   24.1020   39.5230 C.ar   41  TRP41       0.0015
     15  N        -15.3950   19.9640   46.5810 N.3    43  MET43      -0.1230
     16  CA       -14.5370   19.1330   45.7160 C.3    43  MET43       0.1702
     17  C        -14.5890   17.6800   46.1870 C.2    43  MET43       0.2592
     18  O        -14.6080   17.4390   47.3950 O.2    43  MET43      -0.2718
     19  CB       -13.1090   19.6120   45.7990 C.3    43  MET43       0.0401
     20  CG       -12.9410   20.9960   45.3080 C.3    43  MET43       0.0596
     21  SD       -11.2130   21.4590   45.2660 S.3    43  MET43      -0.1393
     22  CE       -10.5680   20.2650   44.0650 C.3    43  MET43       0.0692
     23  N        -14.6070   16.7410   45.2370 N.am   44  ASN44      -0.1974
     24  CA       -14.4660   15.3220   45.5190 C.3    44  ASN44       0.1688
     25  C        -13.0290   14.9730   45.7930 C.2    44  ASN44       0.2292
     26  O        -12.1280   15.6680   45.3200 O.2    44  ASN44      -0.2864
     27  CB       -14.9400   14.4710   44.3360 C.3    44  ASN44       0.1181
     28  CG       -16.3620   14.7840   43.9350 C.2    44  ASN44       0.2629
     29  OD1      -16.6080   15.1710   42.7870 O.2    44  ASN44      -0.2716
     30  ND2      -17.3100   14.6540   44.8750 N.am   44  ASN44      -0.0877
     31  N         -9.4860   16.9230   44.9530 N.3    66  MET66      -0.1230
     32  CA        -8.7690   16.9480   43.6860 C.3    66  MET66       0.1702
     33  C         -9.7140   17.2060   42.5000 C.2    66  MET66       0.2593
     34  O        -10.8790   16.7820   42.5270 O.2    66  MET66      -0.2718
     35  CB        -8.0600   15.6040   43.5840 C.3    66  MET66       0.0401
     36  CG        -7.8710   15.0830   42.2420 C.3    66  MET66       0.0596
     37  SD        -6.9340   13.5610   42.2450 S.3    66  MET66      -0.1393
     38  CE        -5.6040   13.6910   43.4110 C.3    66  MET66       0.0692
     39  N         -9.2380   17.9390   41.4940 N.am   67  THR67      -0.1939
     40  CA       -10.0940   18.3000   40.3860 C.3    67  THR67       0.2028
     41  C        -10.2520   17.1070   39.4720 C.2    67  THR67       0.2642
     42  O         -9.3610   16.2470   39.3880 O.2    67  THR67      -0.2714
     43  CB        -9.5680   19.4580   39.5630 C.3    67  THR67       0.1808
     44  OG1       -8.3980   19.0650   38.8260 O.3    67  THR67      -0.2208
     45  CG2       -9.3390   20.7000   40.4030 C.3    67  THR67       0.0379
     46  N        -11.3930   17.0280   38.8120 N.am   68  ALA68      -0.1963
     47  CA       -11.5880   15.9850   37.8140 C.3    68  ALA68       0.1728
     48  C        -10.5120   16.0770   36.7350 C.2    68  ALA68       0.2616
     49  O        -10.0390   15.0770   36.2260 O.2    68  ALA68      -0.2715
     50  CB       -13.0090   16.1080   37.2080 C.3    68  ALA68       0.0334
     51  N        -10.0920   17.2870   36.4180 N.am   69  TRP69      -0.1974
     52  CA        -9.0760   17.4910   35.4020 C.3    69  TRP69       0.1640
     53  C         -7.8080   16.7690   35.8440 C.2    69  TRP69       0.2290
     54  O         -7.2760   15.9710   35.0930 O.2    69  TRP69      -0.2864
     55  CB        -8.8580   19.0020   35.1310 C.3    69  TRP69       0.0576
     56  CG        -7.8630   19.3980   34.0640 C.ar   69  TRP69       0.0006
     57  CD1       -6.5670   19.8140   34.2660 C.ar   69  TRP69       0.0946
     58  CD2       -8.0920   19.4860   32.6400 C.ar   69  TRP69       0.0152
     59  NE1       -5.9770   20.1620   33.0670 N.ar   69  TRP69      -0.2442
     60  CE2       -6.8760   19.9560   32.0480 C.ar   69  TRP69       0.0810
     61  CE3       -9.2040   19.2280   31.8040 C.ar   69  TRP69       0.0012
     62  CZ2       -6.7340   20.1540   30.6470 C.ar   69  TRP69       0.0191
     63  CZ3       -9.0640   19.3960   30.4070 C.ar   69  TRP69       0.0001
     64  CH2       -7.8420   19.8630   29.8430 C.ar   69  TRP69       0.0015
     65  N        -12.6640   17.1930   31.9170 N.3    75  TYR75      -0.1241
     66  CA       -13.8680   17.6510   32.6610 C.3    75  TYR75       0.1605
     67  C        -14.8300   16.5550   33.1880 C.2    75  TYR75       0.2264
     68  O        -15.3060   16.6200   34.3110 O.2    75  TYR75      -0.2867
     69  CB       -14.6410   18.6790   31.8490 C.3    75  TYR75       0.0534
     70  CG       -13.7980   19.8740   31.4780 C.ar   75  TYR75      -0.0201
     71  CD1      -13.1250   20.6190   32.4550 C.ar   75  TYR75      -0.0009
     72  CD2      -13.6510   20.2500   30.1450 C.ar   75  TYR75      -0.0009
     73  CE1      -12.3200   21.7130   32.0930 C.ar   75  TYR75       0.0417
     74  CE2      -12.8610   21.3390   29.7800 C.ar   75  TYR75       0.0417
     75  CZ       -12.2070   22.0690   30.7480 C.ar   75  TYR75       0.1957
     76  OH       -11.4400   23.1440   30.3570 O.3    75  TYR75      -0.2866
     77  N         -7.8900   23.1830   37.2200 N.3   162  ALA162     -0.1245
     78  CA        -8.7280   22.8890   36.0930 C.3   162  ALA162      0.1562
     79  C         -8.9410   24.1620   35.2630 C.2   162  ALA162      0.2260
     80  O         -9.1170   25.2590   35.8290 O.2   162  ALA162     -0.2867
     81  CB       -10.0060   22.3270   36.5670 C.3   162  ALA162      0.0290
     82  N        -11.3200   25.5520   33.8090 N.3   164  ASN164     -0.1225
     83  CA       -12.5720   26.3010   33.9520 C.3   164  ASN164      0.1785
     84  C        -13.0820   26.5980   35.3980 C.2   164  ASN164      0.2597
     85  O        -14.2130   27.0370   35.5840 O.2   164  ASN164     -0.2718
     86  CB       -13.6630   25.5210   33.2050 C.3   164  ASN164      0.1169
     87  CG       -13.7540   24.0450   33.6510 C.2   164  ASN164      0.2627
     88  OD1      -12.9470   23.5460   34.4670 O.2   164  ASN164     -0.2716
     89  ND2      -14.7470   23.3420   33.1120 N.am  164  ASN164     -0.0877
     90  N        -12.2340   26.3910   36.3990 N.am  165  ILE165     -0.1980
     91  CA       -12.6440   26.2000   37.7860 C.3   165  ILE165      0.1595
     92  C        -11.8190   27.2000   38.6020 C.2   165  ILE165      0.2287
     93  O        -10.6200   27.3620   38.3120 O.2   165  ILE165     -0.2864
     94  CB       -12.3250   24.6890   38.1710 C.3   165  ILE165      0.0276
     95  CG1      -13.3210   23.7450   37.5130 C.3   165  ILE165      0.0022
     96  CG2      -12.2690   24.4180   39.6650 C.3   165  ILE165      0.0022
     97  CD1      -14.7080   24.3800   37.3350 C.3   165  ILE165      0.0001
     98  N        -14.9740   24.6610   45.1460 N.3   174  ALA174     -0.1245
     99  CA       -14.7200   25.1820   43.7870 C.3   174  ALA174      0.1562
    100  C        -15.9330   25.9650   43.3350 C.2   174  ALA174      0.2260
    101  O        -17.0420   25.6680   43.7630 O.2   174  ALA174     -0.2867
    102  CB       -14.4800   24.0410   42.8230 C.3   174  ALA174      0.0290
@<TRIPOS>BOND
     1    74    72   ar
     2    74    75   ar
     3    64    63   ar
     4    64    62   ar
     5    72    70   ar
     6    76    75    1
     7    63    61   ar
     8    62    60   ar
     9    75    73   ar
    10    70    69    1
    11    70    71   ar
    12    61    58   ar
    13    69    66    1
    14    65    66    1
    15    60    58   ar
    16    60    59   ar
    17    73    71   ar
    18    58    56   ar
    19    66    67    1
    20    59    57   ar
    21    89    87   am
    22    67    68    2
    23    86    87    1
    24    86    83    1
    25    87    88    2
    26    82    83    1
    27    83    84    1
    28    56    57   ar
    29    56    55    1
    30    54    53    2
    31    55    52    1
    32    79    80    2
    33    79    78    1
    34    84    85    2
    35    84    90   am
    36    52    53    1
    37    52    51    1
    38    78    81    1
    39    78    77    1
    40    49    48    2
    41    90    91    1
    42    51    48   am
    43    48    47    1
    44    50    47    1
    45    97    95    1
    46    95    94    1
    47    91    94    1
    48    91    92    1
    49    47    46    1
    50    94    96    1
    51    93    92    2
    52    46    41   am
    53    44    43    1
    54    42    41    2
    55    41    40    1
    56    14    12   ar
    57    14    13   ar
    58    43    40    1
    59    43    45    1
    60    12    10   ar
    61    13    11   ar
    62    40    39    1
    63    10     9   ar
    64    10     8   ar
    65    11     8   ar
    66    39    33   am
    67     9     7   ar
    68     8     6   ar
    69    36    37    1
    70    36    35    1
    71    37    38    1
    72    33    34    2
    73    33    32    1
    74    29    28    2
    75   102    99    1
    76     7     6   ar
    77     6     5    1
    78   100   101    2
    79   100    99    1
    80    35    32    1
    81    32    31    1
    82    99    98    1
    83    28    27    1
    84    28    30   am
    85     5     2    1
    86    22    21    1
    87    27    24    1
    88     1     2    1
    89     2     3    1
    90    23    24    1
    91    23    17   am
    92    21    20    1
    93    20    19    1
    94    26    25    2
    95    24    25    1
    96    16    19    1
    97    16    17    1
    98    16    15    1
    99     4     3    2
   100    17    18    2
