@<TRIPOS>MOLECULE
tmp/2xh5A01.pdb
 190 181 0 0 0
SMALL
GASTEIGER

@<TRIPOS>ATOM
      1  N         50.3420   32.8780  109.7380 N.3    13  LEU13      -0.1231
      2  CA        50.0070   32.6380  111.1500 C.3    13  LEU13       0.1693
      3  C         49.2270   31.3090  111.3990 C.2    13  LEU13       0.2593
      4  O         49.3300   30.6970  112.4500 O.2    13  LEU13      -0.2718
      5  CB        49.1870   33.8130  111.6550 C.3    13  LEU13       0.0284
      6  CG        49.7330   35.2210  111.3830 C.3    13  LEU13       0.0019
      7  CD1       48.7670   36.2750  111.8720 C.3    13  LEU13       0.0001
      8  CD2       51.0860   35.4650  112.0050 C.3    13  LEU13       0.0001
      9  N         48.4220   30.8900  110.4320 N.am   14  GLY14      -0.1942
     10  CA        47.7080   29.6290  110.5140 C.3    14  GLY14       0.2014
     11  C         47.3390   29.1190  109.1420 C.2    14  GLY14       0.2639
     12  O         47.3290   29.8630  108.1700 O.2    14  GLY14      -0.2714
     13  N         47.0500   27.8330  109.0680 N.am   15  LYS15      -0.1963
     14  CA        46.7210   27.1760  107.8100 C.3    15  LYS15       0.1728
     15  C         45.9470   25.9130  108.1210 C.2    15  LYS15       0.2616
     16  O         46.2950   25.1800  109.0410 O.2    15  LYS15      -0.2715
     17  CB        47.9870   26.8300  107.0430 C.3    15  LYS15       0.0311
     18  CG        47.7390   26.2710  105.6580 C.3    15  LYS15       0.0038
     19  CD        48.9860   26.4260  104.7770 C.3    15  LYS15       0.0206
     20  CE        48.9050   25.6340  103.4710 C.3    15  LYS15       0.1093
     21  NZ        48.6580   24.1650  103.6750 N.3    15  LYS15      -0.1314
     22  N         44.8760   25.6780  107.3840 N.am   16  GLY16      -0.1955
     23  CA        44.1030   24.4680  107.5650 C.3    16  GLY16       0.1869
     24  C         43.2470   24.2160  106.3550 C.2    16  GLY16       0.2309
     25  O         43.3720   24.8720  105.3530 O.2    16  GLY16      -0.2863
     26  N         40.1350   24.9940  105.6120 N.3    18  PHE18      -0.1227
     27  CA        39.2880   26.0740  105.1090 C.3    18  PHE18       0.1736
     28  C         40.0630   27.2710  104.6060 C.2    18  PHE18       0.2596
     29  O         39.4620   28.1540  104.0110 O.2    18  PHE18      -0.2718
     30  CB        38.3060   26.5510  106.1760 C.3    18  PHE18       0.0547
     31  CG        37.5010   25.4450  106.8060 C.ar   18  PHE18      -0.0202
     32  CD1       37.3300   25.3920  108.1910 C.ar   18  PHE18      -0.0042
     33  CD2       36.9140   24.4570  106.0310 C.ar   18  PHE18      -0.0042
     34  CE1       36.5940   24.3600  108.7800 C.ar   18  PHE18      -0.0003
     35  CE2       36.1840   23.4350  106.6170 C.ar   18  PHE18      -0.0003
     36  CZ        36.0240   23.3850  107.9870 C.ar   18  PHE18      -0.0000
     37  N         41.3750   27.3150  104.8510 N.am   19  GLY19      -0.1942
     38  CA        42.2210   28.4040  104.3620 C.3    19  GLY19       0.2014
     39  C         43.4370   28.6940  105.2220 C.2    19  GLY19       0.2639
     40  O         43.9450   27.8070  105.9060 O.2    19  GLY19      -0.2714
     41  N         43.8960   29.9460  105.1690 N.am   20  LYS20      -0.1963
     42  CA        45.1080   30.4050  105.8400 C.3    20  LYS20       0.1728
     43  C         44.7810   31.6080  106.6860 C.2    20  LYS20       0.2616
     44  O         43.7880   32.2690  106.4490 O.2    20  LYS20      -0.2715
     45  CB        46.1370   30.8880  104.8150 C.3    20  LYS20       0.0311
     46  CG        46.5500   29.9270  103.6850 C.3    20  LYS20       0.0038
     47  CD        47.5780   30.6080  102.7380 C.3    20  LYS20       0.0206
     48  CE        48.2520   29.6190  101.7500 C.3    20  LYS20       0.1093
     49  NZ        49.7360   29.8930  101.5140 N.3    20  LYS20      -0.1314
     50  N         45.6250   31.9300  107.6570 N.am   21  VAL21      -0.1977
     51  CA        45.5850   33.2660  108.2440 C.3    21  VAL21       0.1596
     52  C         46.9560   33.8900  108.1320 C.2    21  VAL21       0.2287
     53  O         47.9270   33.2760  108.5640 O.2    21  VAL21      -0.2864
     54  CB        45.1810   33.3120  109.7050 C.3    21  VAL21       0.0276
     55  CG1       45.2560   34.7630  110.1750 C.3    21  VAL21       0.0022
     56  CG2       43.7570   32.7830  109.9180 C.3    21  VAL21       0.0022
     57  N         45.5380   40.6790  110.9120 N.3    34  ALA34      -0.1245
     58  CA        45.5300   39.2650  110.6040 C.3    34  ALA34       0.1562
     59  C         44.4440   39.1110  109.5910 C.2    34  ALA34       0.2260
     60  O         43.3380   39.6130  109.8070 O.2    34  ALA34      -0.2867
     61  CB        45.2080   38.4320  111.8440 C.3    34  ALA34       0.0290
     62  N         42.1150   36.4350  107.5550 N.3    36  LYS36      -0.1245
     63  CA        41.6080   35.0800  107.4200 C.3    36  LYS36       0.1561
     64  C         41.1230   34.9020  105.9970 C.2    36  LYS36       0.2260
     65  O         40.1940   35.5810  105.5470 O.2    36  LYS36      -0.2867
     66  CB        40.4760   34.7870  108.4180 C.3    36  LYS36       0.0271
     67  CG        40.1580   33.2730  108.5730 C.3    36  LYS36       0.0035
     68  CD        39.8970   32.8590  110.0250 C.3    36  LYS36       0.0206
     69  CE        38.4870   33.2290  110.4830 C.3    36  LYS36       0.1093
     70  NZ        38.1380   32.6290  111.8000 N.3    36  LYS36      -0.1314
     71  N         39.7560   32.2770  103.1530 N.3    38  LEU38      -0.1245
     72  CA        39.0550   31.0120  103.0600 C.3    38  LEU38       0.1561
     73  C         38.5990   30.7460  101.6510 C.2    38  LEU38       0.2260
     74  O         38.1090   31.6620  101.0030 O.2    38  LEU38      -0.2867
     75  CB        37.8280   31.0380  103.9600 C.3    38  LEU38       0.0270
     76  CG        38.0320   31.3880  105.4280 C.3    38  LEU38       0.0019
     77  CD1       36.6590   31.5810  106.0950 C.3    38  LEU38       0.0001
     78  CD2       38.8740   30.2980  106.1030 C.3    38  LEU38       0.0001
     79  N         37.8400   40.2840  119.5070 N.3    68  THR68      -0.1218
     80  CA        38.5240   40.7460  118.2910 C.3    68  THR68       0.1862
     81  C         37.6400   41.5870  117.3680 C.2    68  THR68       0.2287
     82  O         36.4410   41.3100  117.2050 O.2    68  THR68      -0.2866
     83  CB        39.0640   39.5900  117.4200 C.3    68  THR68       0.1770
     84  OG1       39.4670   38.5110  118.2610 O.3    68  THR68      -0.2211
     85  CG2       40.2460   40.0790  116.6020 C.3    68  THR68       0.0375
     86  N         40.8960   41.3890  110.4490 N.3    84  MET84      -0.1230
     87  CA        40.6930   41.6730  111.8560 C.3    84  MET84       0.1702
     88  C         41.9780   42.1110  112.5040 C.2    84  MET84       0.2595
     89  O         43.0480   41.9030  111.9580 O.2    84  MET84      -0.2718
     90  CB        40.2540   40.4140  112.5710 C.3    84  MET84       0.0401
     91  CG        39.0170   39.7410  111.9830 C.3    84  MET84       0.0596
     92  SD        39.1220   37.9800  112.3300 S.3    84  MET84      -0.1393
     93  CE        40.7010   37.5350  111.5860 C.3    84  MET84       0.0692
     94  N         41.8640   42.6780  113.6960 N.am   85  GLU85      -0.1920
     95  CA        43.0360   43.1330  114.4260 C.3    85  GLU85       0.1949
     96  C         43.9260   41.9580  114.8540 C.2    85  GLU85       0.2659
     97  O         43.4750   40.8590  115.1690 O.2    85  GLU85      -0.2711
     98  CB        42.6760   44.0920  115.5950 C.2    85  GLU85       0.0111
     99  CG        41.7950   43.5360  116.6870 C.2    85  GLU85       0.0838
    100  CD        41.0680   44.6090  117.5600 C.2    85  GLU85       0.3877
    101  OE1       41.4990   45.7870  117.6090 O.co2  85  GLU85      -0.2406
    102  OE2       40.0630   44.2530  118.2320 O.co2  85  GLU85      -0.2406
    103  N         45.2160   42.2290  114.8190 N.am   86  TYR86      -0.1957
    104  CA        46.2530   41.2510  115.0310 C.3    86  TYR86       0.1771
    105  C         46.4760   41.0230  116.5240 C.2    86  TYR86       0.2619
    106  O         46.7250   41.9870  117.2680 O.2    86  TYR86      -0.2715
    107  CB        47.5420   41.7970  114.3740 C.3    86  TYR86       0.0574
    108  CG        48.7720   40.9360  114.5070 C.ar   86  TYR86      -0.0198
    109  CD1       48.6870   39.5330  114.4630 C.ar   86  TYR86      -0.0009
    110  CD2       50.0200   41.5130  114.6370 C.ar   86  TYR86      -0.0009
    111  CE1       49.8210   38.7350  114.5930 C.ar   86  TYR86       0.0417
    112  CE2       51.1540   40.7290  114.7560 C.ar   86  TYR86       0.0417
    113  CZ        51.0550   39.3370  114.7330 C.ar   86  TYR86       0.1957
    114  OH        52.1930   38.5540  114.8660 O.3    86  TYR86      -0.2866
    115  N         46.4050   39.7640  116.9630 N.am   87  ALA87      -0.1977
    116  CA        46.7990   39.4070  118.3350 C.3    87  ALA87       0.1597
    117  C         48.2940   38.9900  118.4450 C.2    87  ALA87       0.2287
    118  O         48.6130   37.8180  118.4270 O.2    87  ALA87      -0.2864
    119  CB        45.8660   38.3210  118.9010 C.3    87  ALA87       0.0319
    120  N         48.2740   32.5290  121.0570 N.3    91  GLU91      -0.1245
    121  CA        47.1850   31.8950  121.7980 C.3    91  GLU91       0.1567
    122  C         47.6740   31.5600  123.1880 C.2    91  GLU91       0.2260
    123  O         48.8490   31.2710  123.3800 O.2    91  GLU91      -0.2867
    124  CB        46.6800   30.6100  121.1160 C.3    91  GLU91       0.0388
    125  CG        46.3290   30.7520  119.6500 C.3    91  GLU91       0.1160
    126  CD        46.1550   29.4120  118.9200 C.2    91  GLU91       0.3649
    127  OE1       46.6740   28.3710  119.4000 O.co2  91  GLU91      -0.2457
    128  OE2       45.5030   29.4050  117.8390 O.co2  91  GLU91      -0.2457
    129  N         42.7400   27.8200  122.5410 N.3   134  GLU134     -0.1231
    130  CA        43.0080   28.1670  121.1480 C.3   134  GLU134      0.1699
    131  C         42.2680   29.4220  120.7190 C.2   134  GLU134      0.2592
    132  O         42.7810   30.1830  119.9100 O.2   134  GLU134     -0.2718
    133  CB        42.6240   27.0210  120.2080 C.3   134  GLU134      0.0402
    134  CG        43.5090   25.7680  120.3210 C.3   134  GLU134      0.1161
    135  CD        43.0530   24.7980  121.3960 C.2   134  GLU134      0.3649
    136  OE1       42.2650   25.1870  122.2840 O.co2 134  GLU134     -0.2457
    137  OE2       43.5040   23.6400  121.3560 O.co2 134  GLU134     -0.2457
    138  N         41.0750   29.6330  121.2520 N.am  135  ASN135     -0.1974
    139  CA        40.2880   30.8080  120.8970 C.3   135  ASN135      0.1688
    140  C         40.5730   32.0110  121.7570 C.2   135  ASN135      0.2292
    141  O         40.0170   33.0820  121.5040 O.2   135  ASN135     -0.2864
    142  CB        38.8040   30.4800  120.9290 C.3   135  ASN135      0.1181
    143  CG        38.4620   29.4650  119.9090 C.2   135  ASN135      0.2629
    144  OD1       39.3230   29.1200  119.1090 O.2   135  ASN135     -0.2716
    145  ND2       37.2500   28.9470  119.9280 N.am  135  ASN135     -0.0877
    146  N         43.2350   34.6710  122.7690 N.3   137  MET137     -0.1245
    147  CA        44.5380   35.2630  122.4290 C.3   137  MET137      0.1570
    148  C         44.9030   36.4670  123.2620 C.2   137  MET137      0.2261
    149  O         44.0990   36.9890  124.0060 O.2   137  MET137     -0.2867
    150  CB        44.5440   35.6430  120.9720 C.3   137  MET137      0.0387
    151  CG        44.0320   34.5010  120.1410 C.3   137  MET137      0.0595
    152  SD        44.6380   34.4760  118.4770 S.3   137  MET137     -0.1393
    153  CE        46.4320   34.3280  118.6590 C.3   137  MET137      0.0692
    154  N         38.9640   35.1220  119.8250 N.3   147  THR147     -0.1203
    155  CA        38.9290   34.9580  118.3850 C.3   147  THR147      0.1994
    156  C         37.9460   33.8390  118.0650 C.2   147  THR147      0.2617
    157  O         37.5380   33.1080  118.9610 O.2   147  THR147     -0.2717
    158  CB        40.3490   34.6680  117.8010 C.3   147  THR147      0.1784
    159  OG1       41.0840   33.8180  118.6870 O.3   147  THR147     -0.2211
    160  CG2       41.1320   35.9730  117.6120 C.3   147  THR147      0.0376
    161  N         37.5420   33.7560  116.7990 N.am  148  ASP148     -0.1973
    162  CA        36.6730   32.6820  116.2450 C.3   148  ASP148      0.1709
    163  C         35.2360   32.6780  116.7990 C.2   148  ASP148      0.2293
    164  O         35.0120   32.3430  117.9590 O.2   148  ASP148     -0.2864
    165  CB        37.3630   31.2970  116.3230 C.3   148  ASP148      0.1436
    166  CG        38.5900   31.1950  115.3550 C.2   148  ASP148      0.3671
    167  OD1       38.3830   30.9700  114.1340 O.co2 148  ASP148     -0.2456
    168  OD2       39.7640   31.3680  115.8090 O.co2 148  ASP148     -0.2456
    169  N         53.6780   32.5680  117.8130 N.3   293  PHE293     -0.1241
    170  CA        53.0270   31.6160  116.9310 C.3   293  PHE293      0.1605
    171  C         54.0710   30.5430  116.6150 C.2   293  PHE293      0.2264
    172  O         55.2780   30.7550  116.8610 O.2   293  PHE293     -0.2867
    173  CB        52.5600   32.3210  115.6500 C.3   293  PHE293      0.0534
    174  CG        51.6600   33.4850  115.9080 C.ar  293  PHE293     -0.0203
    175  CD1       52.1880   34.7390  116.1880 C.ar  293  PHE293     -0.0042
    176  CD2       50.2780   33.3290  115.8900 C.ar  293  PHE293     -0.0042
    177  CE1       51.3540   35.8220  116.4480 C.ar  293  PHE293     -0.0003
    178  CE2       49.4290   34.4150  116.1510 C.ar  293  PHE293     -0.0003
    179  CZ        49.9630   35.6580  116.4310 C.ar  293  PHE293     -0.0000
    180  N         53.9900   27.0160  111.0270 N.3   297  PHE297     -0.1241
    181  CA        53.3810   27.9390  110.0490 C.3   297  PHE297      0.1605
    182  C         54.2720   29.1470  109.6640 C.2   297  PHE297      0.2264
    183  O         54.4320   29.4550  108.4880 O.2   297  PHE297     -0.2867
    184  CB        52.0250   28.4250  110.5930 C.3   297  PHE297      0.0534
    185  CG        51.1040   27.2970  110.9900 C.ar  297  PHE297     -0.0203
    186  CD1       50.6480   27.1780  112.2750 C.ar  297  PHE297     -0.0042
    187  CD2       50.7510   26.3110  110.0630 C.ar  297  PHE297     -0.0042
    188  CE1       49.8260   26.1180  112.6310 C.ar  297  PHE297     -0.0003
    189  CE2       49.9350   25.2430  110.4090 C.ar  297  PHE297     -0.0003
    190  CZ        49.4770   25.1410  111.6850 C.ar  297  PHE297     -0.0000
@<TRIPOS>BOND
     1    74    73    2
     2    49    48    1
     3    73    72    1
     4    48    47    1
     5    47    46    1
     6    72    71    1
     7    72    75    1
     8    20    21    1
     9    20    19    1
    10    46    45    1
    11    75    76    1
    12    29    28    2
    13    38    37    1
    14    38    39    1
    15    28    37   am
    16    28    27    1
    17    19    18    1
    18    45    42    1
    19    27    26    1
    20    27    30    1
    21    41    39   am
    22    41    42    1
    23    39    40    2
    24    25    24    2
    25    76    77    1
    26    76    78    1
    27    65    64    2
    28    18    17    1
    29    42    43    1
    30    64    63    1
    31    33    35   ar
    32    33    31   ar
    33    30    31    1
    34    24    23    1
    35    44    43    2
    36    35    36   ar
    37    43    50   am
    38    31    32   ar
    39    17    14    1
    40    22    23    1
    41    22    15   am
    42    63    62    1
    43    63    66    1
    44    50    51    1
    45    14    15    1
    46    14    13    1
    47    36    34   ar
    48    15    16    2
    49    52    51    1
    50    52    53    2
    51    12    11    2
    52    32    34   ar
    53    51    54    1
    54    66    67    1
    55   183   182    2
    56    67    68    1
    57    13    11   am
    58    11    10    1
    59    59    60    2
    60    59    58    1
    61   182   181    1
    62    54    56    1
    63    54    55    1
    64     1     2    1
    65    68    69    1
    66   181   184    1
    67   181   180    1
    68   187   189   ar
    69   187   185   ar
    70   189   190   ar
    71     9    10    1
    72     9     3   am
    73    86    87    1
    74    69    70    1
    75   184   185    1
    76    58    57    1
    77    58    61    1
    78   185   186   ar
    79     2     3    1
    80     2     5    1
    81     6     5    1
    82     6     7    1
    83     6     8    1
    84     3     4    2
    85    93    92    1
    86   190   188   ar
    87    87    88    1
    88    87    90    1
    89    89    88    2
    90    91    92    1
    91    91    90    1
    92   186   188   ar
    93    88    94   am
    94    94    95    1
    95   167   166   ar
    96   107   108    1
    97   107   104    1
    98    95    96    1
    99    95    98    1
   100   109   108   ar
   101   109   111   ar
   102   108   110   ar
   103   111   113   ar
   104   110   112   ar
   105   113   112   ar
   106   113   114    1
   107   103    96   am
   108   103   104    1
   109    96    97    2
   110   104   105    1
   111   166   168   ar
   112   166   165    1
   113    98    99    2
   114   173   174    1
   115   173   170    1
   116   176   174   ar
   117   176   178   ar
   118   174   175   ar
   119   178   179   ar
   120   175   177   ar
   121   162   165    1
   122   162   163    1
   123   162   161    1
   124   179   177   ar
   125   105   115   am
   126   105   106    2
   127    85    83    1
   128   171   172    2
   129   171   170    1
   130    99   100    1
   131   163   164    2
   132   161   156   am
   133   170   169    1
   134   115   116    1
   135    82    81    2
   136    81    80    1
   137    83    84    1
   138    83    80    1
   139   100   101   ar
   140   100   102   ar
   141   160   158    1
   142   158   155    1
   143   158   159    1
   144   128   126   ar
   145   156   155    1
   146   156   157    2
   147    80    79    1
   148   116   117    1
   149   116   119    1
   150   155   154    1
   151   118   117    2
   152   152   153    1
   153   152   151    1
   154   126   127   ar
   155   126   125    1
   156   144   143    2
   157   125   124    1
   158   143   145   am
   159   143   142    1
   160   132   131    2
   161   151   150    1
   162   133   134    1
   163   133   130    1
   164   134   135    1
   165   131   130    1
   166   131   138   am
   167   139   142    1
   168   139   138    1
   169   139   140    1
   170   150   147    1
   171   120   121    1
   172   124   121    1
   173   130   129    1
   174   137   135   ar
   175   135   136   ar
   176   141   140    2
   177   121   122    1
   178   147   146    1
   179   147   148    1
   180   122   123    2
   181   148   149    2
