@<TRIPOS>MOLECULE
tmp/2xh9A00.pdb
 129 119 0 0 0
SMALL
GASTEIGER

@<TRIPOS>ATOM
      1  N          0.1240   -1.2650   77.1760 N.3    68  ALA68      -0.1245
      2  CA         0.3430   -0.2390   76.1320 C.3    68  ALA68       0.1562
      3  C          0.9870   -0.8710   74.8960 C.2    68  ALA68       0.2260
      4  O          1.6760   -1.8950   74.9820 O.2    68  ALA68      -0.2867
      5  CB         1.2210    0.9210   76.6410 C.3    68  ALA68       0.0290
      6  N          3.0390    0.4600   71.3090 N.3    70  HIS70      -0.1241
      7  CA         3.6550    1.6010   70.6440 C.3    70  HIS70       0.1621
      8  C          4.3710    1.1650   69.3810 C.2    70  HIS70       0.2264
      9  O          5.6050    1.0060   69.3800 O.2    70  HIS70      -0.2867
     10  CB         4.6620    2.2740   71.5640 C.3    70  HIS70       0.0745
     11  CG         4.0720    2.8040   72.8320 C.ar   70  HIS70       0.0817
     12  ND1        3.2890    3.9380   72.8750 N.ar   70  HIS70      -0.2268
     13  CD2        4.1620    2.3590   74.1120 C.ar   70  HIS70       0.1154
     14  CE1        2.9120    4.1660   74.1260 C.ar   70  HIS70       0.1986
     15  NE2        3.4380    3.2280   74.8970 N.ar   70  HIS70      -0.2212
     16  N          6.0680    1.9490   65.9020 N.3    72  VAL72      -0.1245
     17  CA         6.6450    3.0860   65.1890 C.3    72  VAL72       0.1561
     18  C          7.5050    2.5710   64.0230 C.2    72  VAL72       0.2260
     19  O          8.7150    2.3690   64.1600 O.2    72  VAL72      -0.2867
     20  CB         7.4990    4.0080   66.1090 C.3    72  VAL72       0.0252
     21  CG1        7.9130    5.2420   65.3430 C.3    72  VAL72       0.0019
     22  CG2        6.7410    4.3870   67.4230 C.3    72  VAL72       0.0019
     23  N          7.1940   -1.2530   70.7140 N.3    77  TRP77      -0.1241
     24  CA         7.2720   -1.5510   72.1470 C.3    77  TRP77       0.1605
     25  C          5.9050   -1.9680   72.6790 C.2    77  TRP77       0.2264
     26  O          4.8880   -1.3240   72.3860 O.2    77  TRP77      -0.2867
     27  CB         7.7630   -0.3240   72.9120 C.3    77  TRP77       0.0550
     28  CG         9.1620    0.0930   72.5100 C.ar   77  TRP77       0.0003
     29  CD1       10.3430   -0.3680   73.0220 C.ar   77  TRP77       0.0946
     30  CD2        9.4940    1.0160   71.4740 C.ar   77  TRP77       0.0152
     31  NE1       11.4150    0.2350   72.3750 N.ar   77  TRP77      -0.2442
     32  CE2       10.9140    1.0890   71.4130 C.ar   77  TRP77       0.0810
     33  CE3        8.7270    1.7970   70.5890 C.ar   77  TRP77       0.0012
     34  CZ2       11.5850    1.9310   70.5050 C.ar   77  TRP77       0.0191
     35  CZ3        9.4110    2.6430   69.6520 C.ar   77  TRP77       0.0001
     36  CH2       10.8260    2.6810   69.6310 C.ar   77  TRP77       0.0015
     37  N          4.0970   -2.7020   76.3680 N.3    79  VAL79      -0.1245
     38  CA         4.2170   -2.6230   77.8180 C.3    79  VAL79       0.1561
     39  C          3.3140   -3.6860   78.4070 C.2    79  VAL79       0.2260
     40  O          2.1270   -3.7460   78.0520 O.2    79  VAL79      -0.2867
     41  CB         3.8560   -1.2530   78.3460 C.3    79  VAL79       0.0252
     42  CG1        4.0240   -1.2420   79.9050 C.3    79  VAL79       0.0019
     43  CG2        4.7680   -0.1980   77.7160 C.3    79  VAL79       0.0019
     44  N          8.8070   -4.4730   79.3510 N.3    89  ILE89      -0.1245
     45  CA         8.5690   -3.9990   77.9750 C.3    89  ILE89       0.1561
     46  C          9.1810   -5.0050   77.0120 C.2    89  ILE89       0.2260
     47  O         10.3300   -5.4460   77.1850 O.2    89  ILE89      -0.2867
     48  CB         9.0950   -2.5630   77.7570 C.3    89  ILE89       0.0252
     49  CG1        8.3890   -1.5720   78.7070 C.3    89  ILE89       0.0019
     50  CG2        8.9660   -2.1180   76.2310 C.3    89  ILE89       0.0019
     51  CD1        8.8500   -0.1120   78.4920 C.3    89  ILE89       0.0001
     52  N         10.5630   -2.7070   82.9460 N.3   108  GLU108     -0.1231
     53  CA         9.9820   -1.4900   82.4000 C.3   108  GLU108      0.1699
     54  C         10.9020   -0.2550   82.4930 C.2   108  GLU108      0.2592
     55  O         11.5130    0.0100   83.5380 O.2   108  GLU108     -0.2718
     56  CB         8.6590   -1.1740   83.1230 C.3   108  GLU108      0.0402
     57  CG         8.0810    0.0690   82.6590 C.3   108  GLU108      0.1161
     58  CD         6.7740    0.4200   83.3100 C.2   108  GLU108      0.3649
     59  OE1        5.9220    0.8650   82.5470 O.co2 108  GLU108     -0.2457
     60  OE2        6.6090    0.3190   84.5610 O.co2 108  GLU108     -0.2457
     61  N         10.9480    0.5130   81.4050 N.am  109  THR109     -0.1953
     62  CA        11.5830    1.8260   81.4410 C.3   109  THR109      0.1897
     63  C         10.5110    2.8460   81.8910 C.2   109  THR109      0.2313
     64  O          9.4950    3.0260   81.2160 O.2   109  THR109     -0.2863
     65  CB        12.1350    2.1870   80.0480 C.3   109  THR109      0.1794
     66  OG1       13.1050    1.2150   79.6470 O.3   109  THR109     -0.2208
     67  CG2       12.7920    3.5540   80.1030 C.3   109  THR109      0.0378
     68  N          9.1600    6.5230   82.5920 N.3   111  ILE111     -0.1245
     69  CA         9.3490    7.9520   82.3040 C.3   111  ILE111      0.1561
     70  C          8.0640    8.6460   82.7630 C.2   111  ILE111      0.2260
     71  O          6.9810    8.3130   82.2840 O.2   111  ILE111     -0.2867
     72  CB         9.5910    8.2530   80.7830 C.3   111  ILE111      0.0252
     73  CG1       10.7360    7.4170   80.1870 C.3   111  ILE111      0.0019
     74  CG2        9.9780    9.7160   80.6010 C.3   111  ILE111      0.0019
     75  CD1       10.3000    6.3420   79.3030 C.3   111  ILE111      0.0001
     76  N          8.8480    8.4140   66.6630 N.3   348  LEU348     -0.1245
     77  CA         7.7350    8.4220   67.6240 C.3   348  LEU348      0.1561
     78  C          6.4560    8.4260   66.8280 C.2   348  LEU348      0.2260
     79  O          6.4660    8.6750   65.6220 O.2   348  LEU348     -0.2867
     80  CB         7.7320    9.7030   68.4730 C.3   348  LEU348      0.0270
     81  CG         8.9170   10.0160   69.3920 C.3   348  LEU348      0.0019
     82  CD1        8.8070   11.4280   69.9110 C.3   348  LEU348      0.0001
     83  CD2        9.0250    9.0110   70.5620 C.3   348  LEU348      0.0001
     84  N         15.6800    3.3680   75.2580 N.3   401  LEU401     -0.1245
     85  CA        14.2550    3.6700   75.4040 C.3   401  LEU401      0.1561
     86  C         14.0510    4.8020   76.4140 C.2   401  LEU401      0.2260
     87  O         13.1370    5.6130   76.2520 O.2   401  LEU401     -0.2867
     88  CB        13.4420    2.4330   75.8190 C.3   401  LEU401      0.0270
     89  CG        11.9240    2.6200   75.9460 C.3   401  LEU401      0.0019
     90  CD1       11.2520    3.3400   74.7270 C.3   401  LEU401      0.0001
     91  CD2       11.2380    1.2930   76.2100 C.3   401  LEU401      0.0001
     92  N         14.8390    8.1390   74.6000 N.3   404  ARG404     -0.1231
     93  CA        13.8080    8.3500   73.5730 C.3   404  ARG404      0.1694
     94  C         12.4970    8.7470   74.2530 C.2   404  ARG404      0.2592
     95  O         11.8140    9.6750   73.8190 O.2   404  ARG404     -0.2718
     96  CB        13.5310    7.1060   72.7130 C.3   404  ARG404      0.0321
     97  CG        12.6280    7.4270   71.4810 C.3   404  ARG404      0.0489
     98  CD        12.0710    6.1510   70.8870 C.3   404  ARG404      0.2205
     99  NE        13.1390    5.2400   70.4920 N.pl3 404  ARG404     -0.0865
    100  CZ        13.5350    5.0810   69.2320 C.cat 404  ARG404      0.5346
    101  NH1       12.9270    5.7630   68.2590 N.pl3 404  ARG404      0.1354
    102  NH2       14.5160    4.2370   68.9490 N.pl3 404  ARG404      0.1354
    103  N         12.1730    8.0460   75.3360 N.am  405  GLY405     -0.1957
    104  CA        10.9080    8.2620   76.0460 C.3   405  GLY405      0.1869
    105  C         10.8300    9.6090   76.7050 C.2   405  GLY405      0.2309
    106  O          9.7640   10.2090   76.7520 O.2   405  GLY405     -0.2863
    107  N          9.8330   11.7660   73.9230 N.3   408  ALA408     -0.1231
    108  CA         8.4000   11.5380   73.6800 C.3   408  ALA408      0.1694
    109  C          7.5780   12.3720   74.6580 C.2   408  ALA408      0.2591
    110  O          6.5990   13.0090   74.2750 O.2   408  ALA408     -0.2718
    111  CB         8.0610   10.0480   73.8100 C.3   408  ALA408      0.0304
    112  N          7.9950   12.3840   75.9140 N.am  409  LYS409     -0.1980
    113  CA         7.2540   13.1220   76.9340 C.3   409  LYS409      0.1596
    114  C          7.3440   14.6410   76.7380 C.2   409  LYS409      0.2287
    115  O          6.3540   15.3570   76.9220 O.2   409  LYS409     -0.2864
    116  CB         7.6970   12.7150   78.3310 C.3   409  LYS409      0.0298
    117  CG         7.3130   11.2830   78.7120 C.3   409  LYS409      0.0038
    118  CD         5.8040   11.0910   78.6810 C.3   409  LYS409      0.0206
    119  CE         5.4010    9.7580   79.3090 C.3   409  LYS409      0.1093
    120  NZ         3.9030    9.6690   79.3460 N.3   409  LYS409     -0.1314
    121  N          5.0660   15.3150   73.7070 N.3   412  GLU412     -0.1245
    122  CA         3.6850   15.2550   74.2620 C.3   412  GLU412      0.1567
    123  C          3.3200   16.5510   75.0000 C.2   412  GLU412      0.2260
    124  O          2.2140   17.0820   74.8390 O.2   412  GLU412     -0.2867
    125  CB         3.5560   14.0800   75.2390 C.3   412  GLU412      0.0388
    126  CG         2.1260   13.8900   75.7600 C.3   412  GLU412      0.1160
    127  CD         1.9330   12.5730   76.4780 C.2   412  GLU412      0.3649
    128  OE1        2.8920   11.7680   76.5850 O.co2 412  GLU412     -0.2457
    129  OE2        0.8110   12.3530   76.9520 O.co2 412  GLU412     -0.2457
@<TRIPOS>BOND
     1    18    19    2
     2    18    17    1
     3    17    16    1
     4    17    20    1
     5    21    20    1
     6    79    78    2
     7    20    22    1
     8    76    77    1
     9    78    77    1
    10    77    80    1
    11   101   100    1
    12    80    81    1
    13   102   100    1
    14   100    99    2
    15     9     8    2
    16     8     7    1
    17    81    82    1
    18    81    83    1
    19    36    35   ar
    20    36    34   ar
    21    35    33   ar
    22    99    98    1
    23    34    32   ar
    24    33    30   ar
    25     7     6    1
    26     7    10    1
    27    23    24    1
    28    98    97    1
    29    32    30   ar
    30    32    31   ar
    31    30    28   ar
    32    97    96    1
    33    10    11    1
    34    24    25    1
    35    24    27    1
    36    31    29   ar
    37    26    25    2
    38    28    27    1
    39    28    29   ar
    40    96    93    1
    41    11    12   ar
    42    11    13   ar
    43    12    14   ar
    44    93    94    1
    45    93    92    1
    46   108   111    1
    47   108   107    1
    48   108   109    1
    49   121   122    1
    50    95    94    2
    51    13    15   ar
    52    14    15   ar
    53    94   103   am
    54   122   123    1
    55   122   125    1
    56   110   109    2
    57   109   112   am
    58    90    89    1
    59   124   123    2
    60     3     4    2
    61     3     2    1
    62   125   126    1
    63    84    85    1
    64   103   104    1
    65    85    88    1
    66    85    86    1
    67   126   127    1
    68    88    89    1
    69   112   113    1
    70    89    91    1
    71   104   105    1
    72     2     5    1
    73     2     1    1
    74    50    48    1
    75    87    86    2
    76    37    38    1
    77   127   128   ar
    78   127   129   ar
    79   105   106    2
    80   114   115    2
    81   114   113    1
    82   113   116    1
    83    46    47    2
    84    46    45    1
    85    43    41    1
    86    48    45    1
    87    48    49    1
    88    38    41    1
    89    38    39    1
    90    45    44    1
    91    40    39    2
    92   116   117    1
    93    41    42    1
    94    51    49    1
    95   118   117    1
    96   118   119    1
    97    75    73    1
    98   119   120    1
    99    66    65    1
   100    65    67    1
   101    65    62    1
   102    73    72    1
   103    74    72    1
   104    72    69    1
   105    64    63    2
   106    61    62    1
   107    61    54   am
   108    62    63    1
   109    71    70    2
   110    69    68    1
   111    69    70    1
   112    53    54    1
   113    53    52    1
   114    53    56    1
   115    54    55    2
   116    59    58   ar
   117    57    56    1
   118    57    58    1
   119    58    60   ar
