@<TRIPOS>MOLECULE
tmp/2xhdB01.pdb
 73 70 0 0 0
SMALL
GASTEIGER

@<TRIPOS>ATOM
      1  N         37.3710   39.8840   15.1580 N.3    89  ILE89      -0.1245
      2  CA        37.3470   40.8650   14.0870 C.3    89  ILE89       0.1561
      3  C         38.5060   41.8420   14.2730 C.2    89  ILE89       0.2260
      4  O         38.5790   42.5540   15.2740 O.2    89  ILE89      -0.2867
      5  CB        35.9840   41.6200   14.0500 C.3    89  ILE89       0.0252
      6  CG1       34.8360   40.6230   13.8650 C.3    89  ILE89       0.0019
      7  CG2       35.9730   42.6760   12.9350 C.3    89  ILE89       0.0019
      8  CD1       33.4380   41.2170   14.0510 C.3    89  ILE89       0.0001
      9  N         29.3760   41.2500   14.5910 N.3   102  PRO102     -0.2102
     10  CA        29.8190   40.3230   15.6410 C.3   102  PRO102      0.1504
     11  C         28.6650   39.5940   16.3350 C.2   102  PRO102      0.2576
     12  O         27.6190   40.1940   16.5900 O.2   102  PRO102     -0.2718
     13  CB        30.5770   41.2250   16.6180 C.3   102  PRO102      0.0282
     14  CG        30.0790   42.6100   16.3390 C.3   102  PRO102      0.0208
     15  CD        29.6990   42.6540   14.9020 C.3   102  PRO102      0.0893
     16  N         28.8560   38.3020   16.6140 N.am  103  PHE103     -0.1963
     17  CA        27.8440   37.4990   17.3000 C.3   103  PHE103      0.1771
     18  C         28.0930   37.3780   18.8020 C.2   103  PHE103      0.2619
     19  O         27.2320   36.8900   19.5420 O.2   103  PHE103     -0.2715
     20  CB        27.7130   36.1020   16.6630 C.3   103  PHE103      0.0574
     21  CG        28.9840   35.2850   16.6890 C.ar  103  PHE103     -0.0200
     22  CD1       29.3170   34.5280   17.8090 C.ar  103  PHE103     -0.0042
     23  CD2       29.8290   35.2510   15.5810 C.ar  103  PHE103     -0.0042
     24  CE1       30.4870   33.7610   17.8360 C.ar  103  PHE103     -0.0003
     25  CE2       31.0010   34.4860   15.5940 C.ar  103  PHE103     -0.0003
     26  CZ        31.3260   33.7380   16.7280 C.ar  103  PHE103     -0.0000
     27  N         29.2760   37.8080   19.2410 N.am  104  MET104     -0.1963
     28  CA        29.6490   37.7690   20.6550 C.3   104  MET104      0.1736
     29  C         30.7030   38.8240   20.9610 C.2   104  MET104      0.2617
     30  O         31.6050   39.0740   20.1460 O.2   104  MET104     -0.2715
     31  CB        30.1570   36.3740   21.0500 C.3   104  MET104      0.0427
     32  CG        30.3360   36.1710   22.5530 C.3   104  MET104      0.0599
     33  SD        30.9130   34.5170   22.9730 S.3   104  MET104     -0.1393
     34  CE        29.4850   33.5370   22.5570 C.3   104  MET104      0.0692
     35  N         30.5880   39.4360   22.1360 N.am  105  SER105     -0.1950
     36  CA        31.5420   40.4430   22.5830 C.3   105  SER105      0.1924
     37  C         32.5880   39.8190   23.4840 C.2   105  SER105      0.2314
     38  O         32.3360   38.7970   24.1240 O.2   105  SER105     -0.2863
     39  CB        30.8250   41.5580   23.3390 C.3   105  SER105      0.2116
     40  OG        29.8160   42.1370   22.5380 O.3   105  SER105     -0.2180
     41  N         37.7950   46.1820   23.9220 N.3   214  SER214     -0.1202
     42  CA        36.4210   45.7910   23.6410 C.3   214  SER214      0.2020
     43  C         36.2910   45.4770   22.1640 C.2   214  SER214      0.2619
     44  O         36.5140   46.3450   21.3160 O.2   214  SER214     -0.2717
     45  CB        35.4500   46.9080   24.0240 C.3   214  SER214      0.2103
     46  OG        35.4760   47.1500   25.4200 O.3   214  SER214     -0.2182
     47  N         35.9420   44.2300   21.8620 N.am  215  LYS215     -0.1965
     48  CA        35.8100   43.7820   20.4760 C.3   215  LYS215      0.1728
     49  C         34.8270   42.6290   20.3450 C.2   215  LYS215      0.2616
     50  O         34.0640   42.3530   21.2750 O.2   215  LYS215     -0.2715
     51  CB        37.1810   43.4220   19.8930 C.3   215  LYS215      0.0311
     52  CG        37.9570   42.4160   20.7080 C.3   215  LYS215      0.0038
     53  CD        39.4430   42.5680   20.4310 C.3   215  LYS215      0.0206
     54  CE        40.2440   41.5730   21.2460 C.3   215  LYS215      0.1093
     55  NZ        41.7100   41.8680   21.1440 N.3   215  LYS215     -0.1314
     56  N         34.8210   41.9840   19.1810 N.am  216  GLY216     -0.1955
     57  CA        33.8500   40.9280   18.9030 C.3   216  GLY216      0.1869
     58  C         34.3540   39.7990   18.0280 C.2   216  GLY216      0.2309
     59  O         35.3460   39.9460   17.3130 O.2   216  GLY216     -0.2863
     60  N         20.4860   37.2780   16.6570 N.3   239  SER239     -0.1217
     61  CA        20.6550   38.2270   17.7580 C.3   239  SER239      0.1889
     62  C         19.3000   38.7280   18.2770 C.2   239  SER239      0.2288
     63  O         19.0100   38.6300   19.4690 O.2   239  SER239     -0.2866
     64  CB        21.5230   39.4120   17.3250 C.3   239  SER239      0.2089
     65  OG        21.5160   40.4260   18.3120 O.3   239  SER239     -0.2183
     66  N         21.2440   33.9080   20.2470 N.3   244  LEU244     -0.1245
     67  CA        22.6400   34.0560   20.6690 C.3   244  LEU244      0.1561
     68  C         22.7820   34.0740   22.1930 C.2   244  LEU244      0.2260
     69  O         23.7090   33.4740   22.7410 O.2   244  LEU244     -0.2867
     70  CB        23.2880   35.3060   20.0450 C.3   244  LEU244      0.0270
     71  CG        23.3080   35.4150   18.5130 C.3   244  LEU244      0.0019
     72  CD1       24.0280   36.6920   18.0940 C.3   244  LEU244      0.0001
     73  CD2       23.9500   34.1990   17.8520 C.3   244  LEU244      0.0001
@<TRIPOS>BOND
     1     7     5    1
     2     6     5    1
     3     6     8    1
     4     5     2    1
     5     2     3    1
     6     2     1    1
     7     3     4    2
     8     9    15    1
     9     9    10    1
    10    15    14    1
    11    23    25   ar
    12    23    21   ar
    13    25    26   ar
    14    10    11    1
    15    10    13    1
    16    11    12    2
    17    11    16   am
    18    14    13    1
    19    16    17    1
    20    60    61    1
    21    20    21    1
    22    20    17    1
    23    21    22   ar
    24    26    24   ar
    25    17    18    1
    26    59    58    2
    27    64    61    1
    28    64    65    1
    29    61    62    1
    30    22    24   ar
    31    73    71    1
    32    58    57    1
    33    72    71    1
    34    62    63    2
    35    71    70    1
    36    18    27   am
    37    18    19    2
    38    57    56    1
    39    56    49   am
    40    27    28    1
    41    51    48    1
    42    51    52    1
    43    70    67    1
    44    30    29    2
    45    66    67    1
    46    49    48    1
    47    49    50    2
    48    53    52    1
    49    53    54    1
    50    48    47    1
    51    28    29    1
    52    28    31    1
    53    67    68    1
    54    29    35   am
    55    31    32    1
    56    55    54    1
    57    44    43    2
    58    47    43   am
    59    35    36    1
    60    43    42    1
    61    68    69    2
    62    40    39    1
    63    32    33    1
    64    34    33    1
    65    36    39    1
    66    36    37    1
    67    37    38    2
    68    42    41    1
    69    42    45    1
    70    45    46    1
