@<TRIPOS>MOLECULE
tmp/2xhkB00.pdb
 94 93 0 0 0
SMALL
GASTEIGER

@<TRIPOS>ATOM
      1  N         -6.8390   25.5180    1.5740 N.3    29  PHE29      -0.1241
      2  CA        -8.0950   24.8730    1.1920 C.3    29  PHE29       0.1605
      3  C         -7.8760   23.4580    0.6840 C.2    29  PHE29       0.2264
      4  O         -6.8140   23.1440    0.0370 O.2    29  PHE29      -0.2867
      5  CB        -8.9710   25.7490    0.2510 C.3    29  PHE29       0.0534
      6  CG        -8.3520   26.0910   -1.1150 C.ar   29  PHE29      -0.0203
      7  CD1       -8.1460   25.1090   -2.0950 C.ar   29  PHE29      -0.0042
      8  CD2       -8.0470   27.4090   -1.4380 C.ar   29  PHE29      -0.0042
      9  CE1       -7.6180   25.4500   -3.3430 C.ar   29  PHE29      -0.0003
     10  CE2       -7.4950   27.7450   -2.6770 C.ar   29  PHE29      -0.0003
     11  CZ        -7.2800   26.7740   -3.6260 C.ar   29  PHE29      -0.0000
     12  N         -0.1890   24.6160   -4.9960 N.3    48  LEU48      -0.1245
     13  CA        -1.4150   24.0310   -5.5550 C.3    48  LEU48       0.1561
     14  C         -1.1250   22.6760   -6.1660 C.2    48  LEU48       0.2260
     15  O         -0.1840   22.5340   -6.9710 O.2    48  LEU48      -0.2867
     16  CB        -1.9900   24.9280   -6.6490 C.3    48  LEU48       0.0270
     17  CG        -2.4670   26.3350   -6.2600 C.3    48  LEU48       0.0019
     18  CD1       -3.1700   27.0030   -7.4820 C.3    48  LEU48       0.0001
     19  CD2       -3.4140   26.3290   -5.0280 C.3    48  LEU48       0.0001
     20  N         -4.9910   33.9930   -6.1470 N.3    69  PHE69      -0.1227
     21  CA        -5.3500   32.6130   -6.3550 C.3    69  PHE69       0.1736
     22  C         -6.6990   32.3070   -5.7210 C.2    69  PHE69       0.2596
     23  O         -7.3450   33.2030   -5.1860 O.2    69  PHE69      -0.2718
     24  CB        -4.2300   31.6610   -5.9030 C.3    69  PHE69       0.0547
     25  CG        -4.0130   31.5830   -4.4030 C.ar   69  PHE69      -0.0202
     26  CD1       -4.4980   30.4960   -3.6710 C.ar   69  PHE69      -0.0042
     27  CD2       -3.3180   32.5650   -3.7390 C.ar   69  PHE69      -0.0042
     28  CE1       -4.2890   30.4020   -2.3220 C.ar   69  PHE69      -0.0003
     29  CE2       -3.1060   32.4810   -2.3820 C.ar   69  PHE69      -0.0003
     30  CZ        -3.5900   31.3850   -1.6700 C.ar   69  PHE69      -0.0000
     31  N         -7.1300   31.0520   -5.7910 N.am   70  GLY70      -0.1942
     32  CA        -8.4950   30.6640   -5.4080 C.3    70  GLY70       0.2014
     33  C         -9.4920   31.0520   -6.4750 C.2    70  GLY70       0.2639
     34  O        -10.7150   31.1580   -6.2430 O.2    70  GLY70      -0.2714
     35  N         -8.9590   31.2180   -7.6740 N.am   71  VAL71      -0.1963
     36  CA        -9.6740   31.8260   -8.8080 C.3    71  VAL71       0.1727
     37  C        -10.9560   31.1170   -9.2930 C.2    71  VAL71       0.2616
     38  O        -11.7620   31.6850   -9.9920 O.2    71  VAL71      -0.2715
     39  CB        -8.5750   31.9540   -9.9230 C.3    71  VAL71       0.0290
     40  CG1       -8.8800   31.1420  -11.1960 C.3    71  VAL71       0.0023
     41  CG2       -8.1320   33.3610  -10.0750 C.3    71  VAL71       0.0023
     42  N        -11.1460   29.8570   -8.9430 N.am   72  LEU72      -0.1977
     43  CA       -12.4050   29.1650   -9.2090 C.3    72  LEU72       0.1596
     44  C        -13.6410   29.8890   -8.6210 C.2    72  LEU72       0.2287
     45  O        -14.7530   29.7570   -9.1320 O.2    72  LEU72      -0.2864
     46  CB       -12.3300   27.7460   -8.6390 C.3    72  LEU72       0.0297
     47  CG       -13.6140   26.9270   -8.6430 C.3    72  LEU72       0.0022
     48  CD1      -14.1730   26.7480  -10.0870 C.3    72  LEU72       0.0001
     49  CD2      -13.3950   25.5820   -7.9310 C.3    72  LEU72       0.0001
     50  N        -13.8780   23.3540   -4.6200 N.3    82  ARG82      -0.1231
     51  CA       -12.4610   23.2430   -4.8890 C.3    82  ARG82       0.1694
     52  C        -12.1430   21.8240   -5.3830 C.2    82  ARG82       0.2592
     53  O        -12.7120   20.8380   -4.8950 O.2    82  ARG82      -0.2718
     54  CB       -11.7150   23.4830   -3.5690 C.3    82  ARG82       0.0321
     55  CG       -10.9440   24.7250   -3.4250 C.3    82  ARG82       0.0489
     56  CD       -11.5240   26.0210   -2.8840 C.3    82  ARG82       0.2205
     57  NE       -11.2030   26.9500   -3.9070 N.pl3  82  ARG82      -0.0865
     58  CZ       -11.2840   28.2760   -3.9520 C.cat  82  ARG82       0.5346
     59  NH1      -11.6270   29.0510   -2.9400 N.pl3  82  ARG82       0.1354
     60  NH2      -11.0040   28.8330   -5.1460 N.pl3  82  ARG82       0.1354
     61  N        -11.2350   21.7000   -6.3430 N.am   83  PHE83      -0.1962
     62  CA       -10.7700   20.3830   -6.7330 C.3    83  PHE83       0.1771
     63  C         -9.2310   20.2970   -6.6170 C.2    83  PHE83       0.2619
     64  O         -8.6510   19.2040   -6.8050 O.2    83  PHE83      -0.2715
     65  CB       -11.3140   19.9980   -8.1430 C.3    83  PHE83       0.0574
     66  CG       -11.0540   21.0780   -9.1950 C.ar   83  PHE83      -0.0200
     67  CD1       -9.7730   21.2510   -9.7280 C.ar   83  PHE83      -0.0042
     68  CD2      -12.0660   21.9630   -9.5780 C.ar   83  PHE83      -0.0042
     69  CE1       -9.5090   22.2700  -10.6650 C.ar   83  PHE83      -0.0003
     70  CE2      -11.8230   22.9720  -10.5070 C.ar   83  PHE83      -0.0003
     71  CZ       -10.5190   23.1270  -11.0470 C.ar   83  PHE83      -0.0000
     72  N         -8.5660   21.4040   -6.3050 N.am   84  TYR84      -0.1974
     73  CA        -7.1330   21.3600   -5.9250 C.3    84  TYR84       0.1639
     74  C         -6.9340   21.6010   -4.4200 C.2    84  TYR84       0.2290
     75  O         -7.8260   22.0770   -3.7250 O.2    84  TYR84      -0.2864
     76  CB        -6.3040   22.4030   -6.6690 C.3    84  TYR84       0.0560
     77  CG        -6.1480   22.2100   -8.1640 C.ar   84  TYR84      -0.0198
     78  CD1       -6.0300   20.9330   -8.7200 C.ar   84  TYR84      -0.0009
     79  CD2       -6.1050   23.3140   -9.0210 C.ar   84  TYR84      -0.0009
     80  CE1       -5.8810   20.7580  -10.0750 C.ar   84  TYR84       0.0417
     81  CE2       -5.9710   23.1530  -10.3780 C.ar   84  TYR84       0.0417
     82  CZ        -5.8470   21.8600  -10.9120 C.ar   84  TYR84       0.1957
     83  OH        -5.7100   21.6600  -12.2650 O.3    84  TYR84      -0.2866
     84  N         -0.9200   35.4070  -13.8990 N.3   123  ARG123     -0.1245
     85  CA        -1.0450   33.9850  -13.5530 C.3   123  ARG123      0.1563
     86  C         -1.0390   33.0890  -14.8080 C.2   123  ARG123      0.2260
     87  O         -0.4090   32.0450  -14.8140 O.2   123  ARG123     -0.2867
     88  CB        -2.3410   33.7210  -12.7640 C.3   123  ARG123      0.0307
     89  CG        -2.3950   34.3740  -11.3690 C.3   123  ARG123      0.0489
     90  CD        -1.4530   33.7060  -10.3270 C.3   123  ARG123      0.2205
     91  NE        -1.3670   32.2680  -10.5130 N.pl3 123  ARG123     -0.0865
     92  CZ        -2.3490   31.4150  -10.2560 C.cat 123  ARG123      0.5346
     93  NH1       -3.5040   31.8380   -9.7170 N.pl3 123  ARG123      0.1354
     94  NH2       -2.1590   30.1230  -10.4860 N.pl3 123  ARG123      0.1354
@<TRIPOS>BOND
     1    87    86    2
     2    86    85    1
     3    84    85    1
     4    85    88    1
     5    88    89    1
     6    83    82    1
     7    89    90    1
     8    40    39    1
     9    71    69   ar
    10    71    70   ar
    11    82    81   ar
    12    82    80   ar
    13    69    67   ar
    14    91    90    1
    15    91    92    2
    16    70    68   ar
    17    94    92    1
    18    81    79   ar
    19    92    93    1
    20    48    47    1
    21    41    39    1
    22    80    78   ar
    23    38    37    2
    24    39    36    1
    25    67    66   ar
    26    68    66   ar
    27    37    42   am
    28    37    36    1
    29    43    42    1
    30    43    46    1
    31    43    44    1
    32    66    65    1
    33    45    44    2
    34    79    77   ar
    35    36    35    1
    36    78    77   ar
    37    47    46    1
    38    47    49    1
    39    77    76    1
    40    65    62    1
    41    35    33   am
    42    18    17    1
    43    15    14    2
    44    64    63    2
    45    62    63    1
    46    62    61    1
    47    76    73    1
    48    16    17    1
    49    16    13    1
    50    63    72   am
    51    33    34    2
    52    33    32    1
    53    21    20    1
    54    21    24    1
    55    21    22    1
    56    61    52   am
    57    72    73    1
    58    17    19    1
    59    14    13    1
    60    73    74    1
    61    24    25    1
    62    31    22   am
    63    31    32    1
    64    22    23    2
    65    13    12    1
    66    52    53    2
    67    52    51    1
    68    60    58    1
    69    51    50    1
    70    51    54    1
    71    74    75    2
    72    25    27   ar
    73    25    26   ar
    74    58    57    2
    75    58    59    1
    76    57    56    1
    77    27    29   ar
    78    26    28   ar
    79    11     9   ar
    80    11    10   ar
    81    54    55    1
    82    55    56    1
    83     9     7   ar
    84    10     8   ar
    85    29    30   ar
    86    28    30   ar
    87     7     6   ar
    88     8     6   ar
    89     6     5    1
    90     4     3    2
    91     5     2    1
    92     3     2    1
    93     2     1    1
