@<TRIPOS>MOLECULE
tmp/2xhmA01.pdb
 169 163 0 0 0
SMALL
GASTEIGER

@<TRIPOS>ATOM
      1  N        -27.9610   27.7260   -6.3010 N.3   249  GLN249     -0.1231
      2  CA       -27.5110   27.6070   -7.6910 C.3   249  GLN249      0.1698
      3  C        -28.1650   26.4380   -8.4160 C.2   249  GLN249      0.2592
      4  O        -28.2960   26.4620   -9.6420 O.2   249  GLN249     -0.2718
      5  CB       -25.9910   27.5180   -7.7690 C.3   249  GLN249      0.0381
      6  CG       -25.3690   26.2710   -7.1660 C.3   249  GLN249      0.0905
      7  CD       -23.8650   26.3300   -7.2060 C.2   249  GLN249      0.2608
      8  OE1      -23.2520   27.1470   -6.5240 O.2   249  GLN249     -0.2717
      9  NE2      -23.2560   25.4690   -8.0160 N.am  249  GLN249     -0.0878
     10  N        -28.5310   25.4150   -7.6410 N.am  250  GLN250     -0.1979
     11  CA       -29.2860   24.2600   -8.1280 C.3   250  GLN250      0.1601
     12  C        -30.2780   23.8420   -7.0430 C.2   250  GLN250      0.2287
     13  O        -29.9530   23.8890   -5.8490 O.2   250  GLN250     -0.2864
     14  CB       -28.3520   23.0970   -8.5070 C.3   250  GLN250      0.0394
     15  CG       -27.4910   22.5330   -7.3730 C.3   250  GLN250      0.0908
     16  CD       -26.6990   21.3010   -7.7860 C.2   250  GLN250      0.2608
     17  OE1      -26.9860   20.1870   -7.3490 O.2   250  GLN250     -0.2717
     18  NE2      -25.7000   21.4980   -8.6370 N.am  250  GLN250     -0.0878
     19  N        -13.3380   22.0580   -2.1540 N.3   321  HIS321     -0.1241
     20  CA       -14.0360   22.2090   -3.4290 C.3   321  HIS321      0.1621
     21  C        -13.3480   21.3430   -4.4800 C.2   321  HIS321      0.2264
     22  O        -12.1500   21.4970   -4.7310 O.2   321  HIS321     -0.2867
     23  CB       -14.1340   23.6630   -3.9020 C.3   321  HIS321      0.0745
     24  CG       -14.9500   23.8160   -5.1490 C.ar  321  HIS321      0.0817
     25  ND1      -16.2830   24.1670   -5.1300 N.ar  321  HIS321     -0.2268
     26  CD2      -14.6370   23.6000   -6.4500 C.ar  321  HIS321      0.1154
     27  CE1      -16.7480   24.1890   -6.3660 C.ar  321  HIS321      0.1986
     28  NE2      -15.7720   23.8430   -7.1860 N.ar  321  HIS321     -0.2212
     29  N        -25.6800   13.2060   -6.3310 N.3   344  ASP344     -0.1239
     30  CA       -25.0620   14.4410   -6.8150 C.3   344  ASP344      0.1674
     31  C        -23.5440   14.3060   -6.9060 C.2   344  ASP344      0.2266
     32  O        -22.9300   14.7910   -7.8580 O.2   344  ASP344     -0.2867
     33  CB       -25.4350   15.6370   -5.9300 C.3   344  ASP344      0.1410
     34  CG       -25.0410   16.9690   -6.5560 C.2   344  ASP344      0.3668
     35  OD1      -25.5020   17.2650   -7.6800 O.co2 344  ASP344     -0.2456
     36  OD2      -24.2690   17.7210   -5.9260 O.co2 344  ASP344     -0.2456
     37  N        -22.4090   12.4870   -9.9790 N.3   347  PHE347     -0.1227
     38  CA       -22.3250   13.3980  -11.1240 C.3   347  PHE347      0.1736
     39  C        -21.0590   14.2390  -11.0470 C.2   347  PHE347      0.2596
     40  O        -20.3920   14.4500  -12.0600 O.2   347  PHE347     -0.2718
     41  CB       -23.5510   14.3140  -11.2350 C.3   347  PHE347      0.0547
     42  CG       -24.8640   13.5840  -11.3170 C.ar  347  PHE347     -0.0202
     43  CD1      -24.9490   12.3090  -11.8770 C.ar  347  PHE347     -0.0042
     44  CD2      -26.0290   14.1920  -10.8580 C.ar  347  PHE347     -0.0042
     45  CE1      -26.1670   11.6450  -11.9470 C.ar  347  PHE347     -0.0003
     46  CE2      -27.2510   13.5380  -10.9320 C.ar  347  PHE347     -0.0003
     47  CZ       -27.3210   12.2630  -11.4720 C.ar  347  PHE347     -0.0000
     48  N        -20.7310   14.7090   -9.8460 N.am  348  THR348     -0.1953
     49  CA       -19.5210   15.5000   -9.6210 C.3   348  THR348      0.1897
     50  C        -18.2480   14.7250   -9.9980 C.2   348  THR348      0.2313
     51  O        -17.3550   15.2740  -10.6470 O.2   348  THR348     -0.2863
     52  CB       -19.4390   16.0070   -8.1640 C.3   348  THR348      0.1794
     53  OG1      -20.6100   16.7770   -7.8680 O.3   348  THR348     -0.2208
     54  CG2      -18.2040   16.8820   -7.9500 C.3   348  THR348      0.0378
     55  N        -18.0280   14.8450  -13.5840 N.3   351  HIS351     -0.1226
     56  CA       -17.6390   16.1910  -13.9960 C.3   351  HIS351      0.1752
     57  C        -16.1190   16.3520  -13.9350 C.2   351  HIS351      0.2595
     58  O        -15.4990   16.8060  -14.8970 O.2   351  HIS351     -0.2718
     59  CB       -18.3170   17.2770  -13.1420 C.3   351  HIS351      0.0759
     60  CG       -17.8700   18.6640  -13.4840 C.ar  351  HIS351      0.0818
     61  ND1      -18.4350   19.3930  -14.5070 N.ar  351  HIS351     -0.2268
     62  CD2      -16.8860   19.4390  -12.9690 C.ar  351  HIS351      0.1154
     63  CE1      -17.8320   20.5650  -14.5970 C.ar  351  HIS351      0.1986
     64  NE2      -16.8840   20.6170  -13.6790 N.ar  351  HIS351     -0.2212
     65  N        -15.5310   15.9830  -12.7990 N.am  352  GLU352     -0.1979
     66  CA       -14.0870   16.1080  -12.6010 C.3   352  GLU352      0.1602
     67  C        -13.3050   15.2120  -13.5540 C.2   352  GLU352      0.2287
     68  O        -12.2570   15.6150  -14.0620 O.2   352  GLU352     -0.2864
     69  CB       -13.6830   15.8070  -11.1510 C.3   352  GLU352      0.0415
     70  CG       -14.4210   16.6060  -10.0790 C.3   352  GLU352      0.1163
     71  CD       -14.4370   18.1070  -10.3320 C.2   352  GLU352      0.3649
     72  OE1      -13.4800   18.6450  -10.9350 O.co2 352  GLU352     -0.2457
     73  OE2      -15.4200   18.7510   -9.9130 O.co2 352  GLU352     -0.2457
     74  N        -20.0960   16.7370  -17.8510 N.3   383  ASP383     -0.1239
     75  CA       -21.5410   16.9290  -17.7150 C.3   383  ASP383      0.1674
     76  C        -22.3520   16.1970  -18.7800 C.2   383  ASP383      0.2266
     77  O        -23.4810   15.7760  -18.5160 O.2   383  ASP383     -0.2867
     78  CB       -21.8850   18.4190  -17.7240 C.3   383  ASP383      0.1410
     79  CG       -21.6270   19.0900  -16.3860 C.2   383  ASP383      0.3668
     80  OD1      -20.8750   18.5240  -15.5590 O.co2 383  ASP383     -0.2456
     81  OD2      -22.1780   20.1930  -16.1610 O.co2 383  ASP383     -0.2456
     82  N        -22.5310   12.8780  -17.3230 N.3   386  SER386     -0.1217
     83  CA       -23.4370   12.9700  -16.1700 C.3   386  SER386      0.1889
     84  C        -24.9090   13.0050  -16.5730 C.2   386  SER386      0.2288
     85  O        -25.7540   12.4390  -15.8740 O.2   386  SER386     -0.2866
     86  CB       -23.1030   14.1850  -15.3060 C.3   386  SER386      0.2089
     87  OG       -21.9860   13.9220  -14.4690 O.3   386  SER386     -0.2183
     88  N        -31.6770   21.4090  -11.7270 N.3   421  ASP421     -0.1225
     89  CA       -30.2250   21.5400  -11.7990 C.3   421  ASP421      0.1805
     90  C        -29.7500   22.3290  -13.0260 C.2   421  ASP421      0.2597
     91  O        -28.7970   23.0990  -12.9270 O.2   421  ASP421     -0.2718
     92  CB       -29.5490   20.1630  -11.7810 C.3   421  ASP421      0.1424
     93  CG       -29.5020   19.5410  -10.3900 C.2   421  ASP421      0.3668
     94  OD1      -29.1740   18.3410  -10.2950 O.co2 421  ASP421     -0.2456
     95  OD2      -29.7880   20.2330   -9.3870 O.co2 421  ASP421     -0.2456
     96  N        -30.3990   22.1410  -14.1720 N.am  422  LYS422     -0.1979
     97  CA       -29.8780   22.6860  -15.4350 C.3   422  LYS422      0.1596
     98  C        -30.4250   24.0590  -15.8470 C.2   422  LYS422      0.2287
     99  O        -29.6630   24.9140  -16.3040 O.2   422  LYS422     -0.2864
    100  CB       -30.0470   21.6770  -16.5830 C.3   422  LYS422      0.0298
    101  CG       -29.2990   20.3530  -16.3880 C.3   422  LYS422      0.0038
    102  CD       -27.7900   20.5410  -16.3300 C.3   422  LYS422      0.0206
    103  CE       -27.0700   19.2190  -16.1080 C.3   422  LYS422      0.1093
    104  NZ       -25.5980   19.4260  -15.9760 N.3   422  LYS422     -0.1314
    105  N        -29.8200   26.8730  -12.8560 N.3   425  PHE425     -0.1241
    106  CA       -28.4210   27.2910  -12.7980 C.3   425  PHE425      0.1605
    107  C        -28.0890   28.4560  -13.7350 C.2   425  PHE425      0.2264
    108  O        -27.2010   29.2520  -13.4400 O.2   425  PHE425     -0.2867
    109  CB       -27.5310   26.0870  -13.1150 C.3   425  PHE425      0.0534
    110  CG       -26.0540   26.3500  -12.9790 C.ar  425  PHE425     -0.0203
    111  CD1      -25.4340   26.3120  -11.7320 C.ar  425  PHE425     -0.0042
    112  CD2      -25.2770   26.6100  -14.1060 C.ar  425  PHE425     -0.0042
    113  CE1      -24.0630   26.5400  -11.6120 C.ar  425  PHE425     -0.0003
    114  CE2      -23.9150   26.8310  -13.9980 C.ar  425  PHE425     -0.0003
    115  CZ       -23.3030   26.8010  -12.7530 C.ar  425  PHE425     -0.0000
    116  N        -19.3250   32.4860   -2.1060 N.3   479  LYS479     -0.1245
    117  CA       -19.2560   31.4970   -3.1840 C.3   479  LYS479      0.1561
    118  C        -17.7850   31.2050   -3.4820 C.2   479  LYS479      0.2260
    119  O        -16.9940   32.1320   -3.6930 O.2   479  LYS479     -0.2867
    120  CB       -19.9710   32.0100   -4.4440 C.3   479  LYS479      0.0271
    121  CG       -19.8790   31.0810   -5.6660 C.3   479  LYS479      0.0035
    122  CD       -20.6300   29.7730   -5.4470 C.3   479  LYS479      0.0206
    123  CE       -20.2660   28.7440   -6.5100 C.3   479  LYS479      0.1093
    124  NZ       -20.5590   27.3460   -6.0680 N.3   479  LYS479     -0.1314
    125  N        -15.8580   30.1600   -5.9860 N.3   481  HIS481     -0.1241
    126  CA       -15.2340   30.7430   -7.1760 C.3   481  HIS481      0.1621
    127  C        -14.9410   32.2320   -7.0420 C.2   481  HIS481      0.2264
    128  O        -14.0120   32.7430   -7.6760 O.2   481  HIS481     -0.2867
    129  CB       -16.1010   30.4880   -8.4110 C.3   481  HIS481      0.0745
    130  CG       -16.2380   29.0400   -8.7590 C.ar  481  HIS481      0.0817
    131  ND1      -16.9320   28.1490   -7.9710 N.ar  481  HIS481     -0.2268
    132  CD2      -15.7740   28.3280   -9.8130 C.ar  481  HIS481      0.1154
    133  CE1      -16.8900   26.9500   -8.5240 C.ar  481  HIS481      0.1986
    134  NE2      -16.1940   27.0320   -9.6440 N.ar  481  HIS481     -0.2212
    135  N        -16.4890   32.5280  -13.9140 N.3   488  TYR488     -0.1241
    136  CA       -17.6920   31.6980  -13.8140 C.3   488  TYR488      0.1605
    137  C        -18.4760   31.5500  -15.1160 C.2   488  TYR488      0.2264
    138  O        -19.2690   30.6210  -15.2580 O.2   488  TYR488     -0.2867
    139  CB       -18.6200   32.1930  -12.6990 C.3   488  TYR488      0.0534
    140  CG       -19.3480   31.0630  -12.0060 C.ar  488  TYR488     -0.0201
    141  CD1      -18.7160   30.3190  -11.0070 C.ar  488  TYR488     -0.0009
    142  CD2      -20.6510   30.7210  -12.3620 C.ar  488  TYR488     -0.0009
    143  CE1      -19.3630   29.2660  -10.3760 C.ar  488  TYR488      0.0417
    144  CE2      -21.3170   29.6600  -11.7300 C.ar  488  TYR488      0.0417
    145  CZ       -20.6640   28.9480  -10.7370 C.ar  488  TYR488      0.1957
    146  OH       -21.2970   27.9060  -10.1130 O.3   488  TYR488     -0.2866
    147  N        -19.2090   28.2200  -16.8400 N.3   491  TYR491     -0.1241
    148  CA       -20.3060   27.3280  -16.4670 C.3   491  TYR491      0.1605
    149  C        -21.6080   27.6300  -17.2130 C.2   491  TYR491      0.2264
    150  O        -22.3410   26.7070  -17.5740 O.2   491  TYR491     -0.2867
    151  CB       -20.5170   27.3180  -14.9490 C.3   491  TYR491      0.0534
    152  CG       -19.2840   26.8880  -14.1940 C.ar  491  TYR491     -0.0201
    153  CD1      -18.8690   25.5500  -14.1910 C.ar  491  TYR491     -0.0009
    154  CD2      -18.5200   27.8170  -13.5010 C.ar  491  TYR491     -0.0009
    155  CE1      -17.7190   25.1530  -13.4980 C.ar  491  TYR491      0.0417
    156  CE2      -17.3690   27.4310  -12.8080 C.ar  491  TYR491      0.0417
    157  CZ       -16.9760   26.1050  -12.8130 C.ar  491  TYR491      0.1957
    158  OH       -15.8430   25.7400  -12.1250 O.3   491  TYR491     -0.2866
    159  N        -23.3350   24.8670  -19.6460 N.3   495  PHE495     -0.1241
    160  CA       -24.7230   24.4130  -19.5290 C.3   495  PHE495      0.1605
    161  C        -25.5340   24.5860  -20.8090 C.2   495  PHE495      0.2264
    162  O        -26.4970   23.8660  -21.0240 O.2   495  PHE495     -0.2867
    163  CB       -25.4190   25.0720  -18.3390 C.3   495  PHE495      0.0534
    164  CG       -25.1600   24.3810  -17.0250 C.ar  495  PHE495     -0.0203
    165  CD1      -26.2230   24.0100  -16.2010 C.ar  495  PHE495     -0.0042
    166  CD2      -23.8610   24.0920  -16.6130 C.ar  495  PHE495     -0.0042
    167  CE1      -25.9950   23.3730  -14.9800 C.ar  495  PHE495     -0.0003
    168  CE2      -23.6200   23.4540  -15.3920 C.ar  495  PHE495     -0.0003
    169  CZ       -24.6910   23.0950  -14.5760 C.ar  495  PHE495     -0.0000
@<TRIPOS>BOND
     1   162   161    2
     2   161   160    1
     3   159   160    1
     4   160   163    1
     5    76    77    2
     6    76    75    1
     7   163   164    1
     8    74    75    1
     9    78    75    1
    10    78    79    1
    11   150   149    2
    12    82    83    1
    13   149   148    1
    14   164   166   ar
    15   164   165   ar
    16   147   148    1
    17   166   168   ar
    18   100   101    1
    19   100    97    1
    20    84    83    1
    21    84    85    2
    22   148   151    1
    23   101   102    1
    24    79    81   ar
    25    79    80   ar
    26   102   103    1
    27    99    98    2
    28   165   167   ar
    29    83    86    1
    30   103   104    1
    31    98    97    1
    32    97    96    1
    33   168   169   ar
    34    86    87    1
    35   138   137    2
    36   137   136    1
    37   167   169   ar
    38   151   152    1
    39    58    57    2
    40    63    61   ar
    41    63    64   ar
    42    61    60   ar
    43   152   153   ar
    44   152   154   ar
    45   153   155   ar
    46    96    90   am
    47   112   114   ar
    48   112   110   ar
    49    68    67    2
    50   114   115   ar
    51    56    57    1
    52    56    55    1
    53    56    59    1
    54    57    65   am
    55   135   136    1
    56   136   139    1
    57   107   108    2
    58   107   106    1
    59    64    62   ar
    60    67    66    1
    61   154   156   ar
    62   155   157   ar
    63    60    59    1
    64    60    62   ar
    65   109   110    1
    66   109   106    1
    67    90    91    2
    68    90    89    1
    69   110   111   ar
    70   105   106    1
    71   157   156   ar
    72   157   158    1
    73    65    66    1
    74   115   113   ar
    75   139   140    1
    76    66    69    1
    77   142   140   ar
    78   142   144   ar
    79    40    39    2
    80   140   141   ar
    81    45    43   ar
    82    45    47   ar
    83    43    42   ar
    84    89    92    1
    85    89    88    1
    86    92    93    1
    87   111   113   ar
    88   144   145   ar
    89    47    46   ar
    90    42    41    1
    91    42    44   ar
    92    41    38    1
    93    69    70    1
    94    38    39    1
    95    38    37    1
    96    39    48   am
    97   141   143   ar
    98    72    71   ar
    99    46    44   ar
   100   145   143   ar
   101   145   146    1
   102    51    50    2
   103    93    94   ar
   104    93    95   ar
   105    71    70    1
   106    71    73   ar
   107    50    49    1
   108    48    49    1
   109   132   134   ar
   110   132   130   ar
   111   134   133   ar
   112     4     3    2
   113    49    52    1
   114   130   129    1
   115   130   131   ar
   116    18    16   am
   117   133   131   ar
   118    14    11    1
   119    14    15    1
   120     3     2    1
   121     3    10   am
   122   129   126    1
   123    52    54    1
   124    52    53    1
   125    11    10    1
   126    11    12    1
   127     9     7   am
   128    32    31    2
   129    16    15    1
   130    16    17    2
   131     5     2    1
   132     5     6    1
   133     2     1    1
   134    35    34   ar
   135   128   127    2
   136     7     6    1
   137     7     8    2
   138    28    26   ar
   139    28    27   ar
   140   126   127    1
   141   126   125    1
   142    12    13    2
   143    31    30    1
   144    30    29    1
   145    30    33    1
   146    34    33    1
   147    34    36   ar
   148   123   124    1
   149   123   122    1
   150    26    24   ar
   151    27    25   ar
   152   121   122    1
   153   121   120    1
   154    24    25   ar
   155    24    23    1
   156    22    21    2
   157    21    20    1
   158   120   117    1
   159    23    20    1
   160   119   118    2
   161   118   117    1
   162    20    19    1
   163   117   116    1
