@<TRIPOS>MOLECULE
tmp/2xhmA00.pdb
 227 224 0 0 0
SMALL
GASTEIGER

@<TRIPOS>ATOM
      1  N          2.5400   24.0100  -10.2700 N.3    28  THR28      -0.1218
      2  CA         1.3770   23.1680   -9.9900 C.3    28  THR28       0.1862
      3  C          1.6090   22.2410   -8.7890 C.2    28  THR28       0.2287
      4  O          0.7110   22.0500   -7.9670 O.2    28  THR28      -0.2866
      5  CB         0.9540   22.3610  -11.2280 C.3    28  THR28       0.1770
      6  OG1        0.7880   23.2550  -12.3340 O.3    28  THR28      -0.2211
      7  CG2       -0.3660   21.6310  -10.9790 C.3    28  THR28       0.0375
      8  N          1.2320   24.2870   -5.7290 N.3    31  ALA31      -0.1245
      9  CA        -0.1840   24.6400   -5.5780 C.3    31  ALA31       0.1562
     10  C         -0.9800   23.4430   -5.0660 C.2    31  ALA31       0.2260
     11  O         -1.9400   23.6030   -4.3110 O.2    31  ALA31      -0.2867
     12  CB        -0.7640   25.1460   -6.9000 C.3    31  ALA31       0.0290
     13  N         -8.7780   32.5250   -0.3900 N.3   108  GLU108     -0.1245
     14  CA        -9.0060   31.0850   -0.5460 C.3   108  GLU108      0.1567
     15  C         -8.8700   30.3440    0.7850 C.2   108  GLU108      0.2260
     16  O         -9.6660   29.4520    1.0800 O.2   108  GLU108     -0.2867
     17  CB        -8.0880   30.4670   -1.6110 C.3   108  GLU108      0.0388
     18  CG        -8.4340   29.0090   -1.9500 C.3   108  GLU108      0.1160
     19  CD        -7.9680   28.5670   -3.3370 C.2   108  GLU108      0.3649
     20  OE1       -7.1230   29.2590   -3.9480 O.co2 108  GLU108     -0.2457
     21  OE2       -8.4540   27.5190   -3.8190 O.co2 108  GLU108     -0.2457
     22  N        -13.3380   22.0580   -2.1540 N.3   321  HIS321     -0.1226
     23  CA       -14.0360   22.2090   -3.4290 C.3   321  HIS321      0.1752
     24  C        -13.3480   21.3430   -4.4800 C.2   321  HIS321      0.2596
     25  O        -12.1500   21.4970   -4.7310 O.2   321  HIS321     -0.2718
     26  CB       -14.1340   23.6630   -3.9020 C.3   321  HIS321      0.0759
     27  CG       -14.9500   23.8160   -5.1490 C.ar  321  HIS321      0.0818
     28  ND1      -16.2830   24.1670   -5.1300 N.ar  321  HIS321     -0.2268
     29  CD2      -14.6370   23.6000   -6.4500 C.ar  321  HIS321      0.1154
     30  CE1      -16.7480   24.1890   -6.3660 C.ar  321  HIS321      0.1986
     31  NE2      -15.7720   23.8430   -7.1860 N.ar  321  HIS321     -0.2212
     32  N        -14.1190   20.4350   -5.0740 N.am  322  ALA322     -0.1966
     33  CA       -13.6090   19.4490   -6.0310 C.3   322  ALA322      0.1728
     34  C        -12.8370   20.0930   -7.1830 C.2   322  ALA322      0.2617
     35  O        -13.2800   21.0870   -7.7650 O.2   322  ALA322     -0.2715
     36  CB       -14.7470   18.5940   -6.5620 C.3   322  ALA322      0.0334
     37  N        -11.6710   19.5330   -7.4950 N.am  323  SER323     -0.1936
     38  CA       -10.8280   20.0700   -8.5590 C.3   323  SER323      0.2055
     39  C        -10.0550   18.9820   -9.2910 C.2   323  SER323      0.2643
     40  O         -9.7890   17.9120   -8.7320 O.2   323  SER323     -0.2714
     41  CB        -9.8630   21.1200   -8.0050 C.3   323  SER323      0.2130
     42  OG        -9.0500   20.5720   -6.9830 O.3   323  SER323     -0.2179
     43  N         -9.7150   19.2720  -10.5470 N.am  324  ALA324     -0.1963
     44  CA        -8.9410   18.3800  -11.4050 C.3   324  ALA324      0.1728
     45  C         -7.6550   19.0870  -11.8510 C.2   324  ALA324      0.2616
     46  O         -7.6660   20.2880  -12.1460 O.2   324  ALA324     -0.2715
     47  CB        -9.7710   17.9590  -12.6030 C.3   324  ALA324      0.0334
     48  N         -6.5560   18.3380  -11.8970 N.am  325  TRP325     -0.1960
     49  CA        -5.2200   18.9140  -12.0160 C.3   325  TRP325      0.1771
     50  C         -4.4100   18.2790  -13.1430 C.2   325  TRP325      0.2619
     51  O         -4.3070   17.0490  -13.2410 O.2   325  TRP325     -0.2715
     52  CB        -4.4560   18.7630  -10.7000 C.3   325  TRP325      0.0590
     53  CG        -5.0670   19.4800   -9.5290 C.ar  325  TRP325      0.0006
     54  CD1       -6.2860   19.2340   -8.9570 C.ar  325  TRP325      0.0946
     55  CD2       -4.4750   20.5370   -8.7680 C.ar  325  TRP325      0.0152
     56  NE1       -6.4910   20.0800   -7.8990 N.ar  325  TRP325     -0.2442
     57  CE2       -5.3970   20.8900   -7.7570 C.ar  325  TRP325      0.0810
     58  CE3       -3.2540   21.2220   -8.8400 C.ar  325  TRP325      0.0012
     59  CZ2       -5.1430   21.9030   -6.8320 C.ar  325  TRP325      0.0191
     60  CZ3       -3.0000   22.2300   -7.9210 C.ar  325  TRP325      0.0001
     61  CH2       -3.9400   22.5590   -6.9250 C.ar  325  TRP325      0.0015
     62  N         -3.8530   19.1350  -13.9950 N.am  326  ASP326     -0.1971
     63  CA        -2.9720   18.7070  -15.0730 C.3   326  ASP326      0.1709
     64  C         -1.5570   19.1410  -14.7140 C.2   326  ASP326      0.2293
     65  O         -1.2910   20.3310  -14.5420 O.2   326  ASP326     -0.2864
     66  CB        -3.4120   19.3330  -16.4010 C.3   326  ASP326      0.1436
     67  CG        -2.6750   18.7550  -17.6020 C.2   326  ASP326      0.3671
     68  OD1       -3.0550   19.0890  -18.7460 O.co2 326  ASP326     -0.2456
     69  OD2       -1.7190   17.9700  -17.4110 O.co2 326  ASP326     -0.2456
     70  N          1.1420   18.6270  -16.5620 N.3   328  TYR328     -0.1241
     71  CA         1.8340   19.0270  -17.7910 C.3   328  TYR328      0.1605
     72  C          3.0480   18.1730  -18.1790 C.2   328  TYR328      0.2264
     73  O          3.9220   18.6260  -18.9220 O.2   328  TYR328     -0.2867
     74  CB         2.1940   20.5210  -17.7560 C.3   328  TYR328      0.0534
     75  CG         1.0000   21.4350  -17.8970 C.ar  328  TYR328     -0.0201
     76  CD1        0.5920   22.2470  -16.8410 C.ar  328  TYR328     -0.0009
     77  CD2        0.2770   21.4900  -19.0910 C.ar  328  TYR328     -0.0009
     78  CE1       -0.5060   23.0930  -16.9670 C.ar  328  TYR328      0.0417
     79  CE2       -0.8290   22.3310  -19.2270 C.ar  328  TYR328      0.0417
     80  CZ        -1.2090   23.1280  -18.1610 C.ar  328  TYR328      0.1957
     81  OH        -2.2920   23.9630  -18.2920 O.3   328  TYR328     -0.2866
     82  N        -18.0280   14.8450  -13.5840 N.3   351  HIS351     -0.1226
     83  CA       -17.6390   16.1910  -13.9960 C.3   351  HIS351      0.1752
     84  C        -16.1190   16.3520  -13.9350 C.2   351  HIS351      0.2595
     85  O        -15.4990   16.8060  -14.8970 O.2   351  HIS351     -0.2718
     86  CB       -18.3170   17.2770  -13.1420 C.3   351  HIS351      0.0759
     87  CG       -17.8700   18.6640  -13.4840 C.ar  351  HIS351      0.0818
     88  ND1      -18.4350   19.3930  -14.5070 N.ar  351  HIS351     -0.2268
     89  CD2      -16.8860   19.4390  -12.9690 C.ar  351  HIS351      0.1154
     90  CE1      -17.8320   20.5650  -14.5970 C.ar  351  HIS351      0.1986
     91  NE2      -16.8840   20.6170  -13.6790 N.ar  351  HIS351     -0.2212
     92  N        -15.5310   15.9830  -12.7990 N.am  352  GLU352     -0.1979
     93  CA       -14.0870   16.1080  -12.6010 C.3   352  GLU352      0.1602
     94  C        -13.3050   15.2120  -13.5540 C.2   352  GLU352      0.2287
     95  O        -12.2570   15.6150  -14.0620 O.2   352  GLU352     -0.2864
     96  CB       -13.6830   15.8070  -11.1510 C.3   352  GLU352      0.0415
     97  CG       -14.4210   16.6060  -10.0790 C.3   352  GLU352      0.1163
     98  CD       -14.4370   18.1070  -10.3320 C.2   352  GLU352      0.3649
     99  OE1      -13.4800   18.6450  -10.9350 O.co2 352  GLU352     -0.2457
    100  OE2      -15.4200   18.7510   -9.9130 O.co2 352  GLU352     -0.2457
    101  N        -12.7240   16.7050  -16.9420 N.3   355  HIS355     -0.1241
    102  CA       -11.5340   17.5520  -17.0130 C.3   355  HIS355      0.1621
    103  C        -10.3040   16.6890  -17.2630 C.2   355  HIS355      0.2264
    104  O         -9.5080   16.9770  -18.1580 O.2   355  HIS355     -0.2867
    105  CB       -11.3320   18.3380  -15.7210 C.3   355  HIS355      0.0745
    106  CG       -12.3340   19.4280  -15.5000 C.ar  355  HIS355      0.0817
    107  ND1      -12.6540   20.3570  -16.4660 N.ar  355  HIS355     -0.2268
    108  CD2      -13.0560   19.7610  -14.4040 C.ar  355  HIS355      0.1154
    109  CE1      -13.5460   21.2020  -15.9820 C.ar  355  HIS355      0.1986
    110  NE2      -13.8000   20.8670  -14.7300 N.ar  355  HIS355     -0.2212
    111  N         -7.4620   16.5860  -20.3610 N.3   359  PHE359     -0.1241
    112  CA        -6.0010   16.6450  -20.1600 C.3   359  PHE359      0.1605
    113  C         -5.2930   15.5510  -20.9610 C.2   359  PHE359      0.2264
    114  O         -4.3060   15.8170  -21.6580 O.2   359  PHE359     -0.2867
    115  CB        -5.5880   16.4690  -18.6920 C.3   359  PHE359      0.0534
    116  CG        -6.1990   17.4570  -17.7230 C.ar  359  PHE359     -0.0203
    117  CD1       -6.5460   18.7510  -18.1080 C.ar  359  PHE359     -0.0042
    118  CD2       -6.3680   17.0900  -16.3890 C.ar  359  PHE359     -0.0042
    119  CE1       -7.0860   19.6460  -17.1860 C.ar  359  PHE359     -0.0003
    120  CE2       -6.9120   17.9710  -15.4660 C.ar  359  PHE359     -0.0003
    121  CZ        -7.2680   19.2560  -15.8650 C.ar  359  PHE359     -0.0000
    122  N         -5.3730   15.9570  -24.9430 N.3   362  TYR362     -0.1241
    123  CA        -4.5310   16.9810  -25.5690 C.3   362  TYR362      0.1605
    124  C         -3.0890   17.0840  -25.0570 C.2   362  TYR362      0.2264
    125  O         -2.3850   18.0290  -25.4110 O.2   362  TYR362     -0.2867
    126  CB        -5.2260   18.3610  -25.5810 C.3   362  TYR362      0.0534
    127  CG        -5.5450   19.0060  -24.2360 C.ar  362  TYR362     -0.0201
    128  CD1       -4.6170   19.0340  -23.1920 C.ar  362  TYR362     -0.0009
    129  CD2       -6.7660   19.6510  -24.0390 C.ar  362  TYR362     -0.0009
    130  CE1       -4.9190   19.6550  -21.9760 C.ar  362  TYR362      0.0417
    131  CE2       -7.0720   20.2740  -22.8350 C.ar  362  TYR362      0.0417
    132  CZ        -6.1530   20.2740  -21.8110 C.ar  362  TYR362      0.1957
    133  OH        -6.4700   20.9000  -20.6230 O.3   362  TYR362     -0.2866
    134  N         -5.1460   23.1020  -23.2500 N.3   371  THR371     -0.1203
    135  CA        -6.2170   23.7730  -22.5180 C.3   371  THR371      0.1994
    136  C         -7.4850   23.6200  -23.3500 C.2   371  THR371      0.2618
    137  O         -7.4190   23.1380  -24.4790 O.2   371  THR371     -0.2717
    138  CB        -5.8790   25.2650  -22.2420 C.3   371  THR371      0.1784
    139  OG1       -6.8590   25.8300  -21.3650 O.3   371  THR371     -0.2211
    140  CG2       -5.8170   26.0740  -23.5300 C.3   371  THR371      0.0376
    141  N         -8.6340   24.0060  -22.8020 N.am  372  GLY372     -0.1956
    142  CA        -9.9080   23.8730  -23.5160 C.3   372  GLY372      0.1869
    143  C        -10.0080   24.7520  -24.7500 C.2   372  GLY372      0.2309
    144  O         -9.3450   25.7870  -24.8360 O.2   372  GLY372     -0.2863
    145  N        -13.1090   28.0940  -22.2250 N.3   375  PRO375     -0.2116
    146  CA       -13.3130   27.5510  -20.8750 C.3   375  PRO375      0.1372
    147  C        -14.6080   26.7480  -20.7120 C.2   375  PRO375      0.2244
    148  O        -14.6460   25.8140  -19.9070 O.2   375  PRO375     -0.2868
    149  CB       -13.3140   28.8030  -19.9950 C.3   375  PRO375      0.0268
    150  CG       -12.4310   29.7540  -20.7390 C.3   375  PRO375      0.0207
    151  CD       -12.7840   29.5330  -22.1830 C.3   375  PRO375      0.0892
    152  N        -14.2960   22.8190  -21.4820 N.3   378  HIS378     -0.1226
    153  CA       -13.6840   22.0180  -20.4280 C.3   378  HIS378      0.1752
    154  C        -14.7090   21.6070  -19.3700 C.2   378  HIS378      0.2595
    155  O        -14.6790   20.4820  -18.8720 O.2   378  HIS378     -0.2718
    156  CB       -12.5240   22.7750  -19.7820 C.3   378  HIS378      0.0759
    157  CG       -11.2620   21.9770  -19.6810 C.ar  378  HIS378      0.0818
    158  ND1      -11.1250   20.9030  -18.8280 N.ar  378  HIS378     -0.2268
    159  CD2      -10.0780   22.0980  -20.3280 C.ar  378  HIS378      0.1154
    160  CE1       -9.9100   20.3990  -18.9500 C.ar  378  HIS378      0.1986
    161  NE2       -9.2530   21.1070  -19.8520 N.ar  378  HIS378     -0.2212
    162  N        -15.6180   22.5240  -19.0460 N.am  379  GLU379     -0.1979
    163  CA       -16.6700   22.2610  -18.0580 C.3   379  GLU379      0.1602
    164  C        -17.7770   21.3470  -18.5850 C.2   379  GLU379      0.2287
    165  O        -18.4570   20.6790  -17.7980 O.2   379  GLU379     -0.2864
    166  CB       -17.2720   23.5810  -17.5510 C.3   379  GLU379      0.0415
    167  CG       -16.2570   24.5410  -16.9440 C.3   379  GLU379      0.1163
    168  CD       -15.4550   23.9170  -15.8220 C.2   379  GLU379      0.3649
    169  OE1      -15.9890   23.0280  -15.1220 O.co2 379  GLU379     -0.2457
    170  OE2      -14.2920   24.3230  -15.6280 O.co2 379  GLU379     -0.2457
    171  N        -17.4270   29.9200   -3.5100 N.3   480  TYR480     -0.1227
    172  CA       -16.0250   29.5070   -3.6470 C.3   480  TYR480      0.1736
    173  C        -15.2940   30.2270   -4.7830 C.2   480  TYR480      0.2595
    174  O        -14.2520   30.8340   -4.5620 O.2   480  TYR480     -0.2718
    175  CB       -15.8940   27.9870   -3.8180 C.3   480  TYR480      0.0548
    176  CG       -14.4820   27.5620   -4.1640 C.ar  480  TYR480     -0.0200
    177  CD1      -13.4840   27.5350   -3.1860 C.ar  480  TYR480     -0.0009
    178  CD2      -14.1320   27.2210   -5.4750 C.ar  480  TYR480     -0.0009
    179  CE1      -12.1820   27.1670   -3.4980 C.ar  480  TYR480      0.0417
    180  CE2      -12.8240   26.8490   -5.7980 C.ar  480  TYR480      0.0417
    181  CZ       -11.8590   26.8230   -4.7990 C.ar  480  TYR480      0.1957
    182  OH       -10.5650   26.4620   -5.0970 O.3   480  TYR480     -0.2866
    183  N        -15.8580   30.1600   -5.9860 N.am  481  HIS481     -0.1975
    184  CA       -15.2340   30.7430   -7.1760 C.3   481  HIS481      0.1656
    185  C        -14.9410   32.2320   -7.0420 C.2   481  HIS481      0.2291
    186  O        -14.0120   32.7430   -7.6760 O.2   481  HIS481     -0.2864
    187  CB       -16.1010   30.4880   -8.4110 C.3   481  HIS481      0.0771
    188  CG       -16.2380   29.0400   -8.7590 C.ar  481  HIS481      0.0820
    189  ND1      -16.9320   28.1490   -7.9710 N.ar  481  HIS481     -0.2267
    190  CD2      -15.7740   28.3280   -9.8130 C.ar  481  HIS481      0.1154
    191  CE1      -16.8900   26.9500   -8.5240 C.ar  481  HIS481      0.1986
    192  NE2      -16.1940   27.0320   -9.6440 N.ar  481  HIS481     -0.2212
    193  N        -11.9270   32.3890   -4.6520 N.3   484  ALA484     -0.1245
    194  CA       -10.7800   31.7430   -5.2930 C.3   484  ALA484      0.1562
    195  C        -10.3830   32.3460   -6.6460 C.2   484  ALA484      0.2260
    196  O         -9.4640   31.8410   -7.2960 O.2   484  ALA484     -0.2867
    197  CB       -11.0300   30.2490   -5.4370 C.3   484  ALA484      0.0290
    198  N        -11.9580   32.4560   -9.6860 N.3   486  VAL486     -0.1245
    199  CA       -12.1880   31.5620  -10.8140 C.3   486  VAL486      0.1561
    200  C        -13.3370   32.1360  -11.6260 C.2   486  VAL486      0.2260
    201  O        -14.4310   32.3300  -11.1030 O.2   486  VAL486     -0.2867
    202  CB       -12.5170   30.1170  -10.3600 C.3   486  VAL486      0.0252
    203  CG1      -12.7740   29.2090  -11.5620 C.3   486  VAL486      0.0019
    204  CG2      -11.3850   29.5540   -9.5220 C.3   486  VAL486      0.0019
    205  N        -17.6800   30.3890  -17.7980 N.3   490  ARG490     -0.1231
    206  CA       -17.4100   29.0330  -18.2790 C.3   490  ARG490      0.1694
    207  C        -18.5670   28.0710  -18.0000 C.2   490  ARG490      0.2592
    208  O        -18.8760   27.2170  -18.8270 O.2   490  ARG490     -0.2718
    209  CB       -16.1140   28.4930  -17.6620 C.3   490  ARG490      0.0321
    210  CG       -16.1400   28.3800  -16.1300 C.3   490  ARG490      0.0489
    211  CD       -14.7810   27.9980  -15.5730 C.3   490  ARG490      0.2205
    212  NE       -13.7680   29.0230  -15.8380 N.pl3 490  ARG490     -0.0865
    213  CZ       -12.4800   28.9020  -15.5300 C.cat 490  ARG490      0.5346
    214  NH1      -12.0310   27.7970  -14.9410 N.pl3 490  ARG490      0.1354
    215  NH2      -11.6350   29.8830  -15.8180 N.pl3 490  ARG490      0.1354
    216  N        -19.2090   28.2200  -16.8400 N.am  491  TYR491     -0.1976
    217  CA       -20.3060   27.3280  -16.4670 C.3   491  TYR491      0.1639
    218  C        -21.6080   27.6300  -17.2130 C.2   491  TYR491      0.2290
    219  O        -22.3410   26.7070  -17.5740 O.2   491  TYR491     -0.2864
    220  CB       -20.5170   27.3180  -14.9490 C.3   491  TYR491      0.0560
    221  CG       -19.2840   26.8880  -14.1940 C.ar  491  TYR491     -0.0198
    222  CD1      -18.8690   25.5500  -14.1910 C.ar  491  TYR491     -0.0009
    223  CD2      -18.5200   27.8170  -13.5010 C.ar  491  TYR491     -0.0009
    224  CE1      -17.7190   25.1530  -13.4980 C.ar  491  TYR491      0.0417
    225  CE2      -17.3690   27.4310  -12.8080 C.ar  491  TYR491      0.0417
    226  CZ       -16.9760   26.1050  -12.8130 C.ar  491  TYR491      0.1957
    227  OH       -15.8430   25.7400  -12.1250 O.3   491  TYR491     -0.2866
@<TRIPOS>BOND
     1   126   123    1
     2   126   127    1
     3   123   124    1
     4   123   122    1
     5   125   124    2
     6   144   143    2
     7   143   142    1
     8   137   136    2
     9   127   129   ar
    10   127   128   ar
    11   129   131   ar
    12   140   138    1
    13   142   141    1
    14   136   141   am
    15   136   135    1
    16   134   135    1
    17   128   130   ar
    18   131   132   ar
    19   135   138    1
    20   138   139    1
    21   145   151    1
    22   145   146    1
    23   151   150    1
    24   130   132   ar
    25   132   133    1
    26   114   113    2
    27   152   153    1
    28   113   112    1
    29   146   147    1
    30   146   149    1
    31   150   149    1
    32   147   148    2
    33   153   156    1
    34   153   154    1
    35   111   112    1
    36   159   161   ar
    37   159   157   ar
    38   112   115    1
    39   161   160   ar
    40   156   157    1
    41   157   158   ar
    42   154   162   am
    43   154   155    2
    44    79    77   ar
    45    79    80   ar
    46    77    75   ar
    47   162   163    1
    48   160   158   ar
    49    73    72    2
    50   208   207    2
    51    68    67   ar
    52   115   116    1
    53   164   163    1
    54   164   165    2
    55    81    80    1
    56   206   207    1
    57   206   205    1
    58   206   209    1
    59    72    71    1
    60    80    78   ar
    61   104   103    2
    62   117   116   ar
    63   117   119   ar
    64   163   166    1
    65   207   216   am
    66    75    74    1
    67    75    76   ar
    68    71    74    1
    69    71    70    1
    70   116   118   ar
    71   209   210    1
    72    67    69   ar
    73    67    66    1
    74   219   218    2
    75   166   167    1
    76   103   102    1
    77   218   217    1
    78   119   121   ar
    79   102   101    1
    80   102   105    1
    81    78    76   ar
    82   167   168    1
    83   216   217    1
    84   217   220    1
    85   107   109   ar
    86   107   106   ar
    87    66    63    1
    88   118   120   ar
    89   210   211    1
    90   109   110   ar
    91   121   120   ar
    92   212   211    1
    93   212   213    2
    94   168   170   ar
    95   168   169   ar
    96   215   213    1
    97   105   106    1
    98   213   214    1
    99   106   108   ar
   100    63    64    1
   101    63    62    1
   102   220   221    1
   103    85    84    2
   104   110   108   ar
   105    64    65    2
   106    90    88   ar
   107    90    91   ar
   108    88    87   ar
   109   221   222   ar
   110   221   223   ar
   111   222   224   ar
   112    95    94    2
   113    83    84    1
   114    83    82    1
   115    83    86    1
   116    62    50   am
   117    84    92   am
   118    91    89   ar
   119    94    93    1
   120   223   225   ar
   121   224   226   ar
   122    87    86    1
   123    87    89   ar
   124    51    50    2
   125    50    49    1
   126   226   225   ar
   127   226   227    1
   128    92    93    1
   129    47    44    1
   130    93    96    1
   131     6     5    1
   132    46    45    2
   133    49    48    1
   134    49    52    1
   135    48    45   am
   136    45    44    1
   137   200   201    2
   138   200   199    1
   139   203   202    1
   140    44    43    1
   141     5     7    1
   142     5     2    1
   143    96    97    1
   144    99    98   ar
   145   199   202    1
   146   199   198    1
   147    52    53    1
   148    43    39   am
   149   202   204    1
   150    98    97    1
   151    98   100   ar
   152     1     2    1
   153     2     3    1
   154   190   192   ar
   155   190   188   ar
   156   192   191   ar
   157    53    54   ar
   158    53    55   ar
   159    39    40    2
   160    39    38    1
   161    54    56   ar
   162    58    55   ar
   163    58    60   ar
   164     3     4    2
   165    55    57   ar
   166   188   187    1
   167   188   189   ar
   168    38    41    1
   169    38    37    1
   170   191   189   ar
   171   187   184    1
   172    41    42    1
   173    60    61   ar
   174    56    57   ar
   175    35    34    2
   176    57    59   ar
   177   186   185    2
   178    37    34   am
   179   196   195    2
   180    31    29   ar
   181    31    30   ar
   182    34    33    1
   183   184   185    1
   184   184   183    1
   185    61    59   ar
   186    12     9    1
   187   195   194    1
   188    36    33    1
   189    29    27   ar
   190    30    28   ar
   191    33    32    1
   192   183   173   am
   193   180   178   ar
   194   180   181   ar
   195     8     9    1
   196     9    10    1
   197   178   176   ar
   198   197   194    1
   199   194   193    1
   200    27    28   ar
   201    27    26    1
   202   182   181    1
   203    32    24   am
   204    10    11    2
   205   181   179   ar
   206   173   174    2
   207   173   172    1
   208    25    24    2
   209    24    23    1
   210   176   175    1
   211   176   177   ar
   212    20    19   ar
   213    26    23    1
   214    21    19   ar
   215   175   172    1
   216   172   171    1
   217   179   177   ar
   218    23    22    1
   219    19    18    1
   220    18    17    1
   221    17    14    1
   222    14    13    1
   223    14    15    1
   224    15    16    2
