@<TRIPOS>MOLECULE
tmp/2xhrA00.pdb
 132 122 0 0 0
SMALL
GASTEIGER

@<TRIPOS>ATOM
      1  N         -1.7900   11.4140   16.2720 N.3    32  LEU32      -0.1245
      2  CA        -2.4100   11.9360   17.4860 C.3    32  LEU32       0.1561
      3  C         -3.6590   11.1090   17.8020 C.2    32  LEU32       0.2260
      4  O         -3.9050   10.7380   18.9400 O.2    32  LEU32      -0.2867
      5  CB        -2.7740   13.3890   17.2480 C.3    32  LEU32       0.0270
      6  CG        -1.4920   14.2240   17.1170 C.3    32  LEU32       0.0019
      7  CD1       -1.7180   15.6270   16.7580 C.3    32  LEU32       0.0001
      8  CD2       -0.4490   14.0420   18.2290 C.3    32  LEU32       0.0001
      9  N         -2.6600    7.7970   19.3900 N.3    35  ASN35      -0.1225
     10  CA        -2.2620    8.0220   20.7780 C.3    35  ASN35       0.1785
     11  C         -3.5150    8.1490   21.6620 C.2    35  ASN35       0.2597
     12  O         -3.5460    7.6660   22.8020 O.2    35  ASN35      -0.2718
     13  CB        -1.4390    9.3540   20.9090 C.3    35  ASN35       0.1169
     14  CG         0.0770    9.1940   20.5900 C.2    35  ASN35       0.2627
     15  OD1        0.4990    8.1980   19.9770 O.2    35  ASN35      -0.2716
     16  ND2        0.8690   10.2640   20.8840 N.am   35  ASN35      -0.0877
     17  N         -4.4830    8.9330   21.1900 N.am   36  SER36      -0.1952
     18  CA        -5.7320    9.1300   21.9240 C.3    36  SER36       0.1924
     19  C         -6.4240    7.7660   22.0890 C.2    36  SER36       0.2314
     20  O         -6.7760    7.3750   23.1790 O.2    36  SER36      -0.2863
     21  CB        -6.6780   10.0800   21.1610 C.3    36  SER36       0.2116
     22  OG        -6.2580   11.4290   21.2580 O.3    36  SER36      -0.2180
     23  N         -4.8360    5.6130   24.8240 N.3    39  ALA39      -0.1245
     24  CA        -5.1010    6.1570   26.1700 C.3    39  ALA39       0.1562
     25  C         -6.5260    5.9090   26.6220 C.2    39  ALA39       0.2260
     26  O         -6.8540    6.0230   27.8090 O.2    39  ALA39      -0.2867
     27  CB        -4.8330    7.6540   26.1470 C.3    39  ALA39       0.0290
     28  N         -9.2700   13.9210   23.8790 N.3    77  ASP77      -0.1239
     29  CA        -9.7890   12.5850   24.2370 C.3    77  ASP77       0.1674
     30  C        -10.1500   12.5440   25.7420 C.2    77  ASP77       0.2266
     31  O         -9.6340   13.3600   26.5670 O.2    77  ASP77      -0.2867
     32  CB        -8.7970   11.4600   23.8720 C.3    77  ASP77       0.1410
     33  CG        -7.4790   11.5340   24.6630 C.2    77  ASP77       0.3668
     34  OD1       -7.4580   11.1970   25.8680 O.co2  77  ASP77      -0.2456
     35  OD2       -6.4450   11.8700   24.0440 O.co2  77  ASP77      -0.2456
     36  N         -7.0520    8.0320   29.5730 N.3    80  ILE80      -0.1231
     37  CA        -6.4950    7.9560   30.9160 C.3    80  ILE80       0.1692
     38  C         -5.8150    9.2390   31.4360 C.2    80  ILE80       0.2593
     39  O         -5.7870    9.4700   32.6370 O.2    80  ILE80      -0.2718
     40  CB        -5.5760    6.7050   31.0560 C.3    80  ILE80       0.0266
     41  CG1       -5.1310    6.5160   32.5060 C.3    80  ILE80       0.0019
     42  CG2       -4.3670    6.7930   30.1200 C.3    80  ILE80       0.0020
     43  CD1       -4.8980    5.0820   32.9080 C.3    80  ILE80       0.0001
     44  N         -5.2120   10.0390   30.5590 N.am   81  GLY81      -0.1942
     45  CA        -4.4810   11.2340   30.9780 C.3    81  GLY81       0.2014
     46  C         -3.0670   10.9660   31.4920 C.2    81  GLY81       0.2638
     47  O         -2.5980    9.8380   31.4660 O.2    81  GLY81      -0.2714
     48  N         -2.3600   12.0070   31.9250 N.am   82  MET82      -0.1976
     49  CA        -0.9910   11.8370   32.4640 C.3    82  MET82       0.1605
     50  C         -0.8280   12.5670   33.7970 C.2    82  MET82       0.2287
     51  O         -1.4330   13.6100   34.0050 O.2    82  MET82      -0.2864
     52  CB         0.0640   12.3380   31.4710 C.3    82  MET82       0.0413
     53  CG         0.2690   11.4870   30.1960 C.3    82  MET82       0.0598
     54  SD         1.2720   12.3490   28.9010 S.3    82  MET82      -0.1393
     55  CE        -0.0500   13.3790   28.1680 C.3    82  MET82       0.0692
     56  N          7.8500   10.8340   30.1760 N.3    90  ASN90      -0.1225
     57  CA         7.4400   10.3950   28.8430 C.3    90  ASN90       0.1785
     58  C          7.9520   11.4000   27.7870 C.2    90  ASN90       0.2597
     59  O          8.9690   11.2000   27.1340 O.2    90  ASN90      -0.2718
     60  CB         5.9040   10.4220   28.7310 C.3    90  ASN90       0.1169
     61  CG         5.2410    9.1770   29.2400 C.2    90  ASN90       0.2627
     62  OD1        5.6300    8.6080   30.2740 O.2    90  ASN90      -0.2716
     63  ND2        4.1510    8.7970   28.5650 N.am   90  ASN90      -0.0877
     64  N          7.2020   12.4900   27.6300 N.am   91  LEU91      -0.1980
     65  CA         7.5140   13.5210   26.6380 C.3    91  LEU91       0.1596
     66  C          8.9990   13.9530   26.5100 C.2    91  LEU91       0.2287
     67  O          9.4580   14.2350   25.3990 O.2    91  LEU91      -0.2864
     68  CB         6.6280   14.7740   26.8310 C.3    91  LEU91       0.0297
     69  CG         5.1450   14.9880   26.4440 C.3    91  LEU91       0.0022
     70  CD1        4.8450   14.7570   25.0210 C.3    91  LEU91       0.0001
     71  CD2        4.1580   14.3000   27.3300 C.3    91  LEU91       0.0001
     72  N         12.0530    9.7070   28.5180 N.3    94  ILE94      -0.1231
     73  CA        11.8520    8.3000   28.1330 C.3    94  ILE94       0.1692
     74  C         11.6500    7.9250   26.6510 C.2    94  ILE94       0.2591
     75  O         11.7870    6.7410   26.2990 O.2    94  ILE94      -0.2718
     76  CB        10.9050    7.5260   29.0650 C.3    94  ILE94       0.0266
     77  CG1        9.6210    7.1450   28.3250 C.3    94  ILE94       0.0019
     78  CG2       10.6410    8.2890   30.3820 C.3    94  ILE94       0.0020
     79  CD1        8.6340    6.3980   29.2020 C.3    94  ILE94       0.0001
     80  N         11.3860    8.9070   25.7770 N.am   95  ALA95      -0.1980
     81  CA        11.2490    8.6290   24.3400 C.3    95  ALA95       0.1597
     82  C         12.6410    8.4050   23.7110 C.2    95  ALA95       0.2287
     83  O         12.7890    8.2260   22.5050 O.2    95  ALA95      -0.2864
     84  CB        10.5150    9.7570   23.6500 C.3    95  ALA95       0.0319
     85  N          6.8890    4.4380   18.7040 N.3   119  GLY119     -0.1225
     86  CA         6.2670    5.1070   19.8390 C.3   119  GLY119      0.1811
     87  C          6.6000    6.5600   20.0850 C.2   119  GLY119      0.2280
     88  O          6.4070    7.0840   21.1860 O.2   119  GLY119     -0.2866
     89  N          3.9140   11.1440   18.5840 N.3   122  PHE122     -0.1227
     90  CA         3.5270   12.4690   19.1120 C.3   122  PHE122      0.1736
     91  C          4.3220   13.5720   18.4080 C.2   122  PHE122      0.2595
     92  O          3.7700   14.5870   17.9680 O.2   122  PHE122     -0.2718
     93  CB         3.8020   12.5190   20.6280 C.3   122  PHE122      0.0547
     94  CG         3.6530   13.8920   21.2280 C.ar  122  PHE122     -0.0202
     95  CD1        2.3910   14.4880   21.3450 C.ar  122  PHE122     -0.0042
     96  CD2        4.7850   14.6540   21.5560 C.ar  122  PHE122     -0.0042
     97  CE1        2.2700   15.7860   21.7940 C.ar  122  PHE122     -0.0003
     98  CE2        4.6600   15.9410   22.0380 C.ar  122  PHE122     -0.0003
     99  CZ         3.4070   16.5060   22.1400 C.ar  122  PHE122     -0.0000
    100  N          5.6260   13.3700   18.2830 N.am  123  TYR123     -0.1976
    101  CA         6.4930   14.3790   17.6970 C.3   123  TYR123      0.1639
    102  C          6.2200   14.7270   16.2500 C.2   123  TYR123      0.2290
    103  O          6.7020   15.7450   15.7880 O.2   123  TYR123     -0.2864
    104  CB         7.9580   14.0500   17.9390 C.3   123  TYR123      0.0560
    105  CG         8.2530   13.8460   19.3980 C.ar  123  TYR123     -0.0198
    106  CD1        8.4740   14.9390   20.2480 C.ar  123  TYR123     -0.0009
    107  CD2        8.2090   12.5680   19.9550 C.ar  123  TYR123     -0.0009
    108  CE1        8.7130   14.7510   21.6200 C.ar  123  TYR123      0.0417
    109  CE2        8.3970   12.3770   21.3090 C.ar  123  TYR123      0.0417
    110  CZ         8.6990   13.4630   22.1250 C.ar  123  TYR123      0.1957
    111  OH         8.9120   13.2360   23.4570 O.3   123  TYR123     -0.2866
    112  N          0.0470   20.7000   25.5690 N.3   134  VAL134     -0.1245
    113  CA        -0.6360   19.4770   25.9580 C.3   134  VAL134      0.1561
    114  C         -1.3390   19.7140   27.3060 C.2   134  VAL134      0.2260
    115  O         -0.6730   19.9700   28.3310 O.2   134  VAL134     -0.2867
    116  CB         0.3730   18.2710   26.0480 C.3   134  VAL134      0.0252
    117  CG1       -0.3210   16.9850   26.5350 C.3   134  VAL134      0.0019
    118  CG2        1.0950   18.0410   24.7200 C.3   134  VAL134      0.0019
    119  N         -6.7390   14.1930   27.8080 N.3   168  THR168     -0.1218
    120  CA        -5.6230   14.9580   27.2640 C.3   168  THR168      0.1862
    121  C         -6.1690   15.7250   26.0770 C.2   168  THR168      0.2287
    122  O         -6.9840   15.1860   25.3630 O.2   168  THR168     -0.2866
    123  CB        -4.5540   13.9720   26.7890 C.3   168  THR168      0.1770
    124  OG1       -4.1850   13.1440   27.8870 O.3   168  THR168     -0.2211
    125  CG2       -3.3160   14.6930   26.1640 C.3   168  THR168      0.0375
    126  N         -4.3470   17.9340   22.9230 N.3   170  VAL170     -0.1245
    127  CA        -3.1130   18.3820   22.2720 C.3   170  VAL170      0.1561
    128  C         -3.5280   19.5520   21.3420 C.2   170  VAL170      0.2260
    129  O         -4.3060   19.3730   20.4380 O.2   170  VAL170     -0.2867
    130  CB        -2.4380   17.2060   21.4890 C.3   170  VAL170      0.0252
    131  CG1       -1.1050   17.6460   20.8340 C.3   170  VAL170      0.0019
    132  CG2       -2.2460   15.9800   22.4280 C.3   170  VAL170      0.0019
@<TRIPOS>BOND
     1   103   102    2
     2   102   101    1
     3     1     2    1
     4     7     6    1
     5     6     5    1
     6     6     8    1
     7     5     2    1
     8     2     3    1
     9   101   104    1
    10   101   100    1
    11     3     4    2
    12   104   105    1
    13    92    91    2
    14   100    91   am
    15    91    90    1
    16    89    90    1
    17    85    86    1
    18    90    93    1
    19     9    10    1
    20   105   107   ar
    21   105   106   ar
    22    86    87    1
    23   107   109   ar
    24    15    14    2
    25    87    88    2
    26   106   108   ar
    27   129   128    2
    28    14    16   am
    29    14    13    1
    30    93    94    1
    31    10    13    1
    32    10    11    1
    33   131   130    1
    34    21    22    1
    35    21    18    1
    36    17    11   am
    37    17    18    1
    38    94    95   ar
    39    94    96   ar
    40   109   110   ar
    41   128   127    1
    42    95    97   ar
    43   130   127    1
    44   130   132    1
    45    96    98   ar
    46   108   110   ar
    47    11    12    2
    48    97    99   ar
    49    18    19    1
    50    98    99   ar
    51    19    20    2
    52   110   111    1
    53   127   126    1
    54    83    82    2
    55    84    81    1
    56    82    81    1
    57    32    29    1
    58    32    33    1
    59    28    29    1
    60    35    33   ar
    61    29    30    1
    62    81    80    1
    63    33    34   ar
    64   118   116    1
    65    23    24    1
    66    70    69    1
    67   122   121    2
    68    67    66    2
    69   112   113    1
    70    30    31    2
    71    80    74   am
    72   113   116    1
    73   113   114    1
    74   116   117    1
    75   121   120    1
    76    27    24    1
    77   125   123    1
    78    24    25    1
    79    75    74    2
    80    69    68    1
    81    69    71    1
    82    66    65    1
    83    25    26    2
    84    65    68    1
    85    65    64    1
    86    74    73    1
    87   123   120    1
    88   123   124    1
    89    59    58    2
    90   120   119    1
    91   114   115    2
    92    64    58   am
    93    58    57    1
    94    73    72    1
    95    73    76    1
    96    55    54    1
    97    77    76    1
    98    77    79    1
    99    63    61   am
   100    60    57    1
   101    60    61    1
   102    57    56    1
   103    54    53    1
   104    76    78    1
   105    61    62    2
   106    36    37    1
   107    42    40    1
   108    53    52    1
   109    44    45    1
   110    44    38   am
   111    37    40    1
   112    37    38    1
   113    45    46    1
   114    40    41    1
   115    38    39    2
   116    47    46    2
   117    52    49    1
   118    46    48   am
   119    48    49    1
   120    49    50    1
   121    41    43    1
   122    50    51    2
