@<TRIPOS>MOLECULE
tmp/2xhsA00.pdb
 116 107 0 0 0
SMALL
GASTEIGER

@<TRIPOS>ATOM
      1  N         59.3630   14.1340   53.5280 N.3    57  PHE57      -0.1241
      2  CA        60.6510   13.7430   53.0570 C.3    57  PHE57       0.1605
      3  C         60.5140   13.1340   51.7180 C.2    57  PHE57       0.2264
      4  O         61.2920   13.3690   50.8370 O.2    57  PHE57      -0.2867
      5  CB        61.2100   12.6990   53.9710 C.3    57  PHE57       0.0534
      6  CG        61.8720   13.2430   55.1620 C.ar   57  PHE57      -0.0203
      7  CD1       63.1280   13.7250   55.0960 C.ar   57  PHE57      -0.0042
      8  CD2       61.2450   13.2400   56.3630 C.ar   57  PHE57      -0.0042
      9  CE1       63.7280   14.1970   56.1900 C.ar   57  PHE57      -0.0003
     10  CE2       61.8640   13.7110   57.4500 C.ar   57  PHE57      -0.0003
     11  CZ        63.0990   14.1930   57.3590 C.ar   57  PHE57      -0.0000
     12  N         59.8410   15.7200   49.0840 N.3    60  VAL60      -0.1245
     13  CA        61.0410   16.3760   48.6750 C.3    60  VAL60       0.1561
     14  C         61.8270   15.4950   47.7680 C.2    60  VAL60       0.2260
     15  O         62.4060   15.9370   46.8310 O.2    60  VAL60      -0.2867
     16  CB        61.8750   16.6670   49.8660 C.3    60  VAL60       0.0252
     17  CG1       63.1060   17.3190   49.4540 C.3    60  VAL60       0.0019
     18  CG2       61.1420   17.5460   50.7560 C.3    60  VAL60       0.0019
     19  N         62.7960   16.4760   43.8640 N.3    64  ARG64      -0.1245
     20  CA        64.1800   16.5730   43.5950 C.3    64  ARG64       0.1563
     21  C         64.5550   15.9080   42.3210 C.2    64  ARG64       0.2260
     22  O         65.3560   16.4050   41.5890 O.2    64  ARG64      -0.2867
     23  CB        64.9180   15.9140   44.7160 C.3    64  ARG64       0.0307
     24  CG        66.3600   16.0580   44.5800 C.3    64  ARG64       0.0489
     25  CD        67.0080   15.8460   45.8680 C.3    64  ARG64       0.2205
     26  NE        68.4140   15.5850   45.6820 N.pl3  64  ARG64      -0.0865
     27  CZ        68.9430   14.3780   45.7490 C.cat  64  ARG64       0.5346
     28  NH1       68.1700   13.3370   46.0060 N.pl3  64  ARG64       0.1354
     29  NH2       70.2380   14.2140   45.5650 N.pl3  64  ARG64       0.1354
     30  N         62.8730   20.4260   38.3660 N.3    69  PHE69      -0.1241
     31  CA        63.6510   20.8660   39.4830 C.3    69  PHE69       0.1605
     32  C         65.0920   20.7810   39.1580 C.2    69  PHE69       0.2264
     33  O         65.8750   21.5560   39.6150 O.2    69  PHE69      -0.2867
     34  CB        63.3800   20.0040   40.6780 C.3    69  PHE69       0.0534
     35  CG        62.5040   20.6330   41.6740 C.ar   69  PHE69      -0.0203
     36  CD1       61.3440   21.2110   41.3060 C.ar   69  PHE69      -0.0042
     37  CD2       62.8380   20.6300   42.9840 C.ar   69  PHE69      -0.0042
     38  CE1       60.5660   21.7740   42.2190 C.ar   69  PHE69      -0.0003
     39  CE2       62.0480   21.1920   43.8780 C.ar   69  PHE69      -0.0003
     40  CZ        60.9140   21.7570   43.4980 C.ar   69  PHE69      -0.0000
     41  N         68.7210   25.4990   44.4000 N.3    74  VAL74      -0.1231
     42  CA        68.1240   25.0730   45.6060 C.3    74  VAL74       0.1692
     43  C         67.3010   26.1390   46.1980 C.2    74  VAL74       0.2592
     44  O         66.2540   25.8840   46.7020 O.2    74  VAL74      -0.2718
     45  CB        69.1600   24.7220   46.5920 C.3    74  VAL74       0.0266
     46  CG1       68.5100   24.4550   47.8900 C.3    74  VAL74       0.0020
     47  CG2       69.8780   23.5140   46.1270 C.3    74  VAL74       0.0020
     48  N         67.7470   27.3610   46.1410 N.am   75  ASP75      -0.1974
     49  CA        67.0000   28.3680   46.8280 C.3    75  ASP75       0.1709
     50  C         65.6400   28.4120   46.2450 C.2    75  ASP75       0.2293
     51  O         64.6790   28.5800   46.9380 O.2    75  ASP75      -0.2864
     52  CB        67.6630   29.7170   46.6770 C.3    75  ASP75       0.1436
     53  CG        68.7700   29.9180   47.6430 C.2    75  ASP75       0.3671
     54  OD1       69.3740   28.9410   48.0770 O.co2  75  ASP75      -0.2456
     55  OD2       69.0400   31.0680   47.9730 O.co2  75  ASP75      -0.2456
     56  N         64.1090   25.9470   44.5620 N.3    77  GLN77      -0.1245
     57  CA        63.3980   24.7410   44.8370 C.3    77  GLN77       0.1566
     58  C         62.8330   24.7960   46.2080 C.2    77  GLN77       0.2260
     59  O         61.7480   24.3810   46.4350 O.2    77  GLN77      -0.2867
     60  CB        64.3340   23.5680   44.7730 C.3    77  GLN77       0.0367
     61  CG        65.2390   23.5990   43.6310 C.3    77  GLN77       0.0905
     62  CD        66.0550   22.3850   43.5780 C.2    77  GLN77       0.2608
     63  OE1       66.4570   21.8720   44.5820 O.2    77  GLN77      -0.2717
     64  NE2       66.3340   21.9290   42.4070 N.am   77  GLN77      -0.0878
     65  N         61.8650   27.3020   47.9160 N.3    78  LYS78      -0.1245
     66  CA        60.7130   28.1490   47.9890 C.3    78  LYS78       0.1561
     67  C         59.4720   27.5260   47.4410 C.2    78  LYS78       0.2260
     68  O         58.4060   27.7480   47.9370 O.2    78  LYS78      -0.2867
     69  CB        60.9940   29.4320   47.2560 C.3    78  LYS78       0.0271
     70  CG        62.0260   30.2710   47.9250 C.3    78  LYS78       0.0035
     71  CD        62.0800   31.6140   47.2990 C.3    78  LYS78       0.0206
     72  CE        63.3830   32.2910   47.5940 C.3    78  LYS78       0.1093
     73  NZ        64.2260   32.2670   46.3810 N.3    78  LYS78      -0.1314
     74  N         58.7530   24.2830   47.2110 N.3    80  LEU80      -0.1231
     75  CA        58.3530   23.2500   48.1170 C.3    80  LEU80       0.1693
     76  C         57.7360   23.8030   49.3590 C.2    80  LEU80       0.2591
     77  O         56.8050   23.2670   49.8680 O.2    80  LEU80      -0.2718
     78  CB        59.5510   22.4260   48.4890 C.3    80  LEU80       0.0284
     79  CG        60.0520   21.3860   47.5220 C.3    80  LEU80       0.0019
     80  CD1       61.4270   21.0650   47.9130 C.3    80  LEU80       0.0001
     81  CD2       59.2380   20.1800   47.6550 C.3    80  LEU80       0.0001
     82  N         58.2800   24.8830   49.8630 N.am   81  GLN81      -0.1979
     83  CA        57.7650   25.5040   51.0520 C.3    81  GLN81       0.1601
     84  C         56.3870   26.0020   50.8570 C.2    81  GLN81       0.2287
     85  O         55.6190   26.0280   51.7640 O.2    81  GLN81      -0.2864
     86  CB        58.6290   26.6650   51.4480 C.3    81  GLN81       0.0394
     87  CG        59.6770   26.3310   52.4370 C.3    81  GLN81       0.0908
     88  CD        60.7250   27.3630   52.5280 C.2    81  GLN81       0.2608
     89  OE1       61.7980   27.1030   53.0110 O.2    81  GLN81      -0.2717
     90  NE2       60.4280   28.5410   52.0750 N.am   81  GLN81      -0.0878
     91  N         61.7170   19.6700   66.2240 N.3   223  GLN223     -0.1245
     92  CA        62.9090   19.4890   65.4400 C.3   223  GLN223      0.1566
     93  C         62.7030   18.9290   64.0840 C.2   223  GLN223      0.2260
     94  O         63.6350   18.7840   63.3440 O.2   223  GLN223     -0.2867
     95  CB        63.8190   18.5530   66.1750 C.3   223  GLN223      0.0367
     96  CG        63.5150   18.5080   67.6160 C.3   223  GLN223      0.0905
     97  CD        62.7740   17.2890   68.0090 C.2   223  GLN223      0.2608
     98  OE1       63.1350   16.2120   67.6290 O.2   223  GLN223     -0.2717
     99  NE2       61.7520   17.4480   68.7880 N.am  223  GLN223     -0.0878
    100  N         61.1100   18.2130   60.1920 N.3   225  LEU225     -0.1245
    101  CA        60.9870   18.8670   58.9250 C.3   225  LEU225      0.1561
    102  C         59.6120   19.4560   58.8060 C.2   225  LEU225      0.2260
    103  O         59.4010   20.4770   58.2150 O.2   225  LEU225     -0.2867
    104  CB        61.2230   17.8610   57.8390 C.3   225  LEU225      0.0270
    105  CG        61.0650   18.3390   56.4250 C.3   225  LEU225      0.0019
    106  CD1       62.0390   19.4360   56.1820 C.3   225  LEU225      0.0001
    107  CD2       61.3150   17.2130   55.5280 C.3   225  LEU225      0.0001
    108  N         59.6690   22.6670   60.3680 N.3   227  GLU227     -0.1245
    109  CA        60.4380   23.6000   59.6090 C.3   227  GLU227      0.1567
    110  C         59.6310   24.1090   58.4760 C.2   227  GLU227      0.2260
    111  O         59.6560   25.2650   58.1690 O.2   227  GLU227     -0.2867
    112  CB        61.6460   22.8980   59.0670 C.3   227  GLU227      0.0388
    113  CG        62.3530   23.6230   57.9980 C.3   227  GLU227      0.1160
    114  CD        63.6490   22.9780   57.6670 C.2   227  GLU227      0.3649
    115  OE1       64.3350   22.5660   58.5850 O.co2 227  GLU227     -0.2457
    116  OE2       63.9870   22.8910   56.4960 O.co2 227  GLU227     -0.2457
@<TRIPOS>BOND
     1    30    31    1
     2    32    31    1
     3    32    33    2
     4    31    34    1
     5    34    35    1
     6    36    35   ar
     7    36    38   ar
     8    22    21    2
     9    35    37   ar
    10    38    40   ar
    11    21    20    1
    12    64    62   am
    13    37    39   ar
    14    40    39   ar
    15    62    61    1
    16    62    63    2
    17    20    19    1
    18    20    23    1
    19    61    60    1
    20    41    42    1
    21    56    57    1
    22    24    23    1
    23    24    25    1
    24    60    57    1
    25    57    58    1
    26    29    27    1
    27    42    43    1
    28    42    45    1
    29    26    27    2
    30    26    25    1
    31    27    28    1
    32    47    45    1
    33    48    43   am
    34    48    49    1
    35    43    44    2
    36    58    59    2
    37    50    49    1
    38    50    51    2
    39    73    72    1
    40    45    46    1
    41    52    49    1
    42    52    53    1
    43    15    14    2
    44    74    75    1
    45    69    70    1
    46    69    66    1
    47    71    72    1
    48    71    70    1
    49    67    68    2
    50    67    66    1
    51    79    81    1
    52    79    80    1
    53    79    78    1
    54    53    55   ar
    55    53    54   ar
    56    14    13    1
    57    65    66    1
    58    75    78    1
    59    75    76    1
    60    13    12    1
    61    13    16    1
    62    76    82   am
    63    76    77    2
    64    17    16    1
    65    82    83    1
    66    16    18    1
    67     4     3    2
    68    84    83    1
    69    84    85    2
    70    83    86    1
    71    86    87    1
    72     3     2    1
    73    90    88   am
    74    87    88    1
    75    88    89    2
    76     2     1    1
    77     2     5    1
    78     5     6    1
    79     7     6   ar
    80     7     9   ar
    81     6     8   ar
    82   107   105    1
    83   106   105    1
    84     9    11   ar
    85     8    10   ar
    86   105   104    1
    87   116   114   ar
    88    11    10   ar
    89   114   113    1
    90   114   115   ar
    91   104   101    1
    92   113   112    1
    93   111   110    2
    94   103   102    2
    95   110   109    1
    96   102   101    1
    97   101   100    1
    98   112   109    1
    99   109   108    1
   100    94    93    2
   101    93    92    1
   102    92    95    1
   103    92    91    1
   104    95    96    1
   105    96    97    1
   106    98    97    2
   107    97    99   am
