@<TRIPOS>MOLECULE
tmp/2xhtA00.pdb
 128 117 0 0 0
SMALL
GASTEIGER

@<TRIPOS>ATOM
      1  N          0.0590   -3.1120   14.5650 N.3    37  LEU37      -0.1245
      2  CA         1.3970   -3.5440   14.9700 C.3    37  LEU37       0.1561
      3  C          1.5600   -5.0950   14.9860 C.2    37  LEU37       0.2260
      4  O          2.5260   -5.6290   14.4780 O.2    37  LEU37      -0.2867
      5  CB         1.7600   -2.9220   16.3310 C.3    37  LEU37       0.0270
      6  CG         1.7380   -1.3930   16.3360 C.3    37  LEU37       0.0019
      7  CD1        2.1750   -0.8870   17.6940 C.3    37  LEU37       0.0001
      8  CD2        2.5820   -0.7380   15.2000 C.3    37  LEU37       0.0001
      9  N          1.7060   -6.3000   11.2660 N.3    40  ASN40      -0.1225
     10  CA         2.9890   -6.0640   10.6350 C.3    40  ASN40       0.1785
     11  C          4.0170   -7.0370   11.1990 C.2    40  ASN40       0.2597
     12  O          4.8510   -7.5590   10.4750 O.2    40  ASN40      -0.2718
     13  CB         3.4020   -4.6000   10.8120 C.3    40  ASN40       0.1169
     14  CG         2.7040   -3.6950    9.8150 C.2    40  ASN40       0.2627
     15  OD1        2.7360   -3.9700    8.6260 O.2    40  ASN40      -0.2716
     16  ND2        1.9390   -2.7210   10.3040 N.am   40  ASN40      -0.0877
     17  N          3.9090   -7.3190   12.4950 N.am   41  SER41      -0.1952
     18  CA         4.7560   -8.3050   13.1400 C.3    41  SER41       0.1924
     19  C          4.5000   -9.6790   12.4950 C.2    41  SER41       0.2314
     20  O          5.4280  -10.4490   12.2510 O.2    41  SER41      -0.2863
     21  CB         4.4020   -8.3820   14.6120 C.3    41  SER41       0.2116
     22  OG         4.9930   -7.3280   15.3290 O.3    41  SER41      -0.2180
     23  N          3.4580  -10.3000    9.4490 N.3    43  ASP43      -0.1225
     24  CA         3.9870  -10.3310    8.0520 C.3    43  ASP43       0.1805
     25  C          5.4720  -10.5490    8.0130 C.2    43  ASP43       0.2597
     26  O          5.9880  -11.1940    7.0990 O.2    43  ASP43      -0.2718
     27  CB         3.7240   -9.0140    7.3410 C.3    43  ASP43       0.1424
     28  CG         2.2630   -8.7710    7.1120 C.2    43  ASP43       0.3668
     29  OD1        1.5140   -9.7470    7.1560 O.co2  43  ASP43      -0.2456
     30  OD2        1.8690   -7.6110    6.8830 O.co2  43  ASP43      -0.2456
     31  N          6.1670   -9.9070    8.9540 N.am   44  ALA44      -0.1979
     32  CA         7.5980  -10.0550    9.0830 C.3    44  ALA44       0.1597
     33  C          7.9250  -11.4980    9.4080 C.2    44  ALA44       0.2287
     34  O          8.9810  -12.0040    9.0550 O.2    44  ALA44      -0.2864
     35  CB         8.1070   -9.1590   10.1650 C.3    44  ALA44       0.0319
     36  N          7.4080  -13.6350    6.1670 N.3    47  LYS47      -0.1245
     37  CA         8.5960  -13.4730    5.3000 C.3    47  LYS47       0.1561
     38  C          9.7720  -14.3340    5.7220 C.2    47  LYS47       0.2260
     39  O         10.5370  -14.7890    4.9000 O.2    47  LYS47      -0.2867
     40  CB         9.0350  -12.0080    5.1670 C.3    47  LYS47       0.0271
     41  CG         8.0930  -11.1190    4.3410 C.3    47  LYS47       0.0035
     42  CD         8.5900   -9.6690    4.3790 C.3    47  LYS47       0.0206
     43  CE         7.8580   -8.7470    3.3860 C.3    47  LYS47       0.1093
     44  NZ         6.9120   -7.8110    4.0250 N.3    47  LYS47      -0.1314
     45  N          8.7660   -8.7430   18.0120 N.3    82  ASP82      -0.1239
     46  CA         8.6660   -9.9430   17.1600 C.3    82  ASP82       0.1674
     47  C         10.0410  -10.5540   16.7850 C.2    82  ASP82       0.2266
     48  O         11.0870   -9.9520   17.0230 O.2    82  ASP82      -0.2867
     49  CB         7.7570   -9.7390   15.9290 C.3    82  ASP82       0.1410
     50  CG         8.3990   -8.8590   14.8660 C.2    82  ASP82       0.3668
     51  OD1        9.4240   -9.2570   14.2750 O.co2  82  ASP82      -0.2456
     52  OD2        7.8720   -7.7540   14.6260 O.co2  82  ASP82      -0.2456
     53  N         11.6620  -11.2350   10.1270 N.3    85  ILE85      -0.1231
     54  CA        12.7480  -10.9140    9.2120 C.3    85  ILE85       0.1692
     55  C         13.5640   -9.6560    9.5270 C.2    85  ILE85       0.2593
     56  O         14.7620   -9.6520    9.3100 O.2    85  ILE85      -0.2718
     57  CB        12.2290  -10.9760    7.7320 C.3    85  ILE85       0.0266
     58  CG1       13.3680  -10.9470    6.7100 C.3    85  ILE85       0.0019
     59  CG2       11.2360   -9.8450    7.4400 C.3    85  ILE85       0.0020
     60  CD1       14.0720  -12.2500    6.5490 C.3    85  ILE85       0.0001
     61  N         12.9400   -8.5910   10.0480 N.am   86  GLY86      -0.1942
     62  CA        13.6260   -7.3440   10.3560 C.3    86  GLY86       0.2014
     63  C         13.6750   -6.4180    9.1530 C.2    86  GLY86       0.2638
     64  O         13.1650   -6.7290    8.0820 O.2    86  GLY86      -0.2714
     65  N         14.3070   -5.2650    9.3270 N.am   87  MET87      -0.1976
     66  CA        14.4030   -4.2710    8.2760 C.3    87  MET87       0.1605
     67  C         15.7910   -3.6530    8.1200 C.2    87  MET87       0.2287
     68  O         16.3330   -3.0310    9.0460 O.2    87  MET87      -0.2864
     69  CB        13.4150   -3.1450    8.5750 C.3    87  MET87       0.0413
     70  CG        11.9550   -3.4660    8.2710 C.3    87  MET87       0.0598
     71  SD        10.9000   -2.0910    8.8210 S.3    87  MET87      -0.1393
     72  CE        11.1210   -2.0910   10.7050 C.3    87  MET87       0.0692
     73  N         14.9390   -0.4920    3.9940 N.3    91  ASP91      -0.1239
     74  CA        13.5810   -0.9200    4.3370 C.3    91  ASP91       0.1674
     75  C         12.9230    0.0720    5.2990 C.2    91  ASP91       0.2266
     76  O         11.7260    0.3780    5.1670 O.2    91  ASP91      -0.2867
     77  CB        13.5770   -2.3160    4.9920 C.3    91  ASP91       0.1410
     78  CG        14.0970   -3.4220    4.0660 C.2    91  ASP91       0.3668
     79  OD1       14.1380   -3.2280    2.8370 O.co2  91  ASP91      -0.2456
     80  OD2       14.3940   -4.5230    4.5690 O.co2  91  ASP91      -0.2456
     81  N          9.9910    2.2660    3.8020 N.3    95  ASN95      -0.1225
     82  CA         8.7210    1.8600    4.3790 C.3    95  ASN95       0.1785
     83  C          8.1850    2.5830    5.6010 C.2    95  ASN95       0.2597
     84  O          7.0470    2.3400    5.9890 O.2    95  ASN95      -0.2718
     85  CB         8.6950    0.3480    4.6150 C.3    95  ASN95       0.1169
     86  CG         9.0580   -0.4440    3.3630 C.2    95  ASN95       0.2627
     87  OD1        8.4890   -0.2360    2.2810 O.2    95  ASN95      -0.2716
     88  ND2       10.0380   -1.3290    3.4970 N.am   95  ASN95      -0.0877
     89  N          8.9770    3.4560    6.2170 N.am   96  LEU96      -0.1980
     90  CA         8.5000    4.1870    7.3750 C.3    96  LEU96       0.1596
     91  C          8.5810    5.6940    7.2040 C.2    96  LEU96       0.2287
     92  O          8.8380    6.4210    8.1710 O.2    96  LEU96      -0.2864
     93  CB         9.1440    3.7150    8.6960 C.3    96  LEU96       0.0297
     94  CG         8.4860    2.5370    9.4510 C.3    96  LEU96       0.0022
     95  CD1        9.0600    2.2920   10.8550 C.3    96  LEU96       0.0001
     96  CD2        6.9800    2.7040    9.5370 C.3    96  LEU96       0.0001
     97  N          0.5690    1.7670   10.1960 N.3   127  PHE127     -0.1241
     98  CA         1.5470    2.0410   11.2500 C.3   127  PHE127      0.1605
     99  C          1.3390    3.3470   12.0110 C.2   127  PHE127      0.2264
    100  O          1.6460    3.4540   13.2150 O.2   127  PHE127     -0.2867
    101  CB         2.9850    1.9460   10.7300 C.3   127  PHE127      0.0534
    102  CG         4.0000    2.4380   11.7220 C.ar  127  PHE127     -0.0203
    103  CD1        4.6050    1.5640   12.6140 C.ar  127  PHE127     -0.0042
    104  CD2        4.3100    3.8000   11.8060 C.ar  127  PHE127     -0.0042
    105  CE1        5.5020    2.0410   13.5710 C.ar  127  PHE127     -0.0003
    106  CE2        5.2250    4.2750   12.7570 C.ar  127  PHE127     -0.0003
    107  CZ         5.8140    3.3950   13.6230 C.ar  127  PHE127     -0.0000
    108  N         11.4090    2.6040   17.0190 N.3   139  VAL139     -0.1245
    109  CA        11.3840    1.3060   16.3210 C.3   139  VAL139      0.1561
    110  C         12.8030    0.7800   16.2390 C.2   139  VAL139      0.2260
    111  O         13.6200    1.3500   15.5280 O.2   139  VAL139     -0.2867
    112  CB        10.7100    1.3480   14.8990 C.3   139  VAL139      0.0252
    113  CG1       10.7520   -0.0150   14.2310 C.3   139  VAL139      0.0019
    114  CG2        9.2500    1.8040   14.9800 C.3   139  VAL139      0.0019
    115  N         11.9560   -7.0290   14.9960 N.3   173  THR173     -0.1218
    116  CA        11.5790   -5.6280   15.1970 C.3   173  THR173      0.1862
    117  C         10.9320   -5.4240   16.5630 C.2   173  THR173      0.2287
    118  O         10.1200   -6.2320   17.0090 O.2   173  THR173     -0.2866
    119  CB        10.6150   -5.1530   14.0670 C.3   173  THR173      0.1770
    120  OG1       11.3010   -5.1790   12.8120 O.3   173  THR173     -0.2211
    121  CG2       10.0770   -3.7330   14.3420 C.3   173  THR173      0.0375
    122  N          8.8230   -2.4920   18.6260 N.3   175  VAL175     -0.1245
    123  CA         8.1110   -1.2120   18.5640 C.3   175  VAL175      0.1561
    124  C          7.8470   -0.7760   20.0070 C.2   175  VAL175      0.2260
    125  O          7.2600   -1.5200   20.7870 O.2   175  VAL175     -0.2867
    126  CB         6.7810   -1.3160   17.7190 C.3   175  VAL175      0.0252
    127  CG1        6.0290   -0.0090   17.7320 C.3   175  VAL175      0.0019
    128  CG2        7.0710   -1.6500   16.2890 C.3   175  VAL175      0.0019
@<TRIPOS>BOND
     1    87    86    2
     2    79    78   ar
     3    86    88   am
     4    86    85    1
     5    43    44    1
     6    43    42    1
     7    81    82    1
     8    73    74    1
     9    78    80   ar
    10    78    77    1
    11    74    77    1
    12    74    75    1
    13    41    42    1
    14    41    40    1
    15    82    85    1
    16    82    83    1
    17    39    38    2
    18    40    37    1
    19    76    75    2
    20    37    38    1
    21    37    36    1
    22    83    84    2
    23    83    89   am
    24    89    90    1
    25    60    58    1
    26    58    57    1
    27    30    28   ar
    28    26    25    2
    29    28    29   ar
    30    28    27    1
    31    91    90    1
    32    91    92    2
    33    27    24    1
    34    90    93    1
    35    59    57    1
    36    57    54    1
    37    25    24    1
    38    25    31   am
    39    24    23    1
    40    64    63    2
    41    67    66    1
    42    67    68    2
    43    70    69    1
    44    70    71    1
    45    66    69    1
    46    66    65    1
    47    15    14    2
    48    93    94    1
    49    71    72    1
    50    31    32    1
    51    34    33    2
    52    32    33    1
    53    32    35    1
    54    63    65   am
    55    63    62    1
    56    54    55    1
    57    54    53    1
    58    56    55    2
    59    94    96    1
    60    94    95    1
    61    55    61   am
    62    14    16   am
    63    14    13    1
    64    61    62    1
    65    97    98    1
    66    12    11    2
    67    10    13    1
    68    10    11    1
    69    10     9    1
    70   101    98    1
    71   101   102    1
    72    11    17   am
    73    98    99    1
    74   102   104   ar
    75   102   103   ar
    76   104   106   ar
    77    99   100    2
    78    20    19    2
    79    19    18    1
    80    17    18    1
    81   103   105   ar
    82   106   107   ar
    83   120   119    1
    84    18    21    1
    85   105   107   ar
    86   119   121    1
    87   119   116    1
    88   113   112    1
    89    51    50   ar
    90     4     3    2
    91     1     2    1
    92    21    22    1
    93    52    50   ar
    94    50    49    1
    95   112   114    1
    96   112   109    1
    97     2     3    1
    98     2     5    1
    99   115   116    1
   100   116   117    1
   101     8     6    1
   102   111   110    2
   103    49    46    1
   104   110   109    1
   105   128   126    1
   106   109   108    1
   107     5     6    1
   108     6     7    1
   109   117   118    2
   110    47    48    2
   111    47    46    1
   112    46    45    1
   113   126   127    1
   114   126   123    1
   115   123   122    1
   116   123   124    1
   117   124   125    2
