@<TRIPOS>MOLECULE
tmp/2xhxA00.pdb
 128 117 0 0 0
SMALL
GASTEIGER

@<TRIPOS>ATOM
      1  N          7.1020   -1.6420   10.2820 N.3    38  LEU38      -0.1245
      2  CA         8.2930   -2.0930   11.0160 C.3    38  LEU38       0.1561
      3  C          8.3720   -3.6150   11.0440 C.2    38  LEU38       0.2260
      4  O          9.4650   -4.1750   11.1920 O.2    38  LEU38      -0.2867
      5  CB         8.3060   -1.5070   12.4360 C.3    38  LEU38       0.0270
      6  CG         8.4880    0.0150   12.4280 C.3    38  LEU38       0.0019
      7  CD1        7.7850    0.6790   13.5800 C.3    38  LEU38       0.0001
      8  CD2        9.9590    0.3690   12.4180 C.3    38  LEU38       0.0001
      9  N          9.4890   -4.6370    7.1160 N.3    41  ASN41      -0.1225
     10  CA        10.9330   -4.5740    6.8950 C.3    41  ASN41       0.1785
     11  C         11.6940   -5.7190    7.5430 C.2    41  ASN41       0.2597
     12  O         12.6740   -6.1900    6.9880 O.2    41  ASN41      -0.2718
     13  CB        11.4960   -3.2540    7.3810 C.3    41  ASN41       0.1169
     14  CG        10.9780   -2.0870    6.5730 C.2    41  ASN41       0.2627
     15  OD1        9.7850   -1.7480    6.6450 O.2    41  ASN41      -0.2716
     16  ND2       11.8610   -1.4750    5.7810 N.am   41  ASN41      -0.0877
     17  N         11.2430   -6.1700    8.7110 N.am   42  SER42      -0.1952
     18  CA        11.8440   -7.3440    9.3500 C.3    42  SER42       0.1924
     19  C         11.6240   -8.5620    8.4450 C.2    42  SER42       0.2314
     20  O         12.5410   -9.3640    8.2400 O.2    42  SER42      -0.2863
     21  CB        11.2880   -7.5810   10.7760 C.3    42  SER42       0.2116
     22  OG        11.6970   -6.5670   11.7030 O.3    42  SER42      -0.2180
     23  N         11.3080   -8.5580    5.1720 N.3    44  ASP44      -0.1225
     24  CA        12.3110   -8.3490    4.1100 C.3    44  ASP44       0.1805
     25  C         13.7400   -8.6660    4.5990 C.2    44  ASP44       0.2597
     26  O         14.5200   -9.2970    3.8930 O.2    44  ASP44      -0.2718
     27  CB        12.2330   -6.9090    3.5760 C.3    44  ASP44       0.1424
     28  CG        10.8820   -6.5940    2.8820 C.2    44  ASP44       0.3668
     29  OD1        9.9250   -7.3970    3.0480 O.co2  44  ASP44      -0.2456
     30  OD2       10.7870   -5.5480    2.1740 O.co2  44  ASP44      -0.2456
     31  N         14.0610   -8.2320    5.8170 N.am   45  ALA45      -0.1979
     32  CA        15.3270   -8.5690    6.4550 C.3    45  ALA45       0.1597
     33  C         15.4350  -10.0780    6.5400 C.2    45  ALA45       0.2287
     34  O         16.3600  -10.6550    5.9830 O.2    45  ALA45      -0.2864
     35  CB        15.4130   -7.9530    7.8400 C.3    45  ALA45       0.0319
     36  N         16.0050  -11.8640    2.9520 N.3    48  LYS48      -0.1245
     37  CA        17.3670  -11.7260    2.4460 C.3    48  LYS48       0.1561
     38  C         18.2720  -12.7620    3.0930 C.2    48  LYS48       0.2260
     39  O         18.9380  -13.5190    2.3840 O.2    48  LYS48      -0.2867
     40  CB        17.8980  -10.3140    2.7200 C.3    48  LYS48       0.0271
     41  CG        19.2160   -9.9690    2.0430 C.3    48  LYS48       0.0035
     42  CD        19.0630   -9.8380    0.5360 C.3    48  LYS48       0.0206
     43  CE        20.3220   -9.2560   -0.1070 C.3    48  LYS48       0.1093
     44  NZ        21.4500  -10.2140   -0.1000 N.3    48  LYS48      -0.1314
     45  N         13.8240   -8.7190   15.3150 N.3    83  ASP83      -0.1239
     46  CA        13.9870   -9.8790   14.4390 C.3    83  ASP83       0.1674
     47  C         15.3860  -10.4640   14.5370 C.2    83  ASP83       0.2266
     48  O         16.2730   -9.9030   15.2140 O.2    83  ASP83      -0.2867
     49  CB        13.6750   -9.5370   12.9760 C.3    83  ASP83       0.1410
     50  CG        14.6560   -8.5460   12.3640 C.2    83  ASP83       0.3668
     51  OD1       15.8450   -8.8890   12.1970 O.co2  83  ASP83      -0.2456
     52  OD2       14.2080   -7.4340   12.0060 O.co2  83  ASP83      -0.2456
     53  N         18.7460  -10.4440    8.3910 N.3    86  ILE86      -0.1231
     54  CA        20.0970  -10.0820    7.9360 C.3    86  ILE86       0.1692
     55  C         20.7280   -8.9530    8.7490 C.2    86  ILE86       0.2593
     56  O         21.8870   -9.0550    9.1570 O.2    86  ILE86      -0.2718
     57  CB        20.1640   -9.7320    6.4080 C.3    86  ILE86       0.0266
     58  CG1       21.5970   -9.9340    5.8670 C.3    86  ILE86       0.0019
     59  CG2       19.6930   -8.3010    6.1620 C.3    86  ILE86       0.0020
     60  CD1       22.0500  -11.3900    5.6600 C.3    86  ILE86       0.0001
     61  N         19.9780   -7.8870    8.9930 N.am   87  GLY87      -0.1942
     62  CA        20.5460   -6.7090    9.6660 C.3    87  GLY87       0.2014
     63  C         21.3710   -5.8160    8.7400 C.2    87  GLY87       0.2638
     64  O         21.5090   -6.0680    7.5270 O.2    87  GLY87      -0.2714
     65  N         21.9450   -4.7770    9.3300 N.am   88  MET88      -0.1976
     66  CA        22.5060   -3.6850    8.5570 C.3    88  MET88       0.1605
     67  C         23.9440   -3.3200    9.0020 C.2    88  MET88       0.2287
     68  O         24.2560   -3.3310   10.2050 O.2    88  MET88      -0.2864
     69  CB        21.5790   -2.4730    8.7210 C.3    88  MET88       0.0413
     70  CG        20.1440   -2.6800    8.2600 C.3    88  MET88       0.0598
     71  SD        19.1420   -1.2490    8.6920 S.3    88  MET88      -0.1393
     72  CE        18.9970   -1.3490   10.4790 C.3    88  MET88       0.0692
     73  N         24.7610    0.7800    5.6100 N.3    92  ASP92      -0.1239
     74  CA        23.3140    0.4770    5.5930 C.3    92  ASP92       0.1674
     75  C         22.5210    1.3860    6.5470 C.2    92  ASP92       0.2266
     76  O         21.6610    2.1240    6.0980 O.2    92  ASP92      -0.2867
     77  CB        23.0400   -1.0040    5.9180 C.3    92  ASP92       0.1410
     78  CG        23.6990   -1.9720    4.9300 C.2    92  ASP92       0.3668
     79  OD1       24.6570   -1.5650    4.2370 O.co2  92  ASP92      -0.2456
     80  OD2       23.2720   -3.1460    4.8600 O.co2  92  ASP92      -0.2456
     81  N         20.1810    4.1060    4.8490 N.3    96  ASN96      -0.1225
     82  CA        18.7540    3.7610    4.9190 C.3    96  ASN96       0.1785
     83  C         18.0080    4.5940    5.9610 C.2    96  ASN96       0.2597
     84  O         16.8200    4.8790    5.7840 O.2    96  ASN96      -0.2718
     85  CB        18.5480    2.2510    5.1870 C.3    96  ASN96       0.1169
     86  CG        18.9220    1.3690    3.9840 C.2    96  ASN96       0.2627
     87  OD1       19.1870    1.8580    2.8830 O.2    96  ASN96      -0.2716
     88  ND2       18.9350    0.0580    4.2020 N.am   96  ASN96      -0.0877
     89  N         18.7040    4.9870    7.0310 N.am   97  LEU97      -0.1980
     90  CA        18.0860    5.7820    8.1060 C.3    97  LEU97       0.1596
     91  C         18.6720    7.1930    8.2410 C.2    97  LEU97       0.2287
     92  O         19.3300    7.5070    9.2440 O.2    97  LEU97      -0.2864
     93  CB        18.1520    5.0410    9.4470 C.3    97  LEU97       0.0297
     94  CG        17.3130    3.7720    9.4810 C.3    97  LEU97       0.0022
     95  CD1       17.3640    3.1160   10.8550 C.3    97  LEU97       0.0001
     96  CD2       15.8730    4.0880    9.0810 C.3    97  LEU97       0.0001
     97  N          9.6070    3.6090    7.4430 N.3   128  PHE128     -0.1241
     98  CA        10.1450    3.6610    8.8020 C.3   128  PHE128      0.1605
     99  C          9.5800    4.8270    9.5750 C.2   128  PHE128      0.2264
    100  O          9.0870    4.6600   10.6990 O.2   128  PHE128     -0.2867
    101  CB        11.6710    3.7880    8.8210 C.3   128  PHE128      0.0534
    102  CG        12.2260    4.1160   10.2030 C.ar  128  PHE128     -0.0203
    103  CD1       12.5680    3.1080   11.0870 C.ar  128  PHE128     -0.0042
    104  CD2       12.3640    5.4390   10.6190 C.ar  128  PHE128     -0.0042
    105  CE1       13.0570    3.4020   12.3480 C.ar  128  PHE128     -0.0003
    106  CE2       12.8440    5.7440   11.8850 C.ar  128  PHE128     -0.0003
    107  CZ        13.1890    4.7220   12.7520 C.ar  128  PHE128     -0.0000
    108  N         17.1720    2.0040   16.9700 N.3   140  VAL140     -0.1245
    109  CA        17.3310    0.8390   16.0720 C.3   140  VAL140      0.1561
    110  C         18.7070    0.1670   16.2480 C.2   140  VAL140      0.2260
    111  O         19.6370    0.4280   15.4870 O.2   140  VAL140     -0.2867
    112  CB        17.1360    1.2120   14.5620 C.3   140  VAL140      0.0252
    113  CG1       17.2290   -0.0380   13.6680 C.3   140  VAL140      0.0019
    114  CG2       15.7970    1.9430   14.3270 C.3   140  VAL140      0.0019
    115  N         17.9530   -6.8720   13.5520 N.3   174  THR174     -0.1218
    116  CA        17.6580   -5.5070   14.0250 C.3   174  THR174      0.1862
    117  C         16.7530   -5.5300   15.2540 C.2   174  THR174      0.2287
    118  O         16.0970   -6.5390   15.5160 O.2   174  THR174     -0.2866
    119  CB        16.9900   -4.6500   12.9050 C.3   174  THR174      0.1770
    120  OG1       18.0010   -3.9810   12.1410 O.3   174  THR174     -0.2211
    121  CG2       16.0300   -3.6090   13.4930 C.3   174  THR174      0.0375
    122  N         14.1290   -2.6190   17.0200 N.3   176  VAL176     -0.1245
    123  CA        13.5600   -1.2840   16.9570 C.3   176  VAL176      0.1561
    124  C         12.7930   -1.0360   18.2340 C.2   176  VAL176      0.2260
    125  O         11.6840   -1.5330   18.3660 O.2   176  VAL176     -0.2867
    126  CB        12.6240   -1.1430   15.7540 C.3   176  VAL176      0.0252
    127  CG1       11.7870    0.1460   15.8610 C.3   176  VAL176      0.0019
    128  CG2       13.4290   -1.1880   14.4770 C.3   176  VAL176      0.0019
@<TRIPOS>BOND
     1    43    44    1
     2    43    42    1
     3    42    41    1
     4    41    40    1
     5    30    28   ar
     6    39    38    2
     7    37    40    1
     8    37    36    1
     9    37    38    1
    10    28    29   ar
    11    28    27    1
    12    87    86    2
    13    27    24    1
    14    26    25    2
    15    86    88   am
    16    86    85    1
    17    24    25    1
    18    24    23    1
    19    79    78   ar
    20    25    31   am
    21    81    82    1
    22    80    78   ar
    23    82    85    1
    24    82    83    1
    25    78    77    1
    26    74    73    1
    27    74    77    1
    28    74    75    1
    29    60    58    1
    30    16    14   am
    31    84    83    2
    32    31    32    1
    33    58    57    1
    34    83    89   am
    35    34    33    2
    36    76    75    2
    37    59    57    1
    38    57    54    1
    39    32    33    1
    40    32    35    1
    41    14    15    2
    42    14    13    1
    43    10     9    1
    44    10    13    1
    45    10    11    1
    46    12    11    2
    47    89    90    1
    48    97    98    1
    49    64    63    2
    50    11    17   am
    51    54    53    1
    52    54    55    1
    53    90    91    1
    54    90    93    1
    55    20    19    2
    56    91    92    2
    57    70    71    1
    58    70    69    1
    59    19    18    1
    60    66    69    1
    61    66    67    1
    62    66    65    1
    63    71    72    1
    64    17    18    1
    65    63    65   am
    66    63    62    1
    67    55    61   am
    68    55    56    2
    69    98   101    1
    70    98    99    1
    71   101   102    1
    72    61    62    1
    73    67    68    2
    74    96    94    1
    75    18    21    1
    76    93    94    1
    77    94    95    1
    78    99   100    2
    79   102   104   ar
    80   102   103   ar
    81     1     2    1
    82   104   106   ar
    83    21    22    1
    84     2     3    1
    85     2     5    1
    86     3     4    2
    87   103   105   ar
    88   106   107   ar
    89    52    50   ar
    90   120   119    1
    91    51    50   ar
    92   105   107   ar
    93    50    49    1
    94     8     6    1
    95     6     5    1
    96     6     7    1
    97   119   121    1
    98   119   116    1
    99    49    46    1
   100   115   116    1
   101   113   112    1
   102   116   117    1
   103   114   112    1
   104    46    47    1
   105    46    45    1
   106   128   126    1
   107    47    48    2
   108   112   109    1
   109   117   118    2
   110   111   110    2
   111   126   127    1
   112   126   123    1
   113   109   110    1
   114   109   108    1
   115   123   122    1
   116   123   124    1
   117   124   125    2
