@<TRIPOS>MOLECULE
tmp/2xi3B02.pdb
 167 156 0 0 0
SMALL
GASTEIGER

@<TRIPOS>ATOM
      1  N         57.0720   38.9610  -10.0930 N.3    48  ARG48      -0.1245
      2  CA        55.9800   39.5180   -9.3030 C.3    48  ARG48       0.1563
      3  C         56.2940   39.3810   -7.8170 C.2    48  ARG48       0.2260
      4  O         56.0450   40.2950   -7.0220 O.2    48  ARG48      -0.2867
      5  CB        54.6700   38.8120   -9.6300 C.3    48  ARG48       0.0307
      6  CG        53.4840   39.3110   -8.8270 C.3    48  ARG48       0.0489
      7  CD        53.1690   40.7780   -9.1480 C.3    48  ARG48       0.2205
      8  NE        52.6790   40.9630  -10.5130 N.pl3  48  ARG48      -0.0865
      9  CZ        52.3520   42.1470  -11.0240 C.cat  48  ARG48       0.5346
     10  NH1       52.4650   43.2390  -10.2750 N.pl3  48  ARG48       0.1354
     11  NH2       51.9120   42.2460  -12.2760 N.pl3  48  ARG48       0.1354
     12  N         58.3600   42.2090   -6.6680 N.3    51  LYS51      -0.1245
     13  CA        57.6160   43.4640   -6.6540 C.3    51  LYS51       0.1561
     14  C         56.7100   43.6120   -5.4310 C.2    51  LYS51       0.2260
     15  O         56.6300   44.6960   -4.8380 O.2    51  LYS51      -0.2867
     16  CB        56.7960   43.6070   -7.9430 C.3    51  LYS51       0.0271
     17  CG        56.4250   45.0400   -8.2710 C.3    51  LYS51       0.0035
     18  CD        55.7160   45.1330   -9.6160 C.3    51  LYS51       0.0206
     19  CE        55.6210   46.5770  -10.0870 C.3    51  LYS51       0.1093
     20  NZ        54.9770   47.4520   -9.0660 N.3    51  LYS51      -0.1314
     21  N         48.1010   33.9950  -11.7020 N.3   141  LYS141     -0.1245
     22  CA        46.9150   34.1640  -12.5290 C.3   141  LYS141      0.1561
     23  C         47.2960   34.1420  -14.0040 C.2   141  LYS141      0.2260
     24  O         48.3600   34.6210  -14.3790 O.2   141  LYS141     -0.2867
     25  CB        46.1980   35.4650  -12.1820 C.3   141  LYS141      0.0271
     26  CG        45.5580   35.4280  -10.7980 C.3   141  LYS141      0.0035
     27  CD        44.3900   36.3910  -10.6720 C.3   141  LYS141      0.0206
     28  CE        44.8400   37.8350  -10.7490 C.3   141  LYS141      0.1093
     29  NZ        43.6970   38.7680  -10.4960 N.3   141  LYS141     -0.1314
     30  N         46.2230   35.7920  -17.1600 N.3   143  GLU143     -0.1245
     31  CA        45.4210   36.8900  -17.6780 C.3   143  GLU143      0.1567
     32  C         46.0440   37.4190  -18.9630 C.2   143  GLU143      0.2260
     33  O         47.2700   37.4280  -19.1230 O.2   143  GLU143     -0.2867
     34  CB        45.2860   38.0050  -16.6280 C.3   143  GLU143      0.0388
     35  CG        44.6170   37.5140  -15.3470 C.3   143  GLU143      0.1160
     36  CD        44.5850   38.5560  -14.2360 C.2   143  GLU143      0.3649
     37  OE1       45.6570   39.0730  -13.8560 O.co2 143  GLU143     -0.2457
     38  OE2       43.4810   38.8470  -13.7290 O.co2 143  GLU143     -0.2457
     39  N         56.3720   50.6560  -22.2270 N.3   151  LYS151     -0.1245
     40  CA        55.8630   50.5830  -20.8630 C.3   151  LYS151      0.1561
     41  C         56.5460   49.4740  -20.0640 C.2   151  LYS151      0.2260
     42  O         56.3570   49.3710  -18.8520 O.2   151  LYS151     -0.2867
     43  CB        54.3500   50.3560  -20.8890 C.3   151  LYS151      0.0271
     44  CG        53.6140   50.7660  -19.6270 C.3   151  LYS151      0.0035
     45  CD        52.1650   50.3010  -19.6830 C.3   151  LYS151      0.0206
     46  CE        51.3340   50.8970  -18.5580 C.3   151  LYS151      0.1093
     47  NZ        51.0580   52.3450  -18.7740 N.3   151  LYS151     -0.1314
     48  N         53.8230   42.2120  -18.7790 N.3   155  LYS155     -0.1231
     49  CA        53.5910   42.2780  -17.3380 C.3   155  LYS155      0.1678
     50  C         53.8320   40.9090  -16.7230 C.2   155  LYS155      0.2434
     51  O         53.4420   39.8980  -17.3110 O.2   155  LYS155     -0.2733
     52  CB        52.1320   42.6430  -17.0470 C.3   155  LYS155      0.0284
     53  CG        51.6430   43.9620  -17.6170 C.3   155  LYS155      0.0035
     54  CD        50.1450   44.1160  -17.3570 C.3   155  LYS155      0.0206
     55  CE        49.6190   45.4340  -17.8980 C.3   155  LYS155      0.1093
     56  NZ        48.1500   45.5820  -17.6840 N.3   155  LYS155     -0.1314
     57  N         54.4430   40.8640  -15.5240 N.am  156  PRO156     -0.2729
     58  CA        54.4960   39.5840  -14.8060 C.3   156  PRO156      0.1401
     59  C         53.1180   39.1810  -14.2920 C.2   156  PRO156      0.2269
     60  O         52.2830   40.0520  -14.0430 O.2   156  PRO156     -0.2865
     61  CB        55.4220   39.8730  -13.6160 C.3   156  PRO156      0.0296
     62  CG        55.4140   41.3540  -13.4350 C.3   156  PRO156      0.0237
     63  CD        54.9230   41.9980  -14.7120 C.3   156  PRO156      0.0939
     64  N         50.0140   38.2740  -11.9920 N.3   158  ARG158     -0.1231
     65  CA        49.5740   38.5970  -10.6500 C.3   158  ARG158      0.1694
     66  C         49.4870   37.2950   -9.8810 C.2   158  ARG158      0.2592
     67  O         49.2640   36.2270  -10.4680 O.2   158  ARG158     -0.2718
     68  CB        48.2080   39.2700  -10.6690 C.3   158  ARG158      0.0321
     69  CG        48.2130   40.6480  -11.2990 C.3   158  ARG158      0.0489
     70  CD        46.7890   41.1760  -11.3700 C.3   158  ARG158      0.2205
     71  NE        46.7480   42.5390  -11.8790 N.pl3 158  ARG158     -0.0865
     72  CZ        46.1070   42.9040  -12.9840 C.cat 158  ARG158      0.5346
     73  NH1       45.4440   42.0060  -13.6970 N.pl3 158  ARG158      0.1354
     74  NH2       46.1300   44.1740  -13.3720 N.pl3 158  ARG158      0.1354
     75  N         49.6710   37.3810   -8.5720 N.am  159  LEU159     -0.1966
     76  CA        49.5730   36.1970   -7.7310 C.3   159  LEU159      0.1728
     77  C         48.2150   36.1880   -7.0590 C.2   159  LEU159      0.2616
     78  O         47.7020   37.2380   -6.6740 O.2   159  LEU159     -0.2715
     79  CB        50.6670   36.2240   -6.6680 C.3   159  LEU159      0.0311
     80  CG        52.0810   36.2050   -7.2460 C.3   159  LEU159      0.0022
     81  CD1       53.0980   36.5770   -6.1920 C.3   159  LEU159      0.0001
     82  CD2       52.3950   34.8500   -7.8520 C.3   159  LEU159      0.0001
     83  N         47.6300   35.0080   -6.9170 N.am  160  ILE160     -0.1977
     84  CA        46.4140   34.8810   -6.1250 C.3   160  ILE160      0.1596
     85  C         46.6940   33.9370   -4.9540 C.2   160  ILE160      0.2287
     86  O         47.3850   32.9410   -5.1160 O.2   160  ILE160     -0.2864
     87  CB        45.2050   34.4080   -6.9660 C.3   160  ILE160      0.0276
     88  CG1       43.9100   34.5460   -6.1480 C.3   160  ILE160      0.0022
     89  CG2       45.4050   32.9980   -7.4800 C.3   160  ILE160      0.0022
     90  CD1       42.6600   34.1470   -6.9080 C.3   160  ILE160      0.0001
     91  N         46.9320   56.0190   -7.2580 N.3   220  ASP220     -0.1225
     92  CA        47.3010   54.6320   -7.5000 C.3   220  ASP220      0.1805
     93  C         48.2780   54.1600   -6.4470 C.2   220  ASP220      0.2598
     94  O         49.4350   54.5640   -6.4510 O.2   220  ASP220     -0.2718
     95  CB        47.9300   54.4830   -8.8860 C.3   220  ASP220      0.1424
     96  CG        48.6370   53.1530   -9.0600 C.2   220  ASP220      0.3668
     97  OD1       48.0470   52.1180   -8.6850 O.co2 220  ASP220     -0.2456
     98  OD2       49.7890   53.1440   -9.5500 O.co2 220  ASP220     -0.2456
     99  N         47.8130   53.3060   -5.5390 N.am  221  THR221     -0.1953
    100  CA        48.6870   52.7720   -4.5140 C.3   221  THR221      0.1897
    101  C         49.5380   51.6810   -5.1350 C.2   221  THR221      0.2313
    102  O         49.0260   50.8530   -5.8830 O.2   221  THR221     -0.2863
    103  CB        47.8730   52.1570   -3.3550 C.3   221  THR221      0.1794
    104  OG1       47.0960   53.1830   -2.7160 O.3   221  THR221     -0.2208
    105  CG2       48.7990   51.5210   -2.3300 C.3   221  THR221      0.0378
    106  N         50.9240   48.3120   -5.3430 N.3   223  CYS223     -0.1221
    107  CA        50.6750   46.9800   -4.7790 C.3   223  CYS223      0.1808
    108  C         49.8410   47.0330   -3.5080 C.2   223  CYS223      0.2601
    109  O         50.2980   46.6210   -2.4370 O.2   223  CYS223     -0.2717
    110  CB        51.9780   46.2410   -4.5060 C.3   223  CYS223      0.0970
    111  SG        51.6890   44.5050   -4.1520 S.3   223  CYS223     -0.0800
    112  N         48.6150   47.5230   -3.6330 N.am  224  PHE224     -0.1962
    113  CA        47.7710   47.7680   -2.4710 C.3   224  PHE224      0.1771
    114  C         47.6900   46.5820   -1.5170 C.2   224  PHE224      0.2619
    115  O         47.8410   46.7630   -0.3170 O.2   224  PHE224     -0.2715
    116  CB        46.3570   48.1960   -2.8900 C.3   224  PHE224      0.0574
    117  CG        45.5110   48.7000   -1.7410 C.ar  224  PHE224     -0.0200
    118  CD1       45.4440   50.0530   -1.4490 C.ar  224  PHE224     -0.0042
    119  CD2       44.7720   47.8170   -0.9660 C.ar  224  PHE224     -0.0042
    120  CE1       44.6740   50.5200   -0.3910 C.ar  224  PHE224     -0.0003
    121  CE2       43.9990   48.2750    0.0840 C.ar  224  PHE224     -0.0003
    122  CZ        43.9420   49.6220    0.3720 C.ar  224  PHE224     -0.0000
    123  N         47.4380   45.3770   -2.0240 N.am  225  ASP225     -0.1971
    124  CA        47.2950   44.2380   -1.1150 C.3   225  ASP225      0.1709
    125  C         48.5100   44.0900   -0.1930 C.2   225  ASP225      0.2293
    126  O         48.3680   43.7230    0.9800 O.2   225  ASP225     -0.2864
    127  CB        47.0830   42.9180   -1.8800 C.3   225  ASP225      0.1436
    128  CG        45.7600   42.8650   -2.6240 C.2   225  ASP225      0.3671
    129  OD1       44.8590   43.6620   -2.3170 O.co2 225  ASP225     -0.2456
    130  OD2       45.6220   42.0080   -3.5210 O.co2 225  ASP225     -0.2456
    131  N         44.6900   37.9010   -1.5950 N.3   282  SER282     -0.1217
    132  CA        43.9640   38.4190   -2.7570 C.3   282  SER282      0.1889
    133  C         42.7720   37.5600   -3.1520 C.2   282  SER282      0.2288
    134  O         41.9400   37.9590   -3.9690 O.2   282  SER282     -0.2866
    135  CB        44.9260   38.5140   -3.9390 C.3   282  SER282      0.2089
    136  OG        45.7110   37.3350   -4.0050 O.3   282  SER282     -0.2183
    137  N         38.4060   40.2270    0.5400 N.3   287  THR287     -0.1218
    138  CA        39.3730   41.0370   -0.2150 C.3   287  THR287      0.1862
    139  C         38.7830   42.3810   -0.6530 C.2   287  THR287      0.2287
    140  O         39.3810   43.4320   -0.3990 O.2   287  THR287     -0.2866
    141  CB        39.9550   40.2710   -1.4190 C.3   287  THR287      0.1770
    142  OG1       40.5920   39.0750   -0.9450 O.3   287  THR287     -0.2211
    143  CG2       40.9860   41.1450   -2.1610 C.3   287  THR287      0.0375
    144  N         39.5740   45.8090    1.2960 N.3   291  ASN291     -0.1240
    145  CA        40.3500   46.8040    0.5530 C.3   291  ASN291      0.1653
    146  C         39.5960   48.1180    0.4390 C.2   291  ASN291      0.2266
    147  O         40.1890   49.1920    0.5720 O.2   291  ASN291     -0.2867
    148  CB        40.7480   46.2950   -0.8280 C.3   291  ASN291      0.1155
    149  CG        41.9500   45.3720   -0.7750 C.2   291  ASN291      0.2627
    150  OD1       42.6090   45.2620    0.2590 O.2   291  ASN291     -0.2716
    151  ND2       42.2640   44.7430   -1.8950 N.am  291  ASN291     -0.0877
    152  N         40.8290   48.9510   -4.0640 N.3   318  ASP318     -0.1225
    153  CA        41.9990   49.8360   -4.0010 C.3   318  ASP318      0.1805
    154  C         41.9220   51.0410   -4.9460 C.2   318  ASP318      0.2597
    155  O         42.8300   51.8750   -4.9760 O.2   318  ASP318     -0.2718
    156  CB        43.2830   49.0400   -4.2620 C.3   318  ASP318      0.1424
    157  CG        43.3690   48.5110   -5.6830 C.2   318  ASP318      0.3668
    158  OD1       42.3470   48.5490   -6.3970 O.co2 318  ASP318     -0.2456
    159  OD2       44.4600   48.0460   -6.0830 O.co2 318  ASP318     -0.2456
    160  N         40.8430   51.1330   -5.7150 N.am  319  ASP319     -0.1974
    161  CA        40.7170   52.2060   -6.6920 C.3   319  ASP319      0.1709
    162  C         40.0910   53.4340   -6.0600 C.2   319  ASP319      0.2293
    163  O         39.0050   53.3650   -5.4830 O.2   319  ASP319     -0.2864
    164  CB        39.8840   51.7550   -7.8900 C.3   319  ASP319      0.1436
    165  CG        40.0690   52.6590   -9.0900 C.2   319  ASP319      0.3671
    166  OD1       39.4300   53.7300   -9.1260 O.co2 319  ASP319     -0.2456
    167  OD2       40.8600   52.2980   -9.9850 O.co2 319  ASP319     -0.2456
@<TRIPOS>BOND
     1    39    40    1
     2    43    40    1
     3    43    44    1
     4    40    41    1
     5    41    42    2
     6    45    44    1
     7    45    46    1
     8    33    32    2
     9    32    31    1
    10    48    49    1
    11    47    46    1
    12    55    56    1
    13    55    54    1
    14    31    30    1
    15    31    34    1
    16    53    54    1
    17    53    52    1
    18    49    52    1
    19    49    50    1
    20    51    50    2
    21    50    57   am
    22    34    35    1
    23    57    58    1
    24    57    63    1
    25    35    36    1
    26    58    59    1
    27    58    61    1
    28    63    62    1
    29    24    23    2
    30    59    60    2
    31    36    37   ar
    32    36    38   ar
    33    23    22    1
    34    73    72    1
    35    61    62    1
    36    74    72    1
    37    72    71    2
    38    22    25    1
    39    22    21    1
    40    11     9    1
    41    25    26    1
    42    64    65    1
    43    71    70    1
    44    70    69    1
    45    69    68    1
    46     9     8    2
    47     9    10    1
    48    26    27    1
    49    28    27    1
    50    28    29    1
    51    68    65    1
    52    65    66    1
    53     8     7    1
    54    67    66    2
    55     1     2    1
    56    19    18    1
    57    19    20    1
    58   167   165   ar
    59    66    75   am
    60     5     2    1
    61     5     6    1
    62    18    17    1
    63    98    96   ar
    64     2     3    1
    65     7     6    1
    66   166   165   ar
    67   165   164    1
    68    96    95    1
    69    96    97   ar
    70    95    92    1
    71    75    76    1
    72    17    16    1
    73    16    13    1
    74   164   161    1
    75    82    80    1
    76     3     4    2
    77    76    77    1
    78    76    79    1
    79    92    91    1
    80    92    93    1
    81    89    87    1
    82    80    79    1
    83    80    81    1
    84    77    83   am
    85    77    78    2
    86    87    88    1
    87    87    84    1
    88    83    84    1
    89    90    88    1
    90   161   162    1
    91   161   160    1
    92    12    13    1
    93    13    14    1
    94    94    93    2
    95    93    99   am
    96   158   157   ar
    97    84    85    1
    98   159   157   ar
    99   162   163    2
   100   102   101    2
   101   160   154   am
   102   157   156    1
   103    99   100    1
   104    14    15    2
   105   106   107    1
   106   101   100    1
   107    86    85    2
   108   155   154    2
   109   154   153    1
   110   107   110    1
   111   107   108    1
   112   100   103    1
   113   110   111    1
   114   156   153    1
   115   152   153    1
   116   136   135    1
   117   134   133    2
   118   135   132    1
   119   112   108   am
   120   112   113    1
   121   130   128   ar
   122   108   109    2
   123   103   104    1
   124   103   105    1
   125   133   132    1
   126   116   113    1
   127   116   117    1
   128   132   131    1
   129   128   129   ar
   130   128   127    1
   131   113   114    1
   132   143   141    1
   133   123   114   am
   134   123   124    1
   135   151   149   am
   136   127   124    1
   137   117   118   ar
   138   117   119   ar
   139   114   115    2
   140   118   120   ar
   141   141   142    1
   142   141   138    1
   143   124   125    1
   144   119   121   ar
   145   148   149    1
   146   148   145    1
   147   149   150    2
   148   139   140    2
   149   139   138    1
   150   120   122   ar
   151   138   137    1
   152   125   126    2
   153   121   122   ar
   154   146   145    1
   155   146   147    2
   156   145   144    1
