@<TRIPOS>MOLECULE
tmp/2xi3A02.pdb
 80 74 0 0 0
SMALL
GASTEIGER

@<TRIPOS>ATOM
      1  N         11.8820   14.8690   -8.1770 N.3    66  ASP66      -0.1239
      2  CA        13.1000   15.6630   -8.0470 C.3    66  ASP66       0.1674
      3  C         14.0270   15.0640   -6.9830 C.2    66  ASP66       0.2266
      4  O         15.2290   14.9340   -7.2030 O.2    66  ASP66      -0.2867
      5  CB        12.7970   17.1220   -7.6740 C.3    66  ASP66       0.1410
      6  CG        12.1660   17.9130   -8.8090 C.2    66  ASP66       0.3668
      7  OD1       12.1940   17.4550   -9.9730 O.co2  66  ASP66      -0.2456
      8  OD2       11.6390   19.0110   -8.5230 O.co2  66  ASP66      -0.2456
      9  N         15.6310   11.8100   -8.1580 N.3    69  LYS69      -0.1231
     10  CA        16.7580   12.0570   -9.0640 C.3    69  LYS69       0.1693
     11  C         18.0540   12.3690   -8.3130 C.2    69  LYS69       0.2591
     12  O         19.1240   11.9210   -8.7130 O.2    69  LYS69      -0.2718
     13  CB        16.4500   13.1800  -10.0630 C.3    69  LYS69       0.0285
     14  CG        15.3920   12.8160  -11.0940 C.3    69  LYS69       0.0035
     15  CD        15.5530   13.6450  -12.3600 C.3    69  LYS69       0.0206
     16  CE        15.8080   15.1120  -12.0480 C.3    69  LYS69       0.1093
     17  NZ        16.0070   15.9270  -13.2860 N.3    69  LYS69      -0.1314
     18  N         17.9470   13.1380   -7.2290 N.am   70  GLU70      -0.1979
     19  CA        19.0930   13.4570   -6.3760 C.3    70  GLU70       0.1602
     20  C         19.6770   12.1950   -5.7530 C.2    70  GLU70       0.2287
     21  O         20.9000   12.0340   -5.6430 O.2    70  GLU70      -0.2864
     22  CB        18.6770   14.4010   -5.2380 C.3    70  GLU70       0.0415
     23  CG        18.1290   15.7400   -5.6660 C.3    70  GLU70       0.1163
     24  CD        17.7160   16.5970   -4.4690 C.2    70  GLU70       0.3649
     25  OE1       17.6560   16.0630   -3.3350 O.co2  70  GLU70      -0.2457
     26  OE2       17.4560   17.7980   -4.6630 O.co2  70  GLU70      -0.2457
     27  N         21.4280   10.0960   -8.2830 N.3    73  ALA73      -0.1231
     28  CA        22.7070   10.7190   -8.6210 C.3    73  ALA73       0.1694
     29  C         23.7550   10.4420   -7.5480 C.2    73  ALA73       0.2591
     30  O         24.8970   10.1020   -7.8560 O.2    73  ALA73      -0.2718
     31  CB        22.5410   12.2220   -8.8330 C.3    73  ALA73       0.0304
     32  N         23.3550   10.5820   -6.2860 N.am   74  ALA74      -0.1980
     33  CA        24.2340   10.2830   -5.1660 C.3    74  ALA74       0.1597
     34  C         24.6740    8.8170   -5.1710 C.2    74  ALA74       0.2287
     35  O         25.8390    8.5060   -4.9150 O.2    74  ALA74      -0.2864
     36  CB        23.5480   10.6290   -3.8360 C.3    74  ALA74       0.0319
     37  N         27.7440    7.2470   -7.1880 N.3    77  LYS77      -0.1245
     38  CA        29.1190    7.4110   -6.7040 C.3    77  LYS77       0.1561
     39  C         29.5910    6.2540   -5.8370 C.2    77  LYS77       0.2260
     40  O         30.7650    6.1730   -5.4670 O.2    77  LYS77      -0.2867
     41  CB        29.2390    8.7180   -5.9200 C.3    77  LYS77       0.0271
     42  CG        28.8280    9.9340   -6.7400 C.3    77  LYS77       0.0035
     43  CD        28.6870   11.1760   -5.8820 C.3    77  LYS77       0.0206
     44  CE        28.0430   12.2980   -6.6770 C.3    77  LYS77       0.1093
     45  NZ        27.7630   13.4880   -5.8320 N.3    77  LYS77      -0.1314
     46  N         25.8930    7.6260    1.6510 N.3   185  ALA185     -0.1231
     47  CA        26.2290    8.3000    0.3940 C.3   185  ALA185      0.1694
     48  C         25.0660    9.1490   -0.0980 C.2   185  ALA185      0.2591
     49  O         25.2680   10.2260   -0.6650 O.2   185  ALA185     -0.2718
     50  CB        26.6370    7.2850   -0.6790 C.3   185  ALA185      0.0304
     51  N         23.8500    8.6550    0.1160 N.am  186  VAL186     -0.1980
     52  CA        22.6440    9.2790   -0.4220 C.3   186  VAL186      0.1595
     53  C         22.1980   10.4710    0.4090 C.2   186  VAL186      0.2287
     54  O         21.8570   11.5160   -0.1310 O.2   186  VAL186     -0.2864
     55  CB        21.4780    8.2680   -0.4700 C.3   186  VAL186      0.0276
     56  CG1       20.1340    8.9830   -0.6180 C.3   186  VAL186      0.0022
     57  CG2       21.6930    7.2750   -1.6160 C.3   186  VAL186      0.0022
     58  N         13.4170    8.9110    3.8590 N.3   296  TYR296     -0.1241
     59  CA        14.1440   10.1150    3.4550 C.3   296  TYR296      0.1605
     60  C         13.5720   10.7400    2.1780 C.2   296  TYR296      0.2264
     61  O         13.3750   11.9600    2.0960 O.2   296  TYR296     -0.2867
     62  CB        15.6170    9.7890    3.2610 C.3   296  TYR296      0.0534
     63  CG        16.4230   10.9230    2.6580 C.ar  296  TYR296     -0.0201
     64  CD1       16.8390   11.9860    3.4370 C.ar  296  TYR296     -0.0009
     65  CD2       16.7710   10.9170    1.3130 C.ar  296  TYR296     -0.0009
     66  CE1       17.5850   13.0280    2.8880 C.ar  296  TYR296      0.0417
     67  CE2       17.5240   11.9530    0.7550 C.ar  296  TYR296      0.0417
     68  CZ        17.9220   13.0010    1.5540 C.ar  296  TYR296      0.1957
     69  OH        18.6720   14.0320    1.0220 O.3   296  TYR296     -0.2866
     70  N         11.8240   14.3010    2.4750 N.3   300  ARG300     -0.1245
     71  CA        12.5140   15.4380    1.8720 C.3   300  ARG300      0.1563
     72  C         11.5960   16.1240    0.8660 C.2   300  ARG300      0.2260
     73  O         11.5190   17.3540    0.8210 O.2   300  ARG300     -0.2867
     74  CB        13.8140   14.9770    1.2130 C.3   300  ARG300      0.0307
     75  CG        14.6480   16.1020    0.5900 C.3   300  ARG300      0.0489
     76  CD        16.0310   15.5680    0.2550 C.3   300  ARG300      0.2205
     77  NE        16.8020   16.4810   -0.5850 N.pl3 300  ARG300     -0.0865
     78  CZ        17.6110   17.4320   -0.1300 C.cat 300  ARG300      0.5346
     79  NH1       17.7730   17.6230    1.1780 N.pl3 300  ARG300      0.1354
     80  NH2       18.2630   18.1970   -0.9940 N.pl3 300  ARG300      0.1354
@<TRIPOS>BOND
     1    17    16    1
     2    15    16    1
     3    15    14    1
     4    14    13    1
     5    13    10    1
     6     7     6   ar
     7    10    11    1
     8    10     9    1
     9    31    28    1
    10     6     8   ar
    11     6     5    1
    12    12    11    2
    13    28    27    1
    14    28    29    1
    15    11    18   am
    16     1     2    1
    17     2     5    1
    18     2     3    1
    19    30    29    2
    20    29    32   am
    21    18    19    1
    22     4     3    2
    23    37    38    1
    24    42    41    1
    25    42    43    1
    26    38    41    1
    27    38    39    1
    28    44    43    1
    29    44    45    1
    30    19    20    1
    31    19    22    1
    32    32    33    1
    33    39    40    2
    34    20    21    2
    35    23    22    1
    36    23    24    1
    37    34    33    1
    38    34    35    2
    39    33    36    1
    40    26    24   ar
    41    24    25   ar
    42    57    55    1
    43    80    78    1
    44    50    47    1
    45    49    48    2
    46    56    55    1
    47    77    78    2
    48    77    76    1
    49    55    52    1
    50    52    51    1
    51    52    53    1
    52    54    53    2
    53    78    79    1
    54    48    51   am
    55    48    47    1
    56    76    75    1
    57    47    46    1
    58    75    74    1
    59    67    65   ar
    60    67    68   ar
    61    73    72    2
    62    72    71    1
    63    69    68    1
    64    74    71    1
    65    65    63   ar
    66    68    66   ar
    67    71    70    1
    68    61    60    2
    69    60    59    1
    70    63    62    1
    71    63    64   ar
    72    66    64   ar
    73    62    59    1
    74    59    58    1
