@<TRIPOS>MOLECULE
tmp/2xi3B01.pdb
 150 134 0 0 0
SMALL
GASTEIGER

@<TRIPOS>ATOM
      1  N         48.1010   33.9950  -11.7020 N.3   141  LYS141     -0.1245
      2  CA        46.9150   34.1640  -12.5290 C.3   141  LYS141      0.1561
      3  C         47.2960   34.1420  -14.0040 C.2   141  LYS141      0.2260
      4  O         48.3600   34.6210  -14.3790 O.2   141  LYS141     -0.2867
      5  CB        46.1980   35.4650  -12.1820 C.3   141  LYS141      0.0271
      6  CG        45.5580   35.4280  -10.7980 C.3   141  LYS141      0.0035
      7  CD        44.3900   36.3910  -10.6720 C.3   141  LYS141      0.0206
      8  CE        44.8400   37.8350  -10.7490 C.3   141  LYS141      0.1093
      9  NZ        43.6970   38.7680  -10.4960 N.3   141  LYS141     -0.1314
     10  N         46.2230   35.7920  -17.1600 N.3   143  GLU143     -0.1245
     11  CA        45.4210   36.8900  -17.6780 C.3   143  GLU143      0.1567
     12  C         46.0440   37.4190  -18.9630 C.2   143  GLU143      0.2260
     13  O         47.2700   37.4280  -19.1230 O.2   143  GLU143     -0.2867
     14  CB        45.2860   38.0050  -16.6280 C.3   143  GLU143      0.0388
     15  CG        44.6170   37.5140  -15.3470 C.3   143  GLU143      0.1160
     16  CD        44.5850   38.5560  -14.2360 C.2   143  GLU143      0.3649
     17  OE1       45.6570   39.0730  -13.8560 O.co2 143  GLU143     -0.2457
     18  OE2       43.4810   38.8470  -13.7290 O.co2 143  GLU143     -0.2457
     19  N         46.8460   40.1470  -21.9670 N.3   145  PHE145     -0.1241
     20  CA        47.1230   41.5600  -22.2210 C.3   145  PHE145      0.1605
     21  C         47.7040   41.7440  -23.6110 C.2   145  PHE145      0.2264
     22  O         48.0040   40.7710  -24.3050 O.2   145  PHE145     -0.2867
     23  CB        48.1240   42.1120  -21.2010 C.3   145  PHE145      0.0534
     24  CG        47.6640   42.0070  -19.7800 C.ar  145  PHE145     -0.0203
     25  CD1       46.8560   42.9870  -19.2270 C.ar  145  PHE145     -0.0042
     26  CD2       48.0400   40.9320  -18.9960 C.ar  145  PHE145     -0.0042
     27  CE1       46.4260   42.8930  -17.9090 C.ar  145  PHE145     -0.0003
     28  CE2       47.6090   40.8230  -17.6760 C.ar  145  PHE145     -0.0003
     29  CZ        46.8010   41.8080  -17.1360 C.ar  145  PHE145     -0.0000
     30  N         53.8230   42.2120  -18.7790 N.3   155  LYS155     -0.1245
     31  CA        53.5910   42.2780  -17.3380 C.3   155  LYS155      0.1561
     32  C         53.8320   40.9090  -16.7230 C.2   155  LYS155      0.2260
     33  O         53.4420   39.8980  -17.3110 O.2   155  LYS155     -0.2867
     34  CB        52.1320   42.6430  -17.0470 C.3   155  LYS155      0.0271
     35  CG        51.6430   43.9620  -17.6170 C.3   155  LYS155      0.0035
     36  CD        50.1450   44.1160  -17.3570 C.3   155  LYS155      0.0206
     37  CE        49.6190   45.4340  -17.8980 C.3   155  LYS155      0.1093
     38  NZ        48.1500   45.5820  -17.6840 N.3   155  LYS155     -0.1314
     39  N         50.0140   38.2740  -11.9920 N.3   158  ARG158     -0.1245
     40  CA        49.5740   38.5970  -10.6500 C.3   158  ARG158      0.1563
     41  C         49.4870   37.2950   -9.8810 C.2   158  ARG158      0.2260
     42  O         49.2640   36.2270  -10.4680 O.2   158  ARG158     -0.2867
     43  CB        48.2080   39.2700  -10.6690 C.3   158  ARG158      0.0307
     44  CG        48.2130   40.6480  -11.2990 C.3   158  ARG158      0.0489
     45  CD        46.7890   41.1760  -11.3700 C.3   158  ARG158      0.2205
     46  NE        46.7480   42.5390  -11.8790 N.pl3 158  ARG158     -0.0865
     47  CZ        46.1070   42.9040  -12.9840 C.cat 158  ARG158      0.5346
     48  NH1       45.4440   42.0060  -13.6970 N.pl3 158  ARG158      0.1354
     49  NH2       46.1300   44.1740  -13.3720 N.pl3 158  ARG158      0.1354
     50  N         47.6300   35.0080   -6.9170 N.3   160  ILE160     -0.1245
     51  CA        46.4140   34.8810   -6.1250 C.3   160  ILE160      0.1561
     52  C         46.6940   33.9370   -4.9540 C.2   160  ILE160      0.2260
     53  O         47.3850   32.9410   -5.1160 O.2   160  ILE160     -0.2867
     54  CB        45.2050   34.4080   -6.9660 C.3   160  ILE160      0.0252
     55  CG1       43.9100   34.5460   -6.1480 C.3   160  ILE160      0.0019
     56  CG2       45.4050   32.9980   -7.4800 C.3   160  ILE160      0.0019
     57  CD1       42.6600   34.1470   -6.9080 C.3   160  ILE160      0.0001
     58  N         47.4380   45.3770   -2.0240 N.3   225  ASP225     -0.1239
     59  CA        47.2950   44.2380   -1.1150 C.3   225  ASP225      0.1674
     60  C         48.5100   44.0900   -0.1930 C.2   225  ASP225      0.2266
     61  O         48.3680   43.7230    0.9800 O.2   225  ASP225     -0.2867
     62  CB        47.0830   42.9180   -1.8800 C.3   225  ASP225      0.1410
     63  CG        45.7600   42.8650   -2.6240 C.2   225  ASP225      0.3668
     64  OD1       44.8590   43.6620   -2.3170 O.co2 225  ASP225     -0.2456
     65  OD2       45.6220   42.0080   -3.5210 O.co2 225  ASP225     -0.2456
     66  N         44.6900   37.9010   -1.5950 N.3   282  SER282     -0.1217
     67  CA        43.9640   38.4190   -2.7570 C.3   282  SER282      0.1889
     68  C         42.7720   37.5600   -3.1520 C.2   282  SER282      0.2288
     69  O         41.9400   37.9590   -3.9690 O.2   282  SER282     -0.2866
     70  CB        44.9260   38.5140   -3.9390 C.3   282  SER282      0.2089
     71  OG        45.7110   37.3350   -4.0050 O.3   282  SER282     -0.2183
     72  N         38.4060   40.2270    0.5400 N.3   287  THR287     -0.1203
     73  CA        39.3730   41.0370   -0.2150 C.3   287  THR287      0.1994
     74  C         38.7830   42.3810   -0.6530 C.2   287  THR287      0.2618
     75  O         39.3810   43.4320   -0.3990 O.2   287  THR287     -0.2717
     76  CB        39.9550   40.2710   -1.4190 C.3   287  THR287      0.1784
     77  OG1       40.5920   39.0750   -0.9450 O.3   287  THR287     -0.2211
     78  CG2       40.9860   41.1450   -2.1610 C.3   287  THR287      0.0376
     79  N         37.6050   42.3610   -1.2800 N.am  288  SER288     -0.1951
     80  CA        37.0350   43.6070   -1.8040 C.3   288  SER288      0.1924
     81  C         36.5700   44.5300   -0.6810 C.2   288  SER288      0.2314
     82  O         36.8960   45.7260   -0.6600 O.2   288  SER288     -0.2863
     83  CB        35.8680   43.3070   -2.7510 C.3   288  SER288      0.2116
     84  OG        35.4010   44.5010   -3.3520 O.3   288  SER288     -0.2180
     85  N         39.5740   45.8090    1.2960 N.3   291  ASN291     -0.1240
     86  CA        40.3500   46.8040    0.5530 C.3   291  ASN291      0.1653
     87  C         39.5960   48.1180    0.4390 C.2   291  ASN291      0.2266
     88  O         40.1890   49.1920    0.5720 O.2   291  ASN291     -0.2867
     89  CB        40.7480   46.2950   -0.8280 C.3   291  ASN291      0.1155
     90  CG        41.9500   45.3720   -0.7750 C.2   291  ASN291      0.2627
     91  OD1       42.6090   45.2620    0.2590 O.2   291  ASN291     -0.2716
     92  ND2       42.2640   44.7430   -1.8950 N.am  291  ASN291     -0.0877
     93  N         40.0140   52.0700  -14.4650 N.3   367  SER367     -0.1217
     94  CA        40.4410   51.9920  -15.8590 C.3   367  SER367      0.1889
     95  C         39.4280   52.5820  -16.8330 C.2   367  SER367      0.2288
     96  O         39.5190   52.3560  -18.0360 O.2   367  SER367     -0.2866
     97  CB        40.7580   50.5470  -16.2450 C.3   367  SER367      0.2089
     98  OG        41.8950   50.0750  -15.5470 O.3   367  SER367     -0.2183
     99  N         36.4000   53.2780  -21.9020 N.3   386  ARG386     -0.1245
    100  CA        37.7550   52.9140  -21.5240 C.3   386  ARG386      0.1563
    101  C         38.5510   52.6190  -22.7840 C.2   386  ARG386      0.2260
    102  O         37.9750   52.4690  -23.8620 O.2   386  ARG386     -0.2867
    103  CB        37.7610   51.6960  -20.5910 C.3   386  ARG386      0.0307
    104  CG        37.1750   50.4040  -21.2010 C.3   386  ARG386      0.0489
    105  CD        37.6690   49.1930  -20.4320 C.3   386  ARG386      0.2205
    106  NE        39.1050   49.0320  -20.6150 N.pl3 386  ARG386     -0.0865
    107  CZ        39.9220   48.4490  -19.7510 C.cat 386  ARG386      0.5346
    108  NH1       39.4620   47.9760  -18.5950 N.pl3 386  ARG386      0.1354
    109  NH2       41.2110   48.3660  -20.0380 N.pl3 386  ARG386      0.1354
    110  N         42.7260   46.0930  -23.8810 N.3   390  THR390     -0.1218
    111  CA        42.6390   44.8680  -23.0890 C.3   390  THR390      0.1862
    112  C         41.3390   44.1010  -23.3710 C.2   390  THR390      0.2287
    113  O         41.3780   42.8800  -23.5770 O.2   390  THR390     -0.2866
    114  CB        42.8920   45.1390  -21.5790 C.3   390  THR390      0.1770
    115  OG1       44.1850   45.7400  -21.4320 O.3   390  THR390     -0.2211
    116  CG2       42.8520   43.8530  -20.7870 C.3   390  THR390      0.0375
    117  N         41.5750   40.2480  -24.8800 N.3   394  ARG394     -0.1245
    118  CA        40.9080   39.1520  -24.1860 C.3   394  ARG394      0.1563
    119  C         39.8140   38.5260  -25.0430 C.2   394  ARG394      0.2260
    120  O         39.6210   37.3100  -25.0190 O.2   394  ARG394     -0.2867
    121  CB        40.3670   39.6210  -22.8390 C.3   394  ARG394      0.0307
    122  CG        41.5120   39.8980  -21.8790 C.3   394  ARG394      0.0489
    123  CD        41.0920   40.4560  -20.5260 C.3   394  ARG394      0.2205
    124  NE        42.3100   40.7310  -19.7840 N.pl3 394  ARG394     -0.0865
    125  CZ        42.3710   41.2790  -18.5790 C.cat 394  ARG394      0.5346
    126  NH1       41.2630   41.6360  -17.9440 N.pl3 394  ARG394      0.1354
    127  NH2       43.5570   41.4760  -18.0190 N.pl3 394  ARG394      0.1354
    128  N         31.7240   37.9260  -15.4060 N.3   446  GLU446     -0.1245
    129  CA        31.8640   38.5310  -14.0980 C.3   446  GLU446      0.1567
    130  C         31.4280   39.9860  -14.1180 C.2   446  GLU446      0.2260
    131  O         31.6890   40.7200  -15.0760 O.2   446  GLU446     -0.2867
    132  CB        33.3040   38.4030  -13.5960 C.3   446  GLU446      0.0388
    133  CG        33.6430   37.0070  -13.1050 C.3   446  GLU446      0.1160
    134  CD        35.1210   36.8160  -12.8420 C.2   446  GLU446      0.3649
    135  OE1       35.9010   37.7390  -13.1520 O.co2 446  GLU446     -0.2457
    136  OE2       35.4990   35.7380  -12.3310 O.co2 446  GLU446     -0.2457
    137  N         33.4290   41.3170  -10.0090 N.3   449  GLY449     -0.1225
    138  CA        34.0450   40.1500   -9.3990 C.3   449  GLY449      0.1811
    139  C         33.1490   38.9470   -9.1720 C.2   449  GLY449      0.2280
    140  O         33.6500   37.8460   -8.9330 O.2   449  GLY449     -0.2866
    141  N         35.4870   40.7700   -5.9460 N.3   556  SER556     -0.1202
    142  CA        36.6950   40.2790   -6.6030 C.3   556  SER556      0.2020
    143  C         37.5620   39.4640   -5.6490 C.2   556  SER556      0.2619
    144  O         37.8870   39.9040   -4.5410 O.2   556  SER556     -0.2717
    145  CB        37.4990   41.4190   -7.2240 C.3   556  SER556      0.2103
    146  OG        36.9470   41.7870   -8.4820 O.3   556  SER556     -0.2182
    147  N         37.9360   38.2770   -6.1100 N.am  557  GLY557     -0.1956
    148  CA        38.7000   37.3360   -5.3190 C.3   557  GLY557      0.1869
    149  C         37.8430   36.4770   -4.4070 C.2   557  GLY557      0.2309
    150  O         38.3450   35.5240   -3.8260 O.2   557  GLY557     -0.2863
@<TRIPOS>BOND
     1   119   120    2
     2   119   118    1
     3   117   118    1
     4    22    21    2
     5   118   121    1
     6   110   111    1
     7   102   101    2
     8    21    20    1
     9   113   112    2
    10   112   111    1
    11   111   114    1
    12   121   122    1
    13   101   100    1
    14    20    19    1
    15    20    23    1
    16    99   100    1
    17   122   123    1
    18   114   115    1
    19   114   116    1
    20   100   103    1
    21   104   103    1
    22   104   105    1
    23    23    24    1
    24   106   105    1
    25   106   107    2
    26   123   124    1
    27   109   107    1
    28   124   125    2
    29    24    25   ar
    30    24    26   ar
    31   107   108    1
    32    25    27   ar
    33    13    12    2
    34    26    28   ar
    35    12    11    1
    36    30    31    1
    37   125   127    1
    38   125   126    1
    39    96    95    2
    40    27    29   ar
    41    37    38    1
    42    37    36    1
    43    11    10    1
    44    11    14    1
    45    28    29   ar
    46    35    36    1
    47    35    34    1
    48    31    34    1
    49    31    32    1
    50    33    32    2
    51    95    94    1
    52    14    15    1
    53    97    94    1
    54    97    98    1
    55    94    93    1
    56   128   129    1
    57    15    16    1
    58   131   130    2
    59     4     3    2
    60    16    17   ar
    61    16    18   ar
    62   130   129    1
    63   129   132    1
    64     3     2    1
    65    48    47    1
    66   132   133    1
    67    49    47    1
    68   135   134   ar
    69   133   134    1
    70    47    46    2
    71   134   136   ar
    72     2     5    1
    73     2     1    1
    74     5     6    1
    75    39    40    1
    76    46    45    1
    77    45    44    1
    78    44    43    1
    79     6     7    1
    80     8     7    1
    81     8     9    1
    82    43    40    1
    83    40    41    1
    84    42    41    2
    85   137   138    1
    86   138   139    1
    87   139   140    2
    88   146   145    1
    89    56    54    1
    90   145   142    1
    91    54    55    1
    92    54    51    1
    93    50    51    1
    94    57    55    1
    95   142   141    1
    96   142   143    1
    97    51    52    1
    98   147   143   am
    99   147   148    1
   100   143   144    2
   101   148   149    1
   102    53    52    2
   103   149   150    2
   104    71    70    1
   105    69    68    2
   106    70    67    1
   107    65    63   ar
   108    84    83    1
   109    68    67    1
   110    67    66    1
   111    83    80    1
   112    63    64   ar
   113    63    62    1
   114    78    76    1
   115    58    59    1
   116    92    90   am
   117    62    59    1
   118    80    79    1
   119    80    81    1
   120    76    77    1
   121    76    73    1
   122    79    74   am
   123    59    60    1
   124    89    90    1
   125    89    86    1
   126    90    91    2
   127    81    82    2
   128    74    75    2
   129    74    73    1
   130    73    72    1
   131    60    61    2
   132    87    86    1
   133    87    88    2
   134    86    85    1
