@<TRIPOS>MOLECULE
tmp/2xi4B00.pdb
 150 151 0 0 0
SMALL
GASTEIGER

@<TRIPOS>ATOM
      1  N         85.6880   57.5430   89.6660 N.3    67  TYR67      -0.1241
      2  CA        84.4530   57.0380   89.1050 C.3    67  TYR67       0.1605
      3  C         84.3680   55.5180   89.3410 C.2    67  TYR67       0.2264
      4  O         85.3520   54.8110   89.1280 O.2    67  TYR67      -0.2867
      5  CB        84.4560   57.3190   87.5940 C.3    67  TYR67       0.0534
      6  CG        83.2820   56.7130   86.8760 C.ar   67  TYR67      -0.0201
      7  CD1       83.3550   55.4220   86.3480 C.ar   67  TYR67      -0.0009
      8  CD2       82.1260   57.4220   86.7080 C.ar   67  TYR67      -0.0009
      9  CE1       82.2710   54.8490   85.6960 C.ar   67  TYR67       0.0417
     10  CE2       81.0260   56.8720   86.0520 C.ar   67  TYR67       0.0417
     11  CZ        81.1110   55.5950   85.5470 C.ar   67  TYR67       0.1957
     12  OH        80.0190   55.0630   84.9130 O.3    67  TYR67      -0.2866
     13  N         82.3200   51.9920   88.3390 N.3    69  ASP69      -0.1239
     14  CA        81.4820   51.4690   87.2800 C.3    69  ASP69       0.1674
     15  C         80.3610   50.6090   87.8300 C.2    69  ASP69       0.2266
     16  O         80.6140   49.6170   88.4700 O.2    69  ASP69      -0.2867
     17  CB        82.3090   50.6540   86.2870 C.3    69  ASP69       0.1410
     18  CG        81.4310   49.9010   85.3160 C.2    69  ASP69       0.3668
     19  OD1       80.3470   50.4470   84.9580 O.co2  69  ASP69      -0.2456
     20  OD2       81.7970   48.7630   84.9370 O.co2  69  ASP69      -0.2456
     21  N         91.5420   57.5240   84.8000 N.3   118  TYR118     -0.1241
     22  CA        90.3700   57.9950   85.5740 C.3   118  TYR118      0.1605
     23  C         89.9620   57.0310   86.7230 C.2   118  TYR118      0.2264
     24  O         89.0250   57.3120   87.5050 O.2   118  TYR118     -0.2867
     25  CB        89.1840   58.2320   84.6290 C.3   118  TYR118      0.0534
     26  CG        88.4860   56.9490   84.1540 C.ar  118  TYR118     -0.0201
     27  CD1       87.4200   56.3970   84.8770 C.ar  118  TYR118     -0.0009
     28  CD2       88.8970   56.2950   83.0090 C.ar  118  TYR118     -0.0009
     29  CE1       86.7990   55.2190   84.4840 C.ar  118  TYR118      0.0417
     30  CE2       88.2800   55.0840   82.6000 C.ar  118  TYR118      0.0417
     31  CZ        87.2380   54.5780   83.3400 C.ar  118  TYR118      0.1957
     32  OH        86.6150   53.4450   82.9200 O.3   118  TYR118     -0.2866
     33  N         82.7360   63.3430   83.2970 N.3   276  TRP276     -0.1241
     34  CA        82.5970   62.9350   81.9030 C.3   276  TRP276      0.1605
     35  C         82.0470   64.0440   81.0350 C.2   276  TRP276      0.2264
     36  O         82.1440   63.9720   79.8080 O.2   276  TRP276     -0.2867
     37  CB        81.7240   61.6780   81.7840 C.3   276  TRP276      0.0550
     38  CG        82.3640   60.5310   82.4910 C.ar  276  TRP276      0.0003
     39  CD1       82.1440   60.1370   83.7840 C.ar  276  TRP276      0.0946
     40  CD2       83.3770   59.6670   81.9660 C.ar  276  TRP276      0.0152
     41  NE1       82.9480   59.0640   84.0870 N.ar  276  TRP276     -0.2442
     42  CE2       83.7110   58.7490   82.9890 C.ar  276  TRP276      0.0810
     43  CE3       84.0270   59.5660   80.7250 C.ar  276  TRP276      0.0012
     44  CZ2       84.6660   57.7320   82.8090 C.ar  276  TRP276      0.0191
     45  CZ3       85.0100   58.5570   80.5550 C.ar  276  TRP276      0.0001
     46  CH2       85.3010   57.6550   81.5930 C.ar  276  TRP276      0.0015
     47  N         84.4150   66.2700   78.1900 N.3   279  LEU279     -0.1245
     48  CA        84.9220   65.6970   76.9310 C.3   279  LEU279      0.1561
     49  C         84.3850   66.4760   75.7490 C.2   279  LEU279      0.2260
     50  O         83.2090   66.8060   75.7190 O.2   279  LEU279     -0.2867
     51  CB        84.6120   64.1810   76.7880 C.3   279  LEU279      0.0270
     52  CG        85.4960   63.2530   77.6340 C.3   279  LEU279      0.0019
     53  CD1       84.9360   61.8470   77.6890 C.3   279  LEU279      0.0001
     54  CD2       86.9730   63.2510   77.1220 C.3   279  LEU279      0.0001
     55  N         83.7050   65.6360   72.6680 N.3   281  PHE281     -0.1241
     56  CA        82.7760   64.9460   71.7580 C.3   281  PHE281      0.1605
     57  C         82.0870   63.7390   72.4150 C.2   281  PHE281      0.2264
     58  O         82.5700   63.2200   73.4190 O.2   281  PHE281     -0.2867
     59  CB        83.5200   64.4150   70.5070 C.3   281  PHE281      0.0534
     60  CG        84.5680   65.3470   69.9420 C.ar  281  PHE281     -0.0203
     61  CD1       84.1990   66.4690   69.1760 C.ar  281  PHE281     -0.0042
     62  CD2       85.9310   65.0800   70.1370 C.ar  281  PHE281     -0.0042
     63  CE1       85.1760   67.3370   68.6360 C.ar  281  PHE281     -0.0003
     64  CE2       86.9320   65.9400   69.6000 C.ar  281  PHE281     -0.0003
     65  CZ        86.5500   67.0620   68.8480 C.ar  281  PHE281     -0.0000
     66  N         81.9300   60.2040   72.5390 N.3   283  SER283     -0.1202
     67  CA        83.0150   59.3280   72.1240 C.3   283  SER283      0.2020
     68  C         83.0720   57.9860   72.8360 C.2   283  SER283      0.2619
     69  O         82.3370   57.7480   73.7910 O.2   283  SER283     -0.2717
     70  CB        84.3320   60.0450   72.3220 C.3   283  SER283      0.2103
     71  OG        84.5100   60.2590   73.7050 O.3   283  SER283     -0.2182
     72  N         83.9920   57.1550   72.3440 N.am  284  ILE284     -0.1965
     73  CA        84.3410   55.8110   72.8090 C.3   284  ILE284      0.1727
     74  C         85.8500   55.8490   73.1090 C.2   284  ILE284      0.2616
     75  O         86.6120   56.4380   72.3420 O.2   284  ILE284     -0.2715
     76  CB        83.9980   54.7970   71.6450 C.3   284  ILE284      0.0290
     77  CG1       82.5260   54.4690   71.6860 C.3   284  ILE284      0.0022
     78  CG2       84.7420   53.4720   71.7040 C.3   284  ILE284      0.0023
     79  CD1       81.9530   54.6210   73.0820 C.3   284  ILE284      0.0001
     80  N         86.2890   55.2450   74.2080 N.am  285  PHE285     -0.1960
     81  CA        87.7270   55.1450   74.5430 C.3   285  PHE285      0.1771
     82  C         88.3850   56.5230   74.6940 C.2   285  PHE285      0.2619
     83  O         89.5140   56.7450   74.1990 O.2   285  PHE285     -0.2715
     84  CB        88.4950   54.3600   73.4480 C.3   285  PHE285      0.0574
     85  CG        89.5710   53.4580   73.9700 C.ar  285  PHE285     -0.0200
     86  CD1       90.4980   53.9080   74.8960 C.ar  285  PHE285     -0.0042
     87  CD2       89.6330   52.1160   73.5330 C.ar  285  PHE285     -0.0042
     88  CE1       91.4990   53.0720   75.3860 C.ar  285  PHE285     -0.0003
     89  CE2       90.6120   51.2700   73.9990 C.ar  285  PHE285     -0.0003
     90  CZ        91.5630   51.7360   74.9440 C.ar  285  PHE285     -0.0000
     91  N         87.6730   57.4610   75.3090 N.am  286  ARG286     -0.1963
     92  CA        88.2390   58.7720   75.6230 C.3   286  ARG286      0.1729
     93  C         87.9810   59.1280   77.0960 C.2   286  ARG286      0.2616
     94  O         86.8920   58.9110   77.6250 O.2   286  ARG286     -0.2715
     95  CB        87.6880   59.8700   74.6960 C.3   286  ARG286      0.0348
     96  CG        88.1030   59.7720   73.2180 C.3   286  ARG286      0.0492
     97  CD        89.6210   59.8270   73.0510 C.3   286  ARG286      0.2205
     98  NE        89.9680   59.8850   71.6360 N.pl3 286  ARG286     -0.0865
     99  CZ        90.3370   58.8430   70.9030 C.cat 286  ARG286      0.5346
    100  NH1       90.4230   57.6230   71.4540 N.pl3 286  ARG286      0.1354
    101  NH2       90.6130   59.0300   69.6100 N.pl3 286  ARG286      0.1354
    102  N         89.0050   59.6490   77.7510 N.am  287  PHE287     -0.1974
    103  CA        88.9600   59.8940   79.1940 C.3   287  PHE287      0.1639
    104  C         89.2930   61.3690   79.4860 C.2   287  PHE287      0.2290
    105  O         90.0960   62.0020   78.7950 O.2   287  PHE287     -0.2864
    106  CB        89.8890   58.9260   79.8830 C.3   287  PHE287      0.0560
    107  CG        89.7790   57.5230   79.3440 C.ar  287  PHE287     -0.0200
    108  CD1       88.6150   56.7810   79.5460 C.ar  287  PHE287     -0.0042
    109  CD2       90.8060   56.9620   78.5860 C.ar  287  PHE287     -0.0042
    110  CE1       88.4740   55.4960   79.0340 C.ar  287  PHE287     -0.0003
    111  CE2       90.6790   55.6410   78.0750 C.ar  287  PHE287     -0.0003
    112  CZ        89.5200   54.9170   78.3020 C.ar  287  PHE287     -0.0000
    113  N         85.6010   45.8250   75.0190 N.3   327  PHE327     -0.1227
    114  CA        85.1070   46.3400   76.2690 C.3   327  PHE327      0.1736
    115  C         84.4780   47.7060   76.0850 C.2   327  PHE327      0.2595
    116  O         83.4420   48.0080   76.7040 O.2   327  PHE327     -0.2718
    117  CB        86.2180   46.3960   77.3200 C.3   327  PHE327      0.0547
    118  CG        85.7360   46.8080   78.6540 C.ar  327  PHE327     -0.0202
    119  CD1       85.0940   45.8930   79.4910 C.ar  327  PHE327     -0.0042
    120  CD2       85.8940   48.1330   79.0860 C.ar  327  PHE327     -0.0042
    121  CE1       84.6350   46.2760   80.7530 C.ar  327  PHE327     -0.0003
    122  CE2       85.4270   48.5440   80.3620 C.ar  327  PHE327     -0.0003
    123  CZ        84.8010   47.6070   81.1940 C.ar  327  PHE327     -0.0000
    124  N         85.0750   48.5080   75.2160 N.am  328  PHE328     -0.1976
    125  CA        84.6680   49.9300   75.0410 C.3   328  PHE328      0.1639
    126  C         83.4450   50.1030   74.1800 C.2   328  PHE328      0.2290
    127  O         82.6990   51.0430   74.3740 O.2   328  PHE328     -0.2864
    128  CB        85.8430   50.7860   74.5120 C.3   328  PHE328      0.0560
    129  CG        86.9880   50.7860   75.4480 C.ar  328  PHE328     -0.0200
    130  CD1       87.9490   49.7760   75.3850 C.ar  328  PHE328     -0.0042
    131  CD2       87.0130   51.6910   76.5100 C.ar  328  PHE328     -0.0042
    132  CE1       88.9840   49.7070   76.3410 C.ar  328  PHE328     -0.0003
    133  CE2       88.0390   51.6220   77.4840 C.ar  328  PHE328     -0.0003
    134  CZ        89.0260   50.6380   77.3850 C.ar  328  PHE328     -0.0000
    135  N         80.2750   49.4470   76.2190 N.3   331  TYR331     -0.1227
    136  CA        79.8430   50.4690   77.1650 C.3   331  TYR331      0.1736
    137  C         79.1790   51.6390   76.5190 C.2   331  TYR331      0.2596
    138  O         78.2670   52.2190   77.1060 O.2   331  TYR331     -0.2718
    139  CB        81.0050   50.9140   78.0480 C.3   331  TYR331      0.0548
    140  CG        81.1100   50.0360   79.2680 C.ar  331  TYR331     -0.0200
    141  CD1       81.6040   48.7340   79.1630 C.ar  331  TYR331     -0.0009
    142  CD2       80.6820   50.4860   80.5250 C.ar  331  TYR331     -0.0009
    143  CE1       81.6950   47.9060   80.2710 C.ar  331  TYR331      0.0417
    144  CE2       80.7670   49.6590   81.6460 C.ar  331  TYR331      0.0417
    145  CZ        81.2780   48.3700   81.5080 C.ar  331  TYR331      0.1957
    146  OH        81.3810   47.5160   82.5890 O.3   331  TYR331     -0.2866
    147  N         79.6040   51.9690   75.2990 N.am  332  GLY332     -0.1957
    148  CA        79.1300   53.1850   74.6370 C.3   332  GLY332      0.1869
    149  C         78.6040   53.1420   73.1990 C.2   332  GLY332      0.2309
    150  O         78.0850   54.1440   72.7020 O.2   332  GLY332     -0.2863
@<TRIPOS>BOND
     1    63    65   ar
     2    63    61   ar
     3    65    64   ar
     4    61    60   ar
     5    64    62   ar
     6   101    99    1
     7    60    62   ar
     8    60    59    1
     9    59    56    1
    10    99   100    1
    11    99    98    2
    12    98    97    1
    13    76    77    1
    14    76    78    1
    15    76    73    1
    16    77    79    1
    17    56    57    1
    18    56    55    1
    19    67    70    1
    20    67    66    1
    21    67    68    1
    22    70    71    1
    23    75    74    2
    24    72    73    1
    25    72    68   am
    26    57    58    2
    27   150   149    2
    28    73    74    1
    29    68    69    2
    30    97    96    1
    31    74    80   am
    32   149   148    1
    33    96    95    1
    34    84    85    1
    35    84    81    1
    36    87    85   ar
    37    87    89   ar
    38    85    86   ar
    39    89    90   ar
    40   126   127    2
    41   126   125    1
    42    83    82    2
    43    80    81    1
    44   128   125    1
    45   128   129    1
    46    81    82    1
    47   148   147    1
    48    82    91   am
    49    95    92    1
    50    86    88   ar
    51    90    88   ar
    52   113   114    1
    53   125   124    1
    54   124   115   am
    55   147   137   am
    56    91    92    1
    57   130   129   ar
    58   130   132   ar
    59   129   131   ar
    60    92    93    1
    61    50    49    2
    62    49    48    1
    63   115   114    1
    64   115   116    2
    65   135   136    1
    66   114   117    1
    67   132   134   ar
    68   131   133   ar
    69   137   138    2
    70   137   136    1
    71    51    48    1
    72    51    52    1
    73    48    47    1
    74    93    94    2
    75    93   102   am
    76    54    52    1
    77   136   139    1
    78   117   118    1
    79   134   133   ar
    80    52    53    1
    81   102   103    1
    82   139   140    1
    83   111   112   ar
    84   111   109   ar
    85   112   110   ar
    86   109   107   ar
    87   118   120   ar
    88   118   119   ar
    89   105   104    2
    90   110   108   ar
    91   120   122   ar
    92   141   140   ar
    93   141   143   ar
    94   103   104    1
    95   103   106    1
    96   140   142   ar
    97   107   108   ar
    98   107   106    1
    99   119   121   ar
   100    36    35    2
   101   143   145   ar
   102   122   123   ar
   103   142   144   ar
   104    45    43   ar
   105    45    46   ar
   106    43    40   ar
   107   121   123   ar
   108    35    34    1
   109   145   144   ar
   110   145   146    1
   111    46    44   ar
   112    37    34    1
   113    37    38    1
   114    34    33    1
   115    40    38   ar
   116    40    42   ar
   117    38    39   ar
   118    30    28   ar
   119    30    31   ar
   120    44    42   ar
   121    32    31    1
   122    42    41   ar
   123    28    26   ar
   124    31    29   ar
   125    39    41   ar
   126    26    25    1
   127    26    27   ar
   128    29    27   ar
   129    25    22    1
   130    21    22    1
   131    12    11    1
   132    20    18   ar
   133    19    18   ar
   134    18    17    1
   135    11     9   ar
   136    11    10   ar
   137    22    23    1
   138     9     7   ar
   139    10     8   ar
   140    17    14    1
   141     7     6   ar
   142     8     6   ar
   143    23    24    2
   144     6     5    1
   145    14    15    1
   146    14    13    1
   147     5     2    1
   148    15    16    2
   149     2     3    1
   150     2     1    1
   151     4     3    2
