@<TRIPOS>MOLECULE
tmp/2xibC00.pdb
 152 153 0 0 0
SMALL
GASTEIGER

@<TRIPOS>ATOM
      1  N         10.9820   38.5280   39.9160 N.3    30  PHE30      -0.1241
      2  CA        11.8460   39.4510   39.1670 C.3    30  PHE30       0.1605
      3  C         12.9300   38.5960   38.5030 C.2    30  PHE30       0.2264
      4  O         13.4270   37.6190   39.0980 O.2    30  PHE30      -0.2867
      5  CB        12.5300   40.4240   40.1110 C.3    30  PHE30       0.0534
      6  CG        12.3320   41.8780   39.7810 C.ar   30  PHE30      -0.0203
      7  CD1       11.9380   42.7670   40.7700 C.ar   30  PHE30      -0.0042
      8  CD2       12.5640   42.3640   38.5210 C.ar   30  PHE30      -0.0042
      9  CE1       11.7470   44.1200   40.5020 C.ar   30  PHE30      -0.0003
     10  CE2       12.3640   43.7220   38.2440 C.ar   30  PHE30      -0.0003
     11  CZ        11.9570   44.5990   39.2450 C.ar   30  PHE30      -0.0000
     12  N         16.5720   39.5260   36.9460 N.3    32  HIS32      -0.1241
     13  CA        17.6960   40.3940   36.6230 C.3    32  HIS32       0.1621
     14  C         18.7180   39.5720   35.8560 C.2    32  HIS32       0.2264
     15  O         19.4300   38.7480   36.4490 O.2    32  HIS32      -0.2867
     16  CB        18.3440   40.9740   37.9050 C.3    32  HIS32       0.0745
     17  CG        17.6490   42.1980   38.4350 C.ar   32  HIS32       0.0817
     18  ND1       16.4180   42.1440   39.0490 N.ar   32  HIS32      -0.2268
     19  CD2       18.0190   43.5040   38.4480 C.ar   32  HIS32       0.1154
     20  CE1       16.0540   43.3640   39.4110 C.ar   32  HIS32       0.1986
     21  NE2       17.0120   44.2080   39.0700 N.ar   32  HIS32      -0.2212
     22  N         25.1190   43.4250   39.8740 N.3    53  GLU53      -0.1231
     23  CA        24.6810   44.1960   38.7360 C.3    53  GLU53       0.1699
     24  C         25.2310   45.6200   38.7160 C.2    53  GLU53       0.2592
     25  O         25.0580   46.3390   37.7110 O.2    53  GLU53      -0.2718
     26  CB        23.1320   44.1810   38.6400 C.3    53  GLU53       0.0402
     27  CG        22.3670   45.1480   39.5650 C.3    53  GLU53       0.1161
     28  CD        22.1940   44.6680   41.0070 C.2    53  GLU53       0.3649
     29  OE1       22.6050   43.5440   41.3860 O.co2  53  GLU53      -0.2457
     30  OE2       21.5980   45.4320   41.7720 O.co2  53  GLU53      -0.2457
     31  N         25.8490   46.0490   39.8180 N.am   54  TRP54      -0.1976
     32  CA        26.5020   47.3590   39.8780 C.3    54  TRP54       0.1640
     33  C         28.0410   47.2220   39.8540 C.2    54  TRP54       0.2290
     34  O         28.7480   48.1820   40.1400 O.2    54  TRP54      -0.2864
     35  CB        26.0860   48.1220   41.1560 C.3    54  TRP54       0.0576
     36  CG        24.7600   48.8340   41.1370 C.ar   54  TRP54       0.0006
     37  CD1       23.5200   48.2700   41.2950 C.ar   54  TRP54       0.0946
     38  CD2       24.5400   50.2500   41.0400 C.ar   54  TRP54       0.0152
     39  NE1       22.5480   49.2480   41.2610 N.ar   54  TRP54      -0.2442
     40  CE2       23.1460   50.4670   41.1130 C.ar   54  TRP54       0.0810
     41  CE3       25.3770   51.3470   40.8680 C.ar   54  TRP54       0.0012
     42  CZ2       22.5830   51.7330   41.0220 C.ar   54  TRP54       0.0191
     43  CZ3       24.8210   52.6010   40.7890 C.ar   54  TRP54       0.0001
     44  CH2       23.4320   52.7900   40.8550 C.ar   54  TRP54       0.0015
     45  N         19.1650   46.9350   31.8620 N.3   101  HIS101     -0.1226
     46  CA        19.5540   47.4480   33.1740 C.3   101  HIS101      0.1752
     47  C         20.5120   48.6550   33.0200 C.2   101  HIS101      0.2596
     48  O         20.6970   49.1440   31.9220 O.2   101  HIS101     -0.2718
     49  CB        20.1710   46.3510   34.0590 C.3   101  HIS101      0.0759
     50  CG        19.9850   46.6020   35.5260 C.ar  101  HIS101      0.0818
     51  ND1       20.9220   47.2590   36.2930 N.ar  101  HIS101     -0.2268
     52  CD2       18.9440   46.3390   36.3510 C.ar  101  HIS101      0.1154
     53  CE1       20.4710   47.3860   37.5270 C.ar  101  HIS101      0.1986
     54  NE2       19.2720   46.8320   37.5920 N.ar  101  HIS101     -0.2212
     55  N         21.0920   49.1470   34.1100 N.am  102  HIS102     -0.1975
     56  CA        21.8760   50.3880   34.0490 C.3   102  HIS102      0.1656
     57  C         23.0080   50.2950   33.0020 C.2   102  HIS102      0.2291
     58  O         23.3120   51.2600   32.3260 O.2   102  HIS102     -0.2864
     59  CB        22.4570   50.7600   35.4330 C.3   102  HIS102      0.0771
     60  CG        21.4560   50.7860   36.5580 C.ar  102  HIS102      0.0820
     61  ND1       20.1170   51.0540   36.3720 N.ar  102  HIS102     -0.2267
     62  CD2       21.6230   50.6270   37.8940 C.ar  102  HIS102      0.1154
     63  CE1       19.4970   51.0290   37.5400 C.ar  102  HIS102      0.1986
     64  NE2       20.3900   50.7870   38.4860 N.ar  102  HIS102     -0.2212
     65  N         10.7740   45.4920   33.0760 N.3   144  TYR144     -0.1241
     66  CA        11.6750   46.4030   33.7960 C.3   144  TYR144      0.1605
     67  C         12.4570   47.1830   32.7670 C.2   144  TYR144      0.2264
     68  O         12.9500   46.5850   31.8140 O.2   144  TYR144     -0.2867
     69  CB        12.6440   45.5950   34.6680 C.3   144  TYR144      0.0534
     70  CG        13.7810   46.3740   35.2990 C.ar  144  TYR144     -0.0201
     71  CD1       13.8020   46.6120   36.6700 C.ar  144  TYR144     -0.0009
     72  CD2       14.8310   46.8520   34.5410 C.ar  144  TYR144     -0.0009
     73  CE1       14.8250   47.3100   37.2510 C.ar  144  TYR144      0.0417
     74  CE2       15.8580   47.5770   35.1060 C.ar  144  TYR144      0.0417
     75  CZ        15.8560   47.7910   36.4690 C.ar  144  TYR144      0.1957
     76  OH        16.8730   48.5000   37.0620 O.3   144  TYR144     -0.2866
     77  N          7.9110   48.8830   34.3490 N.3   193  TRP193     -0.1241
     78  CA         8.4450   49.2520   35.6610 C.3   193  TRP193      0.1605
     79  C          9.7650   49.9810   35.4450 C.2   193  TRP193      0.2264
     80  O         10.8130   49.3520   35.1530 O.2   193  TRP193     -0.2867
     81  CB         8.6640   48.0130   36.5040 C.3   193  TRP193      0.0550
     82  CG         8.8260   48.2510   37.9670 C.ar  193  TRP193      0.0003
     83  CD1        7.8200   48.2980   38.8950 C.ar  193  TRP193      0.0946
     84  CD2       10.0500   48.4020   38.7000 C.ar  193  TRP193      0.0152
     85  NE1        8.3340   48.4800   40.1530 N.ar  193  TRP193     -0.2442
     86  CE2        9.7040   48.5220   40.0670 C.ar  193  TRP193      0.0810
     87  CE3       11.4070   48.4230   38.3430 C.ar  193  TRP193      0.0012
     88  CZ2       10.6540   48.7030   41.0610 C.ar  193  TRP193      0.0191
     89  CZ3       12.3450   48.6030   39.3250 C.ar  193  TRP193      0.0001
     90  CH2       11.9710   48.7390   40.6740 C.ar  193  TRP193      0.0015
     91  N         13.0370   52.1050   36.2980 N.3   195  ASP195     -0.1239
     92  CA        14.0460   52.2030   37.3410 C.3   195  ASP195      0.1674
     93  C         15.1250   53.2070   36.9040 C.2   195  ASP195      0.2266
     94  O         15.1460   53.6490   35.7620 O.2   195  ASP195     -0.2867
     95  CB        14.6600   50.8160   37.5860 C.3   195  ASP195      0.1410
     96  CG        15.3980   50.7400   38.8940 C.2   195  ASP195      0.3668
     97  OD1       15.3220   51.7330   39.6550 O.co2 195  ASP195     -0.2456
     98  OD2       16.0560   49.7100   39.1570 O.co2 195  ASP195     -0.2456
     99  N         16.1490   58.4510   39.2610 N.3   198  TRP198     -0.1241
    100  CA        16.3390   59.3480   40.4190 C.3   198  TRP198      0.1605
    101  C         17.2780   60.5290   40.1610 C.2   198  TRP198      0.2264
    102  O         17.2580   61.5150   40.9110 O.2   198  TRP198     -0.2867
    103  CB        16.8440   58.5810   41.6500 C.3   198  TRP198      0.0550
    104  CG        17.9740   57.6840   41.3480 C.ar  198  TRP198      0.0003
    105  CD1       19.2700   58.0370   41.1350 C.ar  198  TRP198      0.0946
    106  CD2       17.9070   56.2710   41.1860 C.ar  198  TRP198      0.0152
    107  NE1       20.0210   56.9270   40.8630 N.ar  198  TRP198     -0.2442
    108  CE2       19.2120   55.8230   40.8930 C.ar  198  TRP198      0.0810
    109  CE3       16.8760   55.3380   41.2690 C.ar  198  TRP198      0.0012
    110  CZ2       19.5140   54.4650   40.6720 C.ar  198  TRP198      0.0191
    111  CZ3       17.1650   54.0010   41.0460 C.ar  198  TRP198      0.0001
    112  CH2       18.4840   53.5710   40.7600 C.ar  198  TRP198      0.0015
    113  N          7.6700   55.0520   40.1470 N.3   228  ARG228     -0.1245
    114  CA         9.1140   55.3870   40.0840 C.3   228  ARG228      0.1563
    115  C          9.5010   56.1590   38.8270 C.2   228  ARG228      0.2260
    116  O         10.4950   56.9020   38.8230 O.2   228  ARG228     -0.2867
    117  CB         9.9610   54.1290   40.2030 C.3   228  ARG228      0.0307
    118  CG        11.3980   54.4080   40.5700 C.3   228  ARG228      0.0489
    119  CD        12.1940   53.1650   40.8110 C.3   228  ARG228      0.2205
    120  NE        11.7160   52.4470   41.9770 N.pl3 228  ARG228     -0.0865
    121  CZ        12.4540   51.6340   42.7080 C.cat 228  ARG228      0.5346
    122  NH1       13.7460   51.4250   42.4180 N.pl3 228  ARG228      0.1354
    123  NH2       11.8900   51.0300   43.7460 N.pl3 228  ARG228      0.1354
    124  N         11.4530   48.6770   48.3160 N.3   254  GLU254     -0.1245
    125  CA        12.4710   47.8680   47.6860 C.3   254  GLU254      0.1567
    126  C         13.3680   47.3420   48.7890 C.2   254  GLU254      0.2260
    127  O         14.1100   48.1070   49.4150 O.2   254  GLU254     -0.2867
    128  CB        13.2440   48.7150   46.6760 C.3   254  GLU254      0.0388
    129  CG        14.2380   47.9250   45.8660 C.3   254  GLU254      0.1160
    130  CD        14.9660   48.7830   44.8450 C.2   254  GLU254      0.3649
    131  OE1       14.3330   49.2160   43.8530 O.co2 254  GLU254     -0.2457
    132  OE2       16.1800   48.9970   45.0340 O.co2 254  GLU254     -0.2457
    133  N          9.3420   44.7850   45.9280 N.3   274  CYS274     -0.1235
    134  CA        10.2440   43.8300   45.3560 C.3   274  CYS274      0.1677
    135  C         11.2630   43.4620   46.4240 C.2   274  CYS274      0.2270
    136  O         11.4730   44.2230   47.3630 O.2   274  CYS274     -0.2867
    137  CB        10.8920   44.3920   44.0930 C.3   274  CYS274      0.0956
    138  SG        11.5140   46.0390   44.2520 S.3   274  CYS274     -0.0801
    139  N         20.7060   41.5110   43.2380 N.3   282  TRP282     -0.1241
    140  CA        19.6780   41.3700   42.2070 C.3   282  TRP282      0.1605
    141  C         20.2260   40.5610   41.0410 C.2   282  TRP282      0.2264
    142  O         19.6840   39.5140   40.6970 O.2   282  TRP282     -0.2867
    143  CB        19.2130   42.7520   41.7340 C.3   282  TRP282      0.0550
    144  CG        18.5890   43.6330   42.8430 C.ar  282  TRP282      0.0003
    145  CD1       19.2240   44.5640   43.6120 C.ar  282  TRP282      0.0946
    146  CD2       17.2350   43.6130   43.2950 C.ar  282  TRP282      0.0152
    147  NE1       18.3540   45.1330   44.4930 N.ar  282  TRP282     -0.2442
    148  CE2       17.1220   44.5680   44.3240 C.ar  282  TRP282      0.0810
    149  CE3       16.0990   42.9040   42.9170 C.ar  282  TRP282      0.0012
    150  CZ2       15.9090   44.8380   44.9720 C.ar  282  TRP282      0.0191
    151  CZ3       14.8900   43.1700   43.5840 C.ar  282  TRP282      0.0001
    152  CH2       14.8190   44.1260   44.5910 C.ar  282  TRP282      0.0015
@<TRIPOS>BOND
     1    68    67    2
     2    45    46    1
     3    48    47    2
     4    58    57    2
     5    67    66    1
     6    57    56    1
     7    47    46    1
     8    47    55   am
     9    65    66    1
    10    46    49    1
    11    66    69    1
    12    56    55    1
    13    56    59    1
    14    49    50    1
    15    77    78    1
    16    72    74   ar
    17    72    70   ar
    18    69    70    1
    19    74    75   ar
    20    80    79    2
    21    70    71   ar
    22    59    60    1
    23    79    78    1
    24    50    51   ar
    25    50    52   ar
    26    78    81    1
    27    94    93    2
    28    14    15    2
    29    14    13    1
    30    51    53   ar
    31    91    92    1
    32    52    54   ar
    33    61    60   ar
    34    61    63   ar
    35    75    76    1
    36    75    73   ar
    37    81    82    1
    38    60    62   ar
    39    13    12    1
    40    13    16    1
    41    71    73   ar
    42    93    92    1
    43    92    95    1
    44    53    54   ar
    45    63    64   ar
    46    95    96    1
    47    25    24    2
    48    62    64   ar
    49    16    17    1
    50    82    84   ar
    51    82    83   ar
    52    10     8   ar
    53    10    11   ar
    54    87    84   ar
    55    87    89   ar
    56    17    19   ar
    57    17    18   ar
    58    19    21   ar
    59     3     4    2
    60     3     2    1
    61     8     6   ar
    62    26    23    1
    63    26    27    1
    64    84    86   ar
    65    24    23    1
    66    24    31   am
    67    23    22    1
    68   116   115    2
    69   115   114    1
    70    96    98   ar
    71    96    97   ar
    72    83    85   ar
    73    18    20   ar
    74    21    20   ar
    75     2     1    1
    76     2     5    1
    77    11     9   ar
    78    99   100    1
    79    89    90   ar
    80    27    28    1
    81     6     5    1
    82     6     7   ar
    83    31    32    1
    84    33    32    1
    85    33    34    2
    86    32    35    1
    87    86    85   ar
    88    86    88   ar
    89   114   113    1
    90   114   117    1
    91   101   100    1
    92   101   102    2
    93   117   118    1
    94   100   103    1
    95     9     7   ar
    96   118   119    1
    97   110   112   ar
    98   110   108   ar
    99    90    88   ar
   100   142   141    2
   101   112   111   ar
   102    43    44   ar
   103    43    41   ar
   104   119   120    1
   105    44    42   ar
   106   107   108   ar
   107   107   105   ar
   108    41    38   ar
   109   108   106   ar
   110    28    29   ar
   111    28    30   ar
   112    42    40   ar
   113    38    40   ar
   114    38    36   ar
   115   141   140    1
   116   111   109   ar
   117    40    39   ar
   118   105   104   ar
   119    36    35    1
   120    36    37   ar
   121   106   109   ar
   122   106   104   ar
   123    39    37   ar
   124   104   103    1
   125   143   140    1
   126   143   144    1
   127   120   121    2
   128   140   139    1
   129   122   121    1
   130   121   123    1
   131   144   146   ar
   132   144   145   ar
   133   149   146   ar
   134   149   151   ar
   135   146   148   ar
   136   151   152   ar
   137   145   147   ar
   138   131   130   ar
   139   137   138    1
   140   137   134    1
   141   148   147   ar
   142   148   150   ar
   143   152   150   ar
   144   130   132   ar
   145   130   129    1
   146   134   133    1
   147   134   135    1
   148   129   128    1
   149   135   136    2
   150   128   125    1
   151   125   124    1
   152   125   126    1
   153   126   127    2
