@<TRIPOS>MOLECULE
tmp/2xiiA01.pdb
 201 201 0 0 0
SMALL
GASTEIGER

@<TRIPOS>ATOM
      1  N        -16.8390   10.4180   25.3270 N.3    30  PHE30      -0.1241
      2  CA       -17.6090    9.8090   26.4030 C.3    30  PHE30       0.1605
      3  C        -16.5720    9.0910   27.3010 C.2    30  PHE30       0.2264
      4  O        -15.6350    8.4380   26.8030 O.2    30  PHE30      -0.2867
      5  CB       -18.5750    8.7480   25.8210 C.3    30  PHE30       0.0534
      6  CG       -19.9750    8.8220   26.3330 C.ar   30  PHE30      -0.0203
      7  CD1      -21.0470    8.6310   25.4490 C.ar   30  PHE30      -0.0042
      8  CD2      -20.2540    9.0620   27.6720 C.ar   30  PHE30      -0.0042
      9  CE1      -22.3400    8.7000   25.8900 C.ar   30  PHE30      -0.0003
     10  CE2      -21.5620    9.1700   28.1200 C.ar   30  PHE30      -0.0003
     11  CZ       -22.6140    8.9650   27.2320 C.ar   30  PHE30      -0.0000
     12  N        -16.8360    6.3280   30.3220 N.3    32  HIS32      -0.1241
     13  CA       -17.5180    5.4290   31.2400 C.3    32  HIS32       0.1621
     14  C        -16.4740    4.8960   32.1880 C.2    32  HIS32       0.2264
     15  O        -15.6220    4.0880   31.7900 O.2    32  HIS32      -0.2867
     16  CB       -18.1770    4.2450   30.5120 C.3    32  HIS32       0.0745
     17  CG       -19.5090    4.5650   29.9020 C.ar   32  HIS32       0.0817
     18  ND1      -19.6440    5.3300   28.7650 N.ar   32  HIS32      -0.2268
     19  CD2      -20.7640    4.1810   30.2500 C.ar   32  HIS32       0.1154
     20  CE1      -20.9290    5.4380   28.4610 C.ar   32  HIS32       0.1986
     21  NE2      -21.6270    4.7160   29.3230 N.ar   32  HIS32      -0.2212
     22  N        -19.8260   -2.8520   31.7240 N.3    53  GLU53      -0.1231
     23  CA       -20.4750   -2.0010   32.7230 C.3    53  GLU53       0.1699
     24  C        -21.7980   -2.5900   33.2270 C.2    53  GLU53       0.2592
     25  O        -22.3340   -2.1360   34.2380 O.2    53  GLU53      -0.2718
     26  CB       -20.6510   -0.5790   32.2050 C.3    53  GLU53       0.0402
     27  CG       -21.7270   -0.3180   31.1480 C.3    53  GLU53       0.1161
     28  CD       -21.4330   -0.8270   29.7290 C.2    53  GLU53       0.3649
     29  OE1      -20.3390   -1.3380   29.4430 O.co2  53  GLU53      -0.2457
     30  OE2      -22.3340   -0.6680   28.8830 O.co2  53  GLU53      -0.2457
     31  N        -22.2660   -3.6310   32.5370 N.am   54  TRP54      -0.1976
     32  CA       -23.4350   -4.4390   32.9420 C.3    54  TRP54       0.1640
     33  C        -23.0540   -5.7750   33.6010 C.2    54  TRP54       0.2290
     34  O        -23.9240   -6.6640   33.7230 O.2    54  TRP54      -0.2864
     35  CB       -24.3160   -4.7390   31.7210 C.3    54  TRP54       0.0576
     36  CG       -25.2290   -3.6130   31.3170 C.ar   54  TRP54       0.0006
     37  CD1      -24.8800   -2.4900   30.6210 C.ar   54  TRP54       0.0946
     38  CD2      -26.6470   -3.5370   31.5130 C.ar   54  TRP54       0.0152
     39  NE1      -25.9840   -1.7000   30.3930 N.ar   54  TRP54      -0.2442
     40  CE2      -27.0830   -2.3110   30.9380 C.ar   54  TRP54       0.0810
     41  CE3      -27.5920   -4.3720   32.1280 C.ar   54  TRP54       0.0012
     42  CZ2      -28.4120   -1.8930   30.9810 C.ar   54  TRP54       0.0191
     43  CZ3      -28.9180   -3.9650   32.1500 C.ar   54  TRP54       0.0001
     44  CH2      -29.3200   -2.7430   31.5720 C.ar   54  TRP54       0.0015
     45  N        -23.1910    5.4890   37.0300 N.3   101  HIS101     -0.1226
     46  CA       -23.7610    4.6000   36.0330 C.3   101  HIS101      0.1752
     47  C        -24.8710    3.7760   36.7130 C.2   101  HIS101      0.2596
     48  O        -25.2770    4.1140   37.8180 O.2   101  HIS101     -0.2718
     49  CB       -22.7030    3.7140   35.3820 C.3   101  HIS101      0.0759
     50  CG       -23.1180    3.2160   34.0360 C.ar  101  HIS101      0.0818
     51  ND1      -23.6800    1.9700   33.8430 N.ar  101  HIS101     -0.2268
     52  CD2      -23.1270    3.8250   32.8250 C.ar  101  HIS101      0.1154
     53  CE1      -23.9900    1.8270   32.5650 C.ar  101  HIS101      0.1986
     54  NE2      -23.6730    2.9410   31.9300 N.ar  101  HIS101     -0.2212
     55  N        -25.3710    2.7230   36.0650 N.am  102  HIS102     -0.1975
     56  CA       -26.4970    1.9340   36.6420 C.3   102  HIS102      0.1656
     57  C        -26.1580    1.3510   38.0060 C.2   102  HIS102      0.2291
     58  O        -27.0340    1.2430   38.8910 O.2   102  HIS102     -0.2864
     59  CB       -26.9460    0.8010   35.6820 C.3   102  HIS102      0.0771
     60  CG       -27.1710    1.2430   34.2730 C.ar  102  HIS102      0.0820
     61  ND1      -27.7270    2.4690   33.9420 N.ar  102  HIS102     -0.2267
     62  CD2      -26.9440    0.6060   33.0990 C.ar  102  HIS102      0.1154
     63  CE1      -27.8050    2.5650   32.6310 C.ar  102  HIS102      0.1986
     64  NE2      -27.3450    1.4500   32.0980 N.ar  102  HIS102     -0.2212
     65  N        -23.1760   12.6880   32.3630 N.3   144  TYR144     -0.1241
     66  CA       -24.0260   11.5330   32.1920 C.3   144  TYR144      0.1605
     67  C        -24.5510   11.1770   33.5830 C.2   144  TYR144      0.2264
     68  O        -23.7870   11.1290   34.5560 O.2   144  TYR144     -0.2867
     69  CB       -23.2020   10.3710   31.6400 C.3   144  TYR144      0.0534
     70  CG       -23.8950    9.0240   31.6470 C.ar  144  TYR144     -0.0201
     71  CD1      -24.2200    8.3850   30.4620 C.ar  144  TYR144     -0.0009
     72  CD2      -24.1960    8.3850   32.8390 C.ar  144  TYR144     -0.0009
     73  CE1      -24.8640    7.1330   30.4760 C.ar  144  TYR144      0.0417
     74  CE2      -24.8400    7.1720   32.8690 C.ar  144  TYR144      0.0417
     75  CZ       -25.1570    6.5470   31.6880 C.ar  144  TYR144      0.1957
     76  OH       -25.8150    5.3490   31.7620 O.3   144  TYR144     -0.2866
     77  N        -27.0580   14.5040   30.5810 N.3   193  TRP193     -0.1241
     78  CA       -27.4450   13.5000   29.6080 C.3   193  TRP193      0.1605
     79  C        -27.9550   12.3310   30.4020 C.2   193  TRP193      0.2264
     80  O        -27.1880   11.5710   30.9830 O.2   193  TRP193     -0.2867
     81  CB       -26.2350   13.1300   28.7580 C.3   193  TRP193      0.0550
     82  CG       -26.5350   12.3670   27.5020 C.ar  193  TRP193      0.0003
     83  CD1      -26.7990   12.8880   26.2720 C.ar  193  TRP193      0.0946
     84  CD2      -26.6030   10.9420   27.3550 C.ar  193  TRP193      0.0152
     85  NE1      -26.9870   11.8790   25.3570 N.ar  193  TRP193     -0.2442
     86  CE2      -26.8480   10.6740   25.9970 C.ar  193  TRP193      0.0810
     87  CE3      -26.4300    9.8660   28.2300 C.ar  193  TRP193      0.0012
     88  CZ2      -26.9630    9.3890   25.5070 C.ar  193  TRP193      0.0191
     89  CZ3      -26.5130    8.5820   27.7220 C.ar  193  TRP193      0.0001
     90  CH2      -26.7870    8.3570   26.3860 C.ar  193  TRP193      0.0015
     91  N        -29.7850    8.7990   31.2810 N.3   195  ASP195     -0.1239
     92  CA       -29.8280    7.4660   30.7380 C.3   195  ASP195      0.1674
     93  C        -30.5400    6.5800   31.7640 C.2   195  ASP195      0.2266
     94  O        -30.8200    7.0270   32.8820 O.2   195  ASP195     -0.2867
     95  CB       -28.4150    7.0120   30.4610 C.3   195  ASP195      0.1410
     96  CG       -28.3430    5.8560   29.5050 C.2   195  ASP195      0.3668
     97  OD1      -29.3560    5.5960   28.8170 O.co2 195  ASP195     -0.2456
     98  OD2      -27.2710    5.2150   29.4280 O.co2 195  ASP195     -0.2456
     99  N        -33.6530    5.6250   31.7260 N.3   197  THR197     -0.1203
    100  CA       -34.9370    6.2520   31.9670 C.3   197  THR197      0.1994
    101  C        -36.0730    5.4410   31.3300 C.2   197  THR197      0.2617
    102  O        -37.2140    5.9070   31.3080 O.2   197  THR197     -0.2717
    103  CB       -34.9990    7.6740   31.3650 C.3   197  THR197      0.1784
    104  OG1      -34.6890    7.5930   29.9740 O.3   197  THR197     -0.2211
    105  CG2      -34.0220    8.6440   32.0640 C.3   197  THR197      0.0376
    106  N        -35.7590    4.2470   30.8390 N.am  198  TRP198     -0.1975
    107  CA       -36.7050    3.4540   30.0400 C.3   198  TRP198      0.1640
    108  C        -37.8080    2.7370   30.8230 C.2   198  TRP198      0.2290
    109  O        -38.7290    2.1720   30.2160 O.2   198  TRP198     -0.2864
    110  CB       -35.9590    2.4270   29.1900 C.3   198  TRP198      0.0576
    111  CG       -35.0430    1.5000   29.9700 C.ar  198  TRP198      0.0006
    112  CD1      -35.4110    0.4510   30.7410 C.ar  198  TRP198      0.0946
    113  CD2      -33.6160    1.5560   30.0190 C.ar  198  TRP198      0.0152
    114  NE1      -34.3120   -0.1350   31.3020 N.ar  198  TRP198     -0.2442
    115  CE2      -33.1890    0.5180   30.8640 C.ar  198  TRP198      0.0810
    116  CE3      -32.6560    2.3950   29.4370 C.ar  198  TRP198      0.0012
    117  CZ2      -31.8400    0.2670   31.1300 C.ar  198  TRP198      0.0191
    118  CZ3      -31.3030    2.1530   29.7160 C.ar  198  TRP198      0.0001
    119  CH2      -30.9170    1.0960   30.5570 C.ar  198  TRP198      0.0015
    120  N        -33.7740   11.9300   26.1380 N.3   228  ARG228     -0.1245
    121  CA       -33.9520   10.6540   26.7960 C.3   228  ARG228      0.1563
    122  C        -34.6360   10.7670   28.1720 C.2   228  ARG228      0.2260
    123  O        -35.3460    9.8730   28.5800 O.2   228  ARG228     -0.2867
    124  CB       -32.5950    9.9480   26.9080 C.3   228  ARG228      0.0307
    125  CG       -32.6910    8.5040   26.7880 C.3   228  ARG228      0.0489
    126  CD       -31.3360    7.8480   26.7940 C.3   228  ARG228      0.2205
    127  NE       -30.7210    7.8660   25.4790 N.pl3 228  ARG228     -0.0865
    128  CZ       -29.7570    7.0290   25.1190 C.cat 228  ARG228      0.5346
    129  NH1      -29.2890    6.1240   25.9880 N.pl3 228  ARG228      0.1354
    130  NH2      -29.2490    7.0920   23.9000 N.pl3 228  ARG228      0.1354
    131  N        -39.6980   11.3310   24.5320 N.3   238  HIS238     -0.1241
    132  CA       -38.7280   11.9630   23.6200 C.3   238  HIS238      0.1621
    133  C        -39.2840   13.0790   22.7500 C.2   238  HIS238      0.2264
    134  O        -38.7730   14.2030   22.7990 O.2   238  HIS238     -0.2867
    135  CB       -38.0150   10.9250   22.7660 C.3   238  HIS238      0.0745
    136  CG       -37.6550    9.6980   23.5370 C.ar  238  HIS238      0.0817
    137  ND1      -37.9350    8.4260   23.0900 N.ar  238  HIS238     -0.2268
    138  CD2      -37.1150    9.5580   24.7730 C.ar  238  HIS238      0.1154
    139  CE1      -37.5320    7.5490   23.9930 C.ar  238  HIS238      0.1986
    140  NE2      -37.0190    8.2080   25.0200 N.ar  238  HIS238     -0.2212
    141  N        -31.4770   12.2940   21.2670 N.3   251  SER251     -0.1202
    142  CA       -30.3490   11.4900   21.7820 C.3   251  SER251      0.2020
    143  C        -30.4770    9.9810   21.6110 C.2   251  SER251      0.2619
    144  O        -29.8580    9.2360   22.3340 O.2   251  SER251     -0.2717
    145  CB       -30.0860   11.8370   23.2660 C.3   251  SER251      0.2103
    146  OG       -31.2490   11.6170   24.0530 O.3   251  SER251     -0.2182
    147  N        -31.2230    9.5190   20.6200 N.am  252  GLY252     -0.1956
    148  CA       -31.4500    8.0850   20.4540 C.3   252  GLY252      0.1869
    149  C        -30.4920    7.3550   19.5090 C.2   252  GLY252      0.2309
    150  O        -30.5340    6.1270   19.4300 O.2   252  GLY252     -0.2863
    151  N        -27.6530    5.8540   19.3450 N.3   254  GLU254     -0.1182
    152  CA       -26.6210    5.1910   20.1340 C.3   254  GLU254      0.1915
    153  C        -26.1350    3.9510   19.4140 C.2   254  GLU254      0.2634
    154  O        -26.9180    3.0120   19.1300 O.2   254  GLU254     -0.2714
    155  CB       -27.1710    4.9090   21.5240 C.2   254  GLU254      0.0085
    156  CG       -26.3040    4.0860   22.4020 C.2   254  GLU254      0.0835
    157  CD       -26.7720    3.9630   23.8350 C.2   254  GLU254      0.3877
    158  OE1      -27.3090    4.9440   24.3870 O.co2 254  GLU254     -0.2406
    159  OE2      -26.5670    2.8560   24.4130 O.co2 254  GLU254     -0.2406
    160  N        -24.8560    3.9680   19.0310 N.am  255  ARG255     -0.1963
    161  CA       -24.2470    2.9000   18.2120 C.3   255  ARG255      0.1729
    162  C        -24.9750    2.7160   16.8690 C.2   255  ARG255      0.2616
    163  O        -24.8920    1.6620   16.2210 O.2   255  ARG255     -0.2715
    164  CB       -24.1260    1.5760   18.9780 C.3   255  ARG255      0.0348
    165  CG       -23.3360    1.6840   20.3030 C.3   255  ARG255      0.0492
    166  CD       -23.1050    0.3270   20.9490 C.3   255  ARG255      0.2205
    167  NE       -24.3980   -0.3040   21.1990 N.pl3 255  ARG255     -0.0865
    168  CZ       -24.8670   -1.3920   20.6100 C.cat 255  ARG255      0.5346
    169  NH1      -24.1470   -2.1110   19.7530 N.pl3 255  ARG255      0.1354
    170  NH2      -26.0890   -1.7840   20.9210 N.pl3 255  ARG255      0.1354
    171  N        -25.6270    3.7710   16.4070 N.am  256  ARG256     -0.1977
    172  CA       -26.2170    3.7830   15.0940 C.3   256  ARG256      0.1597
    173  C        -26.4250    5.2130   14.6560 C.2   256  ARG256      0.2287
    174  O        -26.3170    6.1410   15.4820 O.2   256  ARG256     -0.2864
    175  CB       -27.5240    3.0030   15.0460 C.3   256  ARG256      0.0334
    176  CG       -28.5580    3.4650   15.9900 C.3   256  ARG256      0.0492
    177  CD       -29.7150    2.4440   16.0270 C.3   256  ARG256      0.2205
    178  NE       -30.8990    2.9350   15.3260 N.pl3 256  ARG256     -0.0865
    179  CZ       -31.8570    3.6920   15.8770 C.cat 256  ARG256      0.5346
    180  NH1      -31.7920    4.0700   17.1590 N.pl3 256  ARG256      0.1354
    181  NH2      -32.8900    4.0880   15.1390 N.pl3 256  ARG256      0.1354
    182  N        -23.9140    8.8310   19.8750 N.3   274  CYS274     -0.1235
    183  CA       -22.7800    8.3040   20.5900 C.3   274  CYS274      0.1677
    184  C        -22.4080    6.9400   20.0490 C.2   274  CYS274      0.2270
    185  O        -23.2330    6.2650   19.4250 O.2   274  CYS274     -0.2867
    186  CB       -23.0190    8.2810   22.0970 C.3   274  CYS274      0.0956
    187  SG       -24.4770    7.3620   22.6590 S.3   274  CYS274     -0.0801
    188  N        -18.8820   -0.1690   26.7530 N.3   282  TRP282     -0.1241
    189  CA       -18.6850    1.1970   27.1860 C.3   282  TRP282      0.1605
    190  C        -17.6250    1.2860   28.2960 C.2   282  TRP282      0.2264
    191  O        -16.6370    2.0120   28.1910 O.2   282  TRP282     -0.2867
    192  CB       -19.9970    1.8420   27.6110 C.3   282  TRP282      0.0550
    193  CG       -21.0740    1.8260   26.5040 C.ar  282  TRP282      0.0003
    194  CD1      -21.9540    0.8040   26.2440 C.ar  282  TRP282      0.0946
    195  CD2      -21.3760    2.8600   25.5450 C.ar  282  TRP282      0.0152
    196  NE1      -22.7760    1.1370   25.2020 N.ar  282  TRP282     -0.2442
    197  CE2      -22.4210    2.3750   24.7280 C.ar  282  TRP282      0.0810
    198  CE3      -20.8250    4.1150   25.2530 C.ar  282  TRP282      0.0012
    199  CZ2      -22.9580    3.1180   23.6870 C.ar  282  TRP282      0.0191
    200  CZ3      -21.3650    4.8510   24.2350 C.ar  282  TRP282      0.0001
    201  CH2      -22.4200    4.3440   23.4480 C.ar  282  TRP282      0.0015
@<TRIPOS>BOND
     1   173   172    1
     2   173   174    2
     3   175   172    1
     4   175   176    1
     5   172   171    1
     6   181   179    1
     7   178   179    2
     8   178   177    1
     9   179   180    1
    10   176   177    1
    11   163   162    2
    12   171   162   am
    13   162   161    1
    14   161   164    1
    15   161   160    1
    16   164   165    1
    17   160   153   am
    18   154   153    2
    19   151   152    1
    20   153   152    1
    21   185   184    2
    22   150   149    2
    23   149   148    1
    24   169   168    1
    25   182   183    1
    26   184   183    1
    27   152   155    1
    28   165   166    1
    29   148   147    1
    30   183   186    1
    31   168   170    1
    32   168   167    2
    33   147   143   am
    34   166   167    1
    35   141   142    1
    36   155   156    2
    37   143   142    1
    38   143   144    2
    39   142   145    1
    40   186   187    1
    41   156   157    1
    42   133   134    2
    43   133   132    1
    44   135   136    1
    45   135   132    1
    46   137   136   ar
    47   137   139   ar
    48   145   146    1
    49   201   199   ar
    50   201   200   ar
    51   136   138   ar
    52   132   131    1
    53   199   197   ar
    54   157   158   ar
    55   157   159   ar
    56   130   128    1
    57   139   140   ar
    58   200   198   ar
    59   197   196   ar
    60   197   195   ar
    61   138   140   ar
    62   128   127    2
    63   128   129    1
    64   196   194   ar
    65   198   195   ar
    66     1     2    1
    67    85    86   ar
    68    85    83   ar
    69     7     9   ar
    70     7     6   ar
    71   127   126    1
    72    88    86   ar
    73    88    90   ar
    74   195   193   ar
    75     5     6    1
    76     5     2    1
    77     9    11   ar
    78    86    84   ar
    79   120   121    1
    80   194   193   ar
    81    83    82   ar
    82     6     8   ar
    83    90    89   ar
    84     2     3    1
    85   193   192    1
    86   188   189    1
    87   125   126    1
    88   125   124    1
    89   121   124    1
    90   121   122    1
    91     4     3    2
    92   189   192    1
    93   189   190    1
    94    11    10   ar
    95    84    82   ar
    96    84    87   ar
    97    82    81    1
    98     8    10   ar
    99    89    87   ar
   100   122   123    2
   101   191   190    2
   102    20    18   ar
   103    20    21   ar
   104    81    78    1
   105    18    17   ar
   106    97    96   ar
   107    30    28   ar
   108   110   111    1
   109   110   107    1
   110    21    19   ar
   111    98    96   ar
   112   116   118   ar
   113   116   113   ar
   114    29    28   ar
   115    96    95    1
   116    78    79    1
   117    78    77    1
   118   118   119   ar
   119    28    27    1
   120    17    19   ar
   121    17    16    1
   122   111   113   ar
   123   111   112   ar
   124   104   103    1
   125   113   115   ar
   126   107   108    1
   127   107   106    1
   128   109   108    2
   129    12    13    1
   130    39    37   ar
   131    39    40   ar
   132    79    80    2
   133    95    92    1
   134    71    73   ar
   135    71    70   ar
   136    73    75   ar
   137    16    13    1
   138   119   117   ar
   139    37    36   ar
   140    92    91    1
   141    92    93    1
   142   112   114   ar
   143   106   101   am
   144   115   117   ar
   145   115   114   ar
   146    40    42   ar
   147    40    38   ar
   148    42    44   ar
   149    27    26    1
   150    13    14    1
   151   102   101    2
   152    36    38   ar
   153    36    35    1
   154   101   100    1
   155   103   100    1
   156   103   105    1
   157    38    41   ar
   158    44    43   ar
   159    69    70    1
   160    69    66    1
   161    70    72   ar
   162    75    76    1
   163    75    74   ar
   164    35    32    1
   165    22    23    1
   166    99   100    1
   167    93    94    2
   168    15    14    2
   169    54    53   ar
   170    54    52   ar
   171    64    63   ar
   172    64    62   ar
   173    41    43   ar
   174    66    65    1
   175    66    67    1
   176    26    23    1
   177    31    32    1
   178    31    24   am
   179    53    51   ar
   180    63    61   ar
   181    23    24    1
   182    52    50   ar
   183    72    74   ar
   184    32    33    1
   185    62    60   ar
   186    24    25    2
   187    67    68    2
   188    33    34    2
   189    51    50   ar
   190    61    60   ar
   191    50    49    1
   192    60    59    1
   193    49    46    1
   194    59    56    1
   195    46    47    1
   196    46    45    1
   197    55    56    1
   198    55    47   am
   199    56    57    1
   200    47    48    2
   201    57    58    2
