@<TRIPOS>MOLECULE
tmp/2xilA01.pdb
 101 98 0 0 0
SMALL
GASTEIGER

@<TRIPOS>ATOM
      1  N        -17.9060   -4.5760    8.8810 N.3   187  GLU187     -0.1231
      2  CA       -19.2650   -4.5760    8.3310 C.3   187  GLU187      0.1699
      3  C        -20.0150   -3.2950    8.6300 C.2   187  GLU187      0.2593
      4  O        -20.0730   -2.7690    9.7510 O.2   187  GLU187     -0.2718
      5  CB       -20.0410   -5.7710    8.8970 C.3   187  GLU187      0.0402
      6  CG       -21.5410   -5.7120    8.5640 C.3   187  GLU187      0.1161
      7  CD       -21.8450   -5.9440    7.0930 C.2   187  GLU187      0.3649
      8  OE1      -22.7920   -5.3410    6.5420 O.co2 187  GLU187     -0.2457
      9  OE2      -21.1430   -6.7500    6.4390 O.co2 187  GLU187     -0.2457
     10  N        -20.6470   -2.7440    7.5950 N.am  188  GLY188     -0.1943
     11  CA       -21.5550   -1.6400    7.8480 C.3   188  GLY188      0.1998
     12  C        -21.2740   -0.4720    6.9090 C.2   188  GLY188      0.2480
     13  O        -20.1490   -0.3550    6.4310 O.2   188  GLY188     -0.2729
     14  N        -22.2620    0.3720    6.6930 N.am  189  PRO189     -0.2726
     15  CA       -22.0720    1.5920    5.8800 C.3   189  PRO189      0.1402
     16  C        -21.5080    2.6870    6.7640 C.2   189  PRO189      0.2269
     17  O        -21.5390    2.5730    8.0050 O.2   189  PRO189     -0.2865
     18  CB       -23.5170    1.9010    5.4630 C.3   189  PRO189      0.0296
     19  CG       -24.2570    1.5920    6.7610 C.3   189  PRO189      0.0237
     20  CD       -23.6470    0.2810    7.1950 C.3   189  PRO189      0.0939
     21  N        -16.4890   -1.2530   19.1590 N.3   213  GLU213     -0.1231
     22  CA       -17.1120   -2.5690   19.3300 C.3   213  GLU213      0.1699
     23  C        -16.3120   -3.6280   18.5570 C.2   213  GLU213      0.2592
     24  O        -15.4460   -3.2090   17.7700 O.2   213  GLU213     -0.2718
     25  CB       -18.5750   -2.5320   18.8890 C.3   213  GLU213      0.0402
     26  CG       -19.3870   -1.4360   19.5640 C.3   213  GLU213      0.1161
     27  CD       -20.8580   -1.5020   19.2170 C.2   213  GLU213      0.3649
     28  OE1      -21.6820   -1.2300   20.1190 O.co2 213  GLU213     -0.2457
     29  OE2      -21.2430   -1.8300   18.0800 O.co2 213  GLU213     -0.2457
     30  N        -16.6300   -4.8930   18.8160 N.am  214  LYS214     -0.1966
     31  CA       -16.1030   -6.0180   18.0470 C.3   214  LYS214      0.1728
     32  C        -17.1340   -6.4740   17.0260 C.2   214  LYS214      0.2616
     33  O        -18.3080   -6.6890   17.3730 O.2   214  LYS214     -0.2715
     34  CB       -15.7250   -7.1980   18.9540 C.3   214  LYS214      0.0311
     35  CG       -14.3470   -7.1120   19.5830 C.3   214  LYS214      0.0038
     36  CD       -13.2560   -7.7240   18.7440 C.3   214  LYS214      0.0206
     37  CE       -11.8830   -7.6920   19.3830 C.3   214  LYS214      0.1093
     38  NZ       -11.5400   -8.9250   20.1490 N.3   214  LYS214     -0.1314
     39  N        -16.7290   -6.6720   15.7550 N.am  215  ASN215     -0.1958
     40  CA       -17.7650   -7.1610   14.8380 C.3   215  ASN215      0.1819
     41  C        -17.7600   -8.6870   14.8570 C.2   215  ASN215      0.2621
     42  O        -17.0180   -9.2820   15.6560 O.2   215  ASN215     -0.2715
     43  CB       -17.5450   -6.5960   13.4340 C.3   215  ASN215      0.1195
     44  CG       -16.1580   -6.9170   12.8860 C.2   215  ASN215      0.2630
     45  OD1      -15.6640   -8.0420   13.0480 O.2   215  ASN215     -0.2716
     46  ND2      -15.5290   -5.9590   12.2130 N.am  215  ASN215     -0.0877
     47  N        -18.5790   -9.3070   14.0140 N.am  216  ASP216     -0.1971
     48  CA       -18.6550  -10.7730   14.0050 C.3   216  ASP216      0.1709
     49  C        -17.4130  -11.4330   13.4590 C.2   216  ASP216      0.2293
     50  O        -17.2170  -12.6460   13.5330 O.2   216  ASP216     -0.2864
     51  CB       -19.8810  -11.2190   13.1810 C.3   216  ASP216      0.1436
     52  CG       -21.2080  -10.8490   13.8080 C.2   216  ASP216      0.3671
     53  OD1      -21.2640  -10.4760   14.9970 O.co2 216  ASP216     -0.2456
     54  OD2      -22.2460  -10.8940   13.1170 O.co2 216  ASP216     -0.2456
     55  N        -14.2710   -2.1040   15.4000 N.3   221  GLN221     -0.1245
     56  CA       -14.6370   -0.9990   14.5260 C.3   221  GLN221      0.1566
     57  C        -15.4920   -0.0800   15.3870 C.2   221  GLN221      0.2260
     58  O        -16.0310   -0.4810   16.4190 O.2   221  GLN221     -0.2867
     59  CB       -15.3660   -1.4500   13.2720 C.3   221  GLN221      0.0367
     60  CG       -16.5550   -2.3830   13.5940 C.3   221  GLN221      0.0905
     61  CD       -17.3620   -2.7140   12.3410 C.2   221  GLN221      0.2608
     62  OE1      -18.5000   -2.2370   12.1900 O.2   221  GLN221     -0.2717
     63  NE2      -16.8230   -3.5060   11.4570 N.am  221  GLN221     -0.0878
     64  N        -18.8010    2.0230   16.0130 N.3   223  ASP223     -0.1225
     65  CA       -20.1980    1.9390   15.5880 C.3   223  ASP223      0.1805
     66  C        -21.0680    3.0090   16.2370 C.2   223  ASP223      0.2598
     67  O        -20.8430    3.4260   17.3770 O.2   223  ASP223     -0.2718
     68  CB       -20.8010    0.5870   15.9610 C.3   223  ASP223      0.1424
     69  CG       -20.1340   -0.6150   15.3440 C.2   223  ASP223      0.3668
     70  OD1      -19.6060   -0.4580   14.2210 O.co2 223  ASP223     -0.2456
     71  OD2      -20.1270   -1.7150   15.9520 O.co2 223  ASP223     -0.2456
     72  N        -22.0870    3.4230   15.4980 N.am  224  SER224     -0.1952
     73  CA       -23.0050    4.4290   16.0380 C.3   224  SER224      0.1924
     74  C        -24.4220    3.8450   16.0750 C.2   224  SER224      0.2314
     75  O        -24.7070    2.9020   15.3560 O.2   224  SER224     -0.2863
     76  CB       -22.9710    5.7220   15.2300 C.3   224  SER224      0.2116
     77  OG       -23.8690    5.6370   14.1370 O.3   224  SER224     -0.2180
     78  N        -26.5460    3.1150   13.0780 N.3   227  GLY227     -0.1210
     79  CA       -26.2780    2.0030   12.1680 C.3   227  GLY227      0.1956
     80  C        -25.0590    2.2410   11.2840 C.2   227  GLY227      0.2612
     81  O        -24.8880    1.6050   10.2480 O.2   227  GLY227     -0.2717
     82  N        -24.1960    3.1760   11.6650 N.am  228  TYR228     -0.1962
     83  CA       -23.0380    3.4930   10.8420 C.3   228  TYR228      0.1771
     84  C        -21.7770    2.9570   11.5070 C.2   228  TYR228      0.2619
     85  O        -21.8260    2.6380   12.6980 O.2   228  TYR228     -0.2715
     86  CB       -22.8370    4.9910   10.6560 C.3   228  TYR228      0.0574
     87  CG       -24.0830    5.7350   10.1980 C.ar  228  TYR228     -0.0198
     88  CD1      -24.3180    7.0310   10.6390 C.ar  228  TYR228     -0.0009
     89  CD2      -24.9840    5.1120    9.3440 C.ar  228  TYR228     -0.0009
     90  CE1      -25.4490    7.7340   10.2320 C.ar  228  TYR228      0.0417
     91  CE2      -26.1200    5.8060    8.9370 C.ar  228  TYR228      0.0417
     92  CZ       -26.3260    7.0850    9.3880 C.ar  228  TYR228      0.1957
     93  OH       -27.4670    7.7570    8.9740 O.3   228  TYR228     -0.2866
     94  N        -20.7080    2.8980   10.7050 N.am  229  MET229     -0.1977
     95  CA       -19.4350    2.4400   11.2540 C.3   229  MET229      0.1605
     96  C        -18.2950    3.2990   10.7130 C.2   229  MET229      0.2287
     97  O        -18.4750    3.9650    9.6880 O.2   229  MET229     -0.2864
     98  CB       -19.1860    0.9800   10.9320 C.3   229  MET229      0.0413
     99  CG       -19.0310    0.5990    9.4540 C.3   229  MET229      0.0598
    100  SD       -17.3910    0.9220    8.7500 S.3   229  MET229     -0.1393
    101  CE       -16.4510   -0.4070    9.5070 C.3   229  MET229      0.0692
@<TRIPOS>BOND
     1    18    15    1
     2    18    19    1
     3    15    14    1
     4    15    16    1
     5    13    12    2
     6     9     7   ar
     7     8     7   ar
     8    14    12   am
     9    14    20    1
    10    19    20    1
    11    16    17    2
    12    12    11    1
    13     7     6    1
    14    10    11    1
    15    10     3   am
    16     2     3    1
    17     2     1    1
    18     2     5    1
    19     6     5    1
    20     3     4    2
    21   100    99    1
    22   100   101    1
    23    91    89   ar
    24    91    92   ar
    25    93    92    1
    26    89    87   ar
    27    92    90   ar
    28    99    98    1
    29    97    96    2
    30    87    88   ar
    31    87    86    1
    32    90    88   ar
    33    81    80    2
    34    86    83    1
    35    94    95    1
    36    94    84   am
    37    96    95    1
    38    83    84    1
    39    83    82    1
    40    98    95    1
    41    80    82   am
    42    80    79    1
    43    63    61   am
    44    84    85    2
    45    79    78    1
    46    62    61    2
    47    46    44   am
    48    61    60    1
    49    44    45    2
    50    44    43    1
    51    54    52   ar
    52    51    52    1
    53    51    48    1
    54    59    60    1
    55    59    56    1
    56    43    40    1
    57    49    50    2
    58    49    48    1
    59    52    53   ar
    60    48    47    1
    61    47    41   am
    62    77    76    1
    63    70    69   ar
    64    56    57    1
    65    56    55    1
    66    40    41    1
    67    40    39    1
    68    41    42    2
    69    76    73    1
    70    69    71   ar
    71    69    68    1
    72    75    74    2
    73    57    58    2
    74    72    73    1
    75    72    66   am
    76    65    68    1
    77    65    64    1
    78    65    66    1
    79    39    32   am
    80    73    74    1
    81    66    67    2
    82    32    33    2
    83    32    31    1
    84    24    23    2
    85    31    30    1
    86    31    34    1
    87    29    27   ar
    88    23    30   am
    89    23    22    1
    90    36    37    1
    91    36    35    1
    92    25    22    1
    93    25    26    1
    94    34    35    1
    95    21    22    1
    96    27    26    1
    97    27    28   ar
    98    37    38    1
