@<TRIPOS>MOLECULE
tmp/2ximD00.pdb
 156 147 0 0 0
SMALL
GASTEIGER

@<TRIPOS>ATOM
      1  N         22.3650   87.4030  159.3280 N.3    14  TRP14      -0.1241
      2  CA        23.5790   86.9400  160.0390 C.3    14  TRP14       0.1605
      3  C         24.1040   85.5640  159.5860 C.2    14  TRP14       0.2264
      4  O         25.1670   85.1760  160.1120 O.2    14  TRP14      -0.2867
      5  CB        23.3020   86.9280  161.5500 C.3    14  TRP14       0.0550
      6  CG        22.3510   85.8270  161.9450 C.ar   14  TRP14       0.0003
      7  CD1       22.6730   84.5410  162.3250 C.ar   14  TRP14       0.0946
      8  CD2       20.9250   85.9170  162.0160 C.ar   14  TRP14       0.0152
      9  NE1       21.5460   83.8400  162.6310 N.ar   14  TRP14      -0.2442
     10  CE2       20.4570   84.6500  162.4350 C.ar   14  TRP14       0.0810
     11  CE3       20.0090   86.9430  161.7610 C.ar   14  TRP14       0.0012
     12  CZ2       19.0930   84.3780  162.6070 C.ar   14  TRP14       0.0191
     13  CZ3       18.6450   86.6730  161.9380 C.ar   14  TRP14       0.0001
     14  CH2       18.2000   85.4160  162.3710 C.ar   14  TRP14       0.0015
     15  N         18.6120   90.5490  163.2760 N.3    52  HIS52      -0.1241
     16  CA        18.7260   90.9930  164.6600 C.3    52  HIS52       0.1621
     17  C         18.8540   92.5140  164.4180 C.2    52  HIS52       0.2264
     18  O         19.3760   92.9240  163.3670 O.2    52  HIS52      -0.2867
     19  CB        20.0490   90.6650  165.4150 C.3    52  HIS52       0.0745
     20  CG        20.2000   89.2080  165.7110 C.ar   52  HIS52       0.0817
     21  ND1       20.6920   88.3100  164.7740 N.ar   52  HIS52      -0.2268
     22  CD2       19.9020   88.4940  166.8270 C.ar   52  HIS52       0.1154
     23  CE1       20.7080   87.0930  165.3080 C.ar   52  HIS52       0.1986
     24  NE2       20.2350   87.1790  166.5320 N.ar   52  HIS52      -0.2212
     25  N         14.3620   89.6770  165.3220 N.3    88  THR88      -0.1203
     26  CA        14.9040   89.2630  166.6200 C.3    88  THR88       0.1994
     27  C         15.8130   90.3600  167.1570 C.2    88  THR88       0.2618
     28  O         16.1790   91.2820  166.3960 O.2    88  THR88      -0.2717
     29  CB        15.5670   87.8340  166.5170 C.3    88  THR88       0.1784
     30  OG1       15.8600   87.4850  167.9180 O.3    88  THR88      -0.2211
     31  CG2       16.7440   87.6280  165.5660 C.3    88  THR88       0.0376
     32  N         16.1650   90.3120  168.4350 N.am   89  THR89      -0.1952
     33  CA        17.0260   91.2830  169.0990 C.3    89  THR89       0.1897
     34  C         18.2980   90.6170  169.5860 C.2    89  THR89       0.2313
     35  O         18.2240   89.4990  170.1240 O.2    89  THR89      -0.2863
     36  CB        16.3260   91.9320  170.3680 C.3    89  THR89       0.1794
     37  OG1       14.9800   92.1510  169.8760 O.3    89  THR89      -0.2208
     38  CG2       16.9110   93.2570  170.8270 C.3    89  THR89       0.0378
     39  N         23.0280   89.3930  173.2340 N.3    92  PHE92      -0.1241
     40  CA        24.1460   88.4900  173.6220 C.3    92  PHE92       0.1605
     41  C         25.5350   89.0000  173.2950 C.2    92  PHE92       0.2264
     42  O         26.4450   88.5640  174.0280 O.2    92  PHE92      -0.2867
     43  CB        23.9080   87.0760  173.0140 C.3    92  PHE92       0.0534
     44  CG        23.6250   87.0420  171.5290 C.ar   92  PHE92      -0.0203
     45  CD1       24.6780   87.0220  170.6170 C.ar   92  PHE92      -0.0042
     46  CD2       22.3230   87.0530  171.0460 C.ar   92  PHE92      -0.0042
     47  CE1       24.4450   87.0230  169.2470 C.ar   92  PHE92      -0.0003
     48  CE2       22.0700   87.0580  169.6650 C.ar   92  PHE92      -0.0003
     49  CZ        23.1350   87.0350  168.7610 C.ar   92  PHE92      -0.0000
     50  N         11.2360   86.4030  167.5490 N.3   133  VAL133     -0.1245
     51  CA        12.0060   85.2700  168.0650 C.3   133  VAL133      0.1561
     52  C         12.8350   85.8100  169.2550 C.2   133  VAL133      0.2260
     53  O         13.4330   86.9170  169.1690 O.2   133  VAL133     -0.2867
     54  CB        12.8780   84.5140  167.0370 C.3   133  VAL133      0.0252
     55  CG1       14.0440   83.7520  167.6740 C.3   133  VAL133      0.0019
     56  CG2       12.0450   83.5350  166.2050 C.3   133  VAL133      0.0019
     57  N         15.9440   84.5410  171.5670 N.3   135  TRP135     -0.1241
     58  CA        17.0020   83.5620  171.8610 C.3   135  TRP135      0.1605
     59  C         17.7900   84.1270  173.0620 C.2   135  TRP135      0.2264
     60  O         18.5980   85.0560  172.8780 O.2   135  TRP135     -0.2867
     61  CB        17.9650   83.2180  170.7150 C.3   135  TRP135      0.0550
     62  CG        19.0890   82.3270  171.1780 C.ar  135  TRP135      0.0003
     63  CD1       18.9370   81.0860  171.7840 C.ar  135  TRP135      0.0946
     64  CD2       20.5020   82.5760  171.1000 C.ar  135  TRP135      0.0152
     65  NE1       20.1760   80.6000  172.0990 N.ar  135  TRP135     -0.2442
     66  CE2       21.1490   81.4660  171.6850 C.ar  135  TRP135      0.0810
     67  CE3       21.2640   83.6290  170.6310 C.ar  135  TRP135      0.0012
     68  CZ2       22.5350   81.3710  171.8080 C.ar  135  TRP135      0.0191
     69  CZ3       22.6490   83.5440  170.7350 C.ar  135  TRP135      0.0001
     70  CH2       23.2830   82.4410  171.3040 C.ar  135  TRP135      0.0015
     71  N         13.3970   80.4970  171.6680 N.3   179  GLU179     -0.1245
     72  CA        14.3410   79.5410  171.0620 C.3   179  GLU179      0.1567
     73  C         15.2480   78.9040  172.1190 C.2   179  GLU179      0.2260
     74  O         16.1420   79.5860  172.6760 O.2   179  GLU179     -0.2867
     75  CB        15.2510   80.2360  170.0690 C.3   179  GLU179      0.0388
     76  CG        16.2530   79.3230  169.3390 C.3   179  GLU179      0.1160
     77  CD        16.8120   80.0760  168.1460 C.2   179  GLU179      0.3649
     78  OE1       16.3350   81.1420  167.7940 O.co2 179  GLU179     -0.2457
     79  OE2       17.7670   79.5140  167.5730 O.co2 179  GLU179     -0.2457
     80  N         18.1420   76.3660  173.6990 N.3   181  LYS181     -0.1245
     81  CA        19.5350   75.9930  173.4730 C.3   181  LYS181      0.1561
     82  C         20.0730   75.5050  174.8270 C.2   181  LYS181      0.2260
     83  O         19.8370   76.1880  175.8270 O.2   181  LYS181     -0.2867
     84  CB        20.3970   77.0950  172.8990 C.3   181  LYS181      0.0271
     85  CG        21.7290   76.5430  172.3420 C.3   181  LYS181      0.0035
     86  CD        22.5360   77.6900  171.7330 C.3   181  LYS181      0.0206
     87  CE        23.7830   77.1890  170.9950 C.3   181  LYS181      0.1093
     88  NZ        24.4900   78.4370  170.5460 N.3   181  LYS181     -0.1314
     89  N         10.6660   78.3540  168.9330 N.3   213  ASN213     -0.1240
     90  CA        11.4380   78.4130  167.6940 C.3   213  ASN213      0.1653
     91  C         12.5950   77.4130  167.8920 C.2   213  ASN213      0.2266
     92  O         13.6810   77.8880  168.1810 O.2   213  ASN213     -0.2867
     93  CB        12.0180   79.8080  167.5080 C.3   213  ASN213      0.1155
     94  CG        12.7640   79.7840  166.1840 C.2   213  ASN213      0.2627
     95  OD1       12.2610   79.1760  165.2160 O.2   213  ASN213     -0.2716
     96  ND2       13.9260   80.3510  166.0380 N.am  213  ASN213     -0.0877
     97  N         15.6280   74.7570  167.1790 N.3   215  GLU215     -0.1196
     98  CA        16.6630   74.7260  166.1010 C.3   215  GLU215      0.1783
     99  C         17.2470   73.3260  165.9830 C.2   215  GLU215      0.2306
    100  O         17.5020   72.7110  167.0420 O.2   215  GLU215     -0.2863
    101  CB        17.7620   75.7330  166.3850 C.2   215  GLU215      0.0071
    102  CG        18.9470   75.6730  165.4390 C.2   215  GLU215      0.0834
    103  CD        19.9430   76.7910  165.5220 C.2   215  GLU215      0.3877
    104  OE1       19.3670   77.8810  165.3770 O.co2 215  GLU215     -0.2406
    105  OE2       21.1360   76.5500  165.6940 O.co2 215  GLU215     -0.2406
    106  N         20.4170   72.5940  167.9800 N.3   218  HIS218     -0.1241
    107  CA        20.3280   72.8500  169.4350 C.3   218  HIS218      0.1621
    108  C         19.8580   71.6130  170.1580 C.2   218  HIS218      0.2264
    109  O         20.4320   71.2970  171.2040 O.2   218  HIS218     -0.2867
    110  CB        19.3880   74.0300  169.7850 C.3   218  HIS218      0.0745
    111  CG        19.9270   75.3380  169.2880 C.ar  218  HIS218      0.0817
    112  ND1       19.2890   76.5430  169.4910 N.ar  218  HIS218     -0.2268
    113  CD2       21.0370   75.6280  168.6000 C.ar  218  HIS218      0.1154
    114  CE1       20.0220   77.5160  168.9760 C.ar  218  HIS218      0.1986
    115  NE2       21.0890   77.0110  168.4150 N.ar  218  HIS218     -0.2212
    116  N         14.0570   76.7780  163.0030 N.3   243  ASP243     -0.1239
    117  CA        15.4120   77.0770  162.5160 C.3   243  ASP243      0.1674
    118  C         16.0130   75.7310  162.0470 C.2   243  ASP243      0.2266
    119  O         16.1290   74.7800  162.8610 O.2   243  ASP243     -0.2867
    120  CB        16.3130   77.7530  163.5330 C.3   243  ASP243      0.1410
    121  CG        16.0510   79.2310  163.7420 C.2   243  ASP243      0.3668
    122  OD1       15.3180   79.9300  163.0400 O.co2 243  ASP243     -0.2456
    123  OD2       16.6130   79.7610  164.7300 O.co2 243  ASP243     -0.2456
    124  N         28.3660   74.3120  168.6530 N.3   253  ASP253     -0.1295
    125  CA        27.2820   74.5830  167.6790 C.3   253  ASP253      0.1359
    126  C         27.9120   74.7450  166.2910 C.3   253  ASP253      0.2015
    127  O         28.5480   75.7950  166.1290 O.3   253  ASP253     -0.2188
    128  CB        26.5700   75.8330  168.1800 C.3   253  ASP253      0.1357
    129  CG        25.3020   76.2710  167.5040 C.2   253  ASP253      0.3664
    130  OD1       24.5770   75.6270  166.6820 O.co2 253  ASP253     -0.2456
    131  OD2       24.9350   77.4420  167.8250 O.co2 253  ASP253     -0.2456
    132  N         26.2930   74.6540  163.0590 N.3   255  ASP255     -0.1239
    133  CA        25.5050   75.4160  162.0900 C.3   255  ASP255      0.1674
    134  C         25.8030   75.0850  160.6360 C.2   255  ASP255      0.2266
    135  O         25.9520   75.9950  159.8100 O.2   255  ASP255     -0.2867
    136  CB        25.7350   76.9070  162.3440 C.3   255  ASP255      0.1410
    137  CG        25.0470   77.4020  163.6030 C.2   255  ASP255      0.3668
    138  OD1       24.0320   76.8900  164.1030 O.co2 255  ASP255     -0.2456
    139  OD2       25.6470   78.3640  164.1430 O.co2 255  ASP255     -0.2456
    140  N         19.0400   78.8140  159.7580 N.3   290  ASP290     -0.1239
    141  CA        19.9100   79.5050  160.7320 C.3   290  ASP290      0.1674
    142  C         21.1800   78.6260  160.7850 C.2   290  ASP290      0.2266
    143  O         21.3490   77.7100  161.6040 O.2   290  ASP290     -0.2867
    144  CB        19.2040   79.6400  162.0650 C.3   290  ASP290      0.1410
    145  CG        20.0600   80.3780  163.0700 C.2   290  ASP290      0.3668
    146  OD1       21.1290   80.9120  162.7210 O.co2 290  ASP290     -0.2456
    147  OD2       19.7270   80.4660  164.2670 O.co2 290  ASP290     -0.2456
    148  N         25.6180   78.7250  159.1190 N.3   292  LYS292     -0.1245
    149  CA        26.7730   79.5320  158.8010 C.3   292  LYS292      0.1561
    150  C         27.6090   78.8860  157.7030 C.2   292  LYS292      0.2260
    151  O         27.9430   77.6910  157.8240 O.2   292  LYS292     -0.2867
    152  CB        27.7240   79.6440  159.9930 C.3   292  LYS292      0.0271
    153  CG        27.1780   80.4720  161.1430 C.3   292  LYS292      0.0035
    154  CD        28.0060   80.1780  162.3820 C.3   292  LYS292      0.0206
    155  CE        27.6890   81.1650  163.4980 C.3   292  LYS292      0.1093
    156  NZ        26.2000   81.3010  163.6720 N.3   292  LYS292     -0.1314
@<TRIPOS>BOND
     1   150   151    2
     2   150   149    1
     3   149   148    1
     4   149   152    1
     5     1     2    1
     6     3     2    1
     7     3     4    2
     8   140   141    1
     9   135   134    2
    10   152   153    1
    11     2     5    1
    12   134   133    1
    13   141   142    1
    14   141   144    1
    15   142   143    2
    16   153   154    1
    17     5     6    1
    18    11    13   ar
    19    11     8   ar
    20    13    14   ar
    21     6     8   ar
    22     6     7   ar
    23     8    10   ar
    24   118   117    1
    25   118   119    2
    26   144   145    1
    27   133   136    1
    28   133   132    1
    29     7     9   ar
    30   136   137    1
    31    14    12   ar
    32   154   155    1
    33    10    12   ar
    34    10     9   ar
    35   117   116    1
    36   117   120    1
    37   146   145   ar
    38   122   121   ar
    39   145   147   ar
    40    15    16    1
    41    18    17    2
    42   155   156    1
    43   120   121    1
    44   137   138   ar
    45   137   139   ar
    46   121   123   ar
    47    17    16    1
    48    16    19    1
    49    21    23   ar
    50    21    20   ar
    51    95    94    2
    52    23    24   ar
    53    25    26    1
    54   104   103   ar
    55    19    20    1
    56   102   103    1
    57   102   101    2
    58   103   105   ar
    59    31    29    1
    60    20    22   ar
    61    99    98    1
    62    99   100    2
    63    96    94   am
    64    98   101    1
    65    98    97    1
    66   127   126    1
    67    94    93    1
    68    56    54    1
    69   126   125    1
    70    28    27    2
    71    29    26    1
    72    29    30    1
    73    24    22   ar
    74    26    27    1
    75   130   129   ar
    76    54    55    1
    77    54    51    1
    78    27    32   am
    79   129   131   ar
    80   129   128    1
    81    93    90    1
    82    50    51    1
    83    79    77   ar
    84   125   128    1
    85   125   124    1
    86    90    91    1
    87    90    89    1
    88    78    77   ar
    89    91    92    2
    90   106   107    1
    91    51    52    1
    92    77    76    1
    93   115   113   ar
    94   115   114   ar
    95    32    33    1
    96   113   111   ar
    97    49    47   ar
    98    49    48   ar
    99   114   112   ar
   100    33    34    1
   101    33    36    1
   102    53    52    2
   103    47    45   ar
   104   111   112   ar
   105   111   110    1
   106    76    75    1
   107   107   110    1
   108   107   108    1
   109    34    35    2
   110    48    46   ar
   111    37    36    1
   112    75    72    1
   113   108   109    2
   114    36    38    1
   115    88    87    1
   116    45    44   ar
   117    67    69   ar
   118    67    64   ar
   119    61    62    1
   120    61    58    1
   121    69    70   ar
   122    87    86    1
   123    46    44   ar
   124    72    71    1
   125    72    73    1
   126    64    62   ar
   127    64    66   ar
   128    62    63   ar
   129    70    68   ar
   130    44    43    1
   131    57    58    1
   132    66    68   ar
   133    66    65   ar
   134    86    85    1
   135    63    65   ar
   136    58    59    1
   137    73    74    2
   138    85    84    1
   139    60    59    2
   140    84    81    1
   141    43    40    1
   142    39    40    1
   143    41    40    1
   144    41    42    2
   145    81    80    1
   146    81    82    1
   147    82    83    2
