@<TRIPOS>MOLECULE
tmp/2xinD00.pdb
 156 147 0 0 0
SMALL
GASTEIGER

@<TRIPOS>ATOM
      1  N         22.6030   87.3940  159.3920 N.3    14  TRP14      -0.1241
      2  CA        23.8270   86.9600  160.0610 C.3    14  TRP14       0.1605
      3  C         24.3490   85.6060  159.5810 C.2    14  TRP14       0.2264
      4  O         25.4350   85.2320  160.0740 O.2    14  TRP14      -0.2867
      5  CB        23.5870   86.9100  161.5820 C.3    14  TRP14       0.0550
      6  CG        22.6120   85.8470  161.9700 C.ar   14  TRP14       0.0003
      7  CD1       22.9020   84.5610  162.3010 C.ar   14  TRP14       0.0946
      8  CD2       21.1740   85.9660  162.0690 C.ar   14  TRP14       0.0152
      9  NE1       21.7480   83.8750  162.5960 N.ar   14  TRP14      -0.2442
     10  CE2       20.6810   84.7140  162.4610 C.ar   14  TRP14       0.0810
     11  CE3       20.2870   87.0280  161.8720 C.ar   14  TRP14       0.0012
     12  CZ2       19.3200   84.4670  162.6420 C.ar   14  TRP14       0.0191
     13  CZ3       18.9360   86.7840  162.0670 C.ar   14  TRP14       0.0001
     14  CH2       18.4550   85.5410  162.4440 C.ar   14  TRP14       0.0015
     15  N         18.8290   90.5420  163.3970 N.3    52  HIS52      -0.1241
     16  CA        18.8600   90.9960  164.7790 C.3    52  HIS52       0.1621
     17  C         19.0430   92.5210  164.5170 C.2    52  HIS52       0.2264
     18  O         19.6670   92.8660  163.5000 O.2    52  HIS52      -0.2867
     19  CB        20.0870   90.6590  165.6640 C.3    52  HIS52       0.0745
     20  CG        20.3230   89.2030  165.8440 C.ar   52  HIS52       0.0817
     21  ND1       20.9250   88.3760  164.9080 N.ar   52  HIS52      -0.2268
     22  CD2       20.0040   88.4200  166.9020 C.ar   52  HIS52       0.1154
     23  CE1       20.9650   87.1460  165.4030 C.ar   52  HIS52       0.1986
     24  NE2       20.4030   87.1370  166.6010 N.ar   52  HIS52      -0.2212
     25  N         14.4410   89.7920  165.3560 N.3    88  THR88      -0.1203
     26  CA        15.0040   89.3660  166.6320 C.3    88  THR88       0.1994
     27  C         15.9430   90.4790  167.1120 C.2    88  THR88       0.2618
     28  O         16.2880   91.4020  166.3120 O.2    88  THR88      -0.2717
     29  CB        15.6700   87.9540  166.5480 C.3    88  THR88       0.1784
     30  OG1       15.9330   87.5990  167.9340 O.3    88  THR88      -0.2211
     31  CG2       16.9180   87.9180  165.6750 C.3    88  THR88       0.0376
     32  N         16.3000   90.4090  168.3840 N.am   89  THR89      -0.1952
     33  CA        17.1690   91.3820  169.0560 C.3    89  THR89       0.1897
     34  C         18.4610   90.7710  169.5670 C.2    89  THR89       0.2313
     35  O         18.3900   89.6720  170.1380 O.2    89  THR89      -0.2863
     36  CB        16.4580   92.0070  170.3420 C.3    89  THR89       0.1794
     37  OG1       15.0540   92.1890  169.9540 O.3    89  THR89      -0.2208
     38  CG2       17.0490   93.3100  170.8500 C.3    89  THR89       0.0378
     39  N         23.2470   89.4200  173.2620 N.3    92  PHE92      -0.1298
     40  CA        24.3170   88.4910  173.6780 C.3    92  PHE92       0.1290
     41  C         25.6880   89.0090  173.3100 C.3    92  PHE92       0.2013
     42  O         26.6240   88.5350  173.9910 O.3    92  PHE92      -0.2188
     43  CB        24.0110   87.0780  173.1320 C.3    92  PHE92       0.0480
     44  CG        23.7250   87.0700  171.6490 C.ar   92  PHE92      -0.0206
     45  CD1       24.7900   87.0550  170.7350 C.ar   92  PHE92      -0.0042
     46  CD2       22.4060   87.0880  171.1850 C.ar   92  PHE92      -0.0042
     47  CE1       24.5420   87.0700  169.3740 C.ar   92  PHE92      -0.0003
     48  CE2       22.1490   87.0960  169.8150 C.ar   92  PHE92      -0.0003
     49  CZ        23.2240   87.0980  168.9090 C.ar   92  PHE92      -0.0000
     50  N         11.2580   86.6020  167.6340 N.3   133  VAL133     -0.1245
     51  CA        12.0350   85.4470  168.0930 C.3   133  VAL133      0.1561
     52  C         12.9570   85.9400  169.2280 C.2   133  VAL133      0.2260
     53  O         13.5430   87.0440  169.1060 O.2   133  VAL133     -0.2867
     54  CB        12.7320   84.6850  166.9630 C.3   133  VAL133      0.0252
     55  CG1       13.6780   83.5720  167.4620 C.3   133  VAL133      0.0019
     56  CG2       11.7100   84.0400  166.0320 C.3   133  VAL133      0.0019
     57  N         16.0860   84.5080  171.5360 N.3   135  TRP135     -0.1241
     58  CA        17.1620   83.5550  171.8310 C.3   135  TRP135      0.1605
     59  C         17.9820   84.1160  173.0160 C.2   135  TRP135      0.2264
     60  O         18.8470   85.0120  172.8580 O.2   135  TRP135     -0.2867
     61  CB        18.1190   83.2930  170.6440 C.3   135  TRP135      0.0550
     62  CG        19.2230   82.3940  171.1160 C.ar  135  TRP135      0.0003
     63  CD1       19.0540   81.1640  171.7280 C.ar  135  TRP135      0.0946
     64  CD2       20.6390   82.6290  171.0670 C.ar  135  TRP135      0.0152
     65  NE1       20.2670   80.6430  172.0590 N.ar  135  TRP135     -0.2442
     66  CE2       21.2640   81.5070  171.6660 C.ar  135  TRP135      0.0810
     67  CE3       21.4180   83.6660  170.5730 C.ar  135  TRP135      0.0012
     68  CZ2       22.6480   81.3920  171.8030 C.ar  135  TRP135      0.0191
     69  CZ3       22.7890   83.5650  170.6910 C.ar  135  TRP135      0.0001
     70  CH2       23.4080   82.4430  171.2940 C.ar  135  TRP135      0.0015
     71  N         13.5320   80.4920  171.6050 N.3   179  GLU179     -0.1245
     72  CA        14.4660   79.5420  171.0070 C.3   179  GLU179      0.1567
     73  C         15.3500   78.8770  172.0730 C.2   179  GLU179      0.2260
     74  O         16.1890   79.5690  172.6880 O.2   179  GLU179     -0.2867
     75  CB        15.4340   80.2840  170.0820 C.3   179  GLU179      0.0388
     76  CG        16.4170   79.3440  169.3360 C.3   179  GLU179      0.1160
     77  CD        16.9350   80.0180  168.0950 C.2   179  GLU179      0.3649
     78  OE1       16.5320   81.0930  167.6650 O.co2 179  GLU179     -0.2457
     79  OE2       17.8550   79.3610  167.5540 O.co2 179  GLU179     -0.2457
     80  N         18.2620   76.3030  173.6450 N.3   181  LYS181     -0.1245
     81  CA        19.6600   75.9400  173.3880 C.3   181  LYS181      0.1561
     82  C         20.2120   75.4530  174.7360 C.2   181  LYS181      0.2260
     83  O         19.9980   76.1180  175.7680 O.2   181  LYS181     -0.2867
     84  CB        20.5340   77.0720  172.8800 C.3   181  LYS181      0.0271
     85  CG        21.8620   76.5370  172.3350 C.3   181  LYS181      0.0035
     86  CD        22.6630   77.6520  171.7030 C.3   181  LYS181      0.0206
     87  CE        23.9480   77.2070  171.0040 C.3   181  LYS181      0.1093
     88  NZ        24.4570   78.4390  170.3390 N.3   181  LYS181     -0.1314
     89  N         10.8370   78.3350  168.8060 N.3   213  ASN213     -0.1240
     90  CA        11.6110   78.3850  167.5590 C.3   213  ASN213      0.1653
     91  C         12.7780   77.4040  167.7920 C.2   213  ASN213      0.2266
     92  O         13.8720   77.8850  168.0870 O.2   213  ASN213     -0.2867
     93  CB        12.1600   79.7600  167.2500 C.3   213  ASN213      0.1155
     94  CG        13.0740   79.7640  166.0480 C.2   213  ASN213      0.2627
     95  OD1       12.6460   79.2120  165.0180 O.2   213  ASN213     -0.2716
     96  ND2       14.2700   80.3300  166.0120 N.am  213  ASN213     -0.0877
     97  N         15.7650   74.6670  167.0750 N.3   215  GLU215     -0.1245
     98  CA        16.7830   74.6310  166.0040 C.3   215  GLU215      0.1567
     99  C         17.4110   73.2590  165.9220 C.2   215  GLU215      0.2260
    100  O         17.7280   72.7320  166.9960 O.2   215  GLU215     -0.2867
    101  CB        17.9070   75.5910  166.3430 C.3   215  GLU215      0.0388
    102  CG        18.8570   75.6890  165.1730 C.3   215  GLU215      0.1160
    103  CD        19.7740   76.8720  165.2380 C.2   215  GLU215      0.3649
    104  OE1       19.1930   77.9610  165.1450 O.co2 215  GLU215     -0.2457
    105  OE2       20.9610   76.6840  165.3240 O.co2 215  GLU215     -0.2457
    106  N         20.6670   72.6690  167.9470 N.3   218  HIS218     -0.1241
    107  CA        20.5170   72.8860  169.3940 C.3   218  HIS218      0.1621
    108  C         20.0430   71.6180  170.0890 C.2   218  HIS218      0.2264
    109  O         20.5540   71.3050  171.1870 O.2   218  HIS218     -0.2867
    110  CB        19.5130   73.9950  169.7780 C.3   218  HIS218      0.0745
    111  CG        19.9970   75.3130  169.2480 C.ar  218  HIS218      0.0817
    112  ND1       19.3860   76.5140  169.5080 N.ar  218  HIS218     -0.2268
    113  CD2       21.0590   75.6100  168.4890 C.ar  218  HIS218      0.1154
    114  CE1       20.0500   77.5010  168.9540 C.ar  218  HIS218      0.1986
    115  NE2       21.0450   76.9900  168.3180 N.ar  218  HIS218     -0.2212
    116  N         14.3140   76.7830  162.9340 N.3   243  ASP243     -0.1239
    117  CA        15.6720   77.0700  162.4870 C.3   243  ASP243      0.1674
    118  C         16.2790   75.7230  162.0180 C.2   243  ASP243      0.2266
    119  O         16.3590   74.7530  162.8040 O.2   243  ASP243     -0.2867
    120  CB        16.4980   77.7360  163.5620 C.3   243  ASP243      0.1410
    121  CG        16.3540   79.2380  163.6910 C.2   243  ASP243      0.3668
    122  OD1       15.6420   79.7910  162.8410 O.co2 243  ASP243     -0.2456
    123  OD2       16.9530   79.8320  164.6240 O.co2 243  ASP243     -0.2456
    124  N         28.7850   74.2210  168.6380 N.3   253  ASP253     -0.1295
    125  CA        27.7610   74.6490  167.6990 C.3   253  ASP253      0.1359
    126  C         28.3620   74.6780  166.2910 C.3   253  ASP253      0.2015
    127  O         29.0830   75.6650  166.0940 O.3   253  ASP253     -0.2188
    128  CB        27.5970   76.1170  168.0470 C.3   253  ASP253      0.1357
    129  CG        26.2900   76.7270  168.2900 C.2   253  ASP253      0.3664
    130  OD1       25.2180   76.4350  167.7850 O.co2 253  ASP253     -0.2456
    131  OD2       26.3460   77.7010  169.0660 O.co2 253  ASP253     -0.2456
    132  N         26.5680   74.7040  163.1520 N.3   255  ASP255     -0.1239
    133  CA        25.8000   75.5060  162.1910 C.3   255  ASP255      0.1674
    134  C         26.1110   75.1150  160.7420 C.2   255  ASP255      0.2266
    135  O         26.3240   76.0510  159.9720 O.2   255  ASP255     -0.2867
    136  CB        26.0550   76.9960  162.4080 C.3   255  ASP255      0.1410
    137  CG        25.3680   77.5140  163.6410 C.2   255  ASP255      0.3668
    138  OD1       24.3040   77.0930  164.1160 O.co2 255  ASP255     -0.2456
    139  OD2       25.9510   78.4440  164.2430 O.co2 255  ASP255     -0.2456
    140  N         19.3640   78.6700  159.7220 N.3   290  ASP290     -0.1239
    141  CA        20.1920   79.3750  160.7300 C.3   290  ASP290      0.1674
    142  C         21.4810   78.5550  160.7770 C.2   290  ASP290      0.2266
    143  O         21.6680   77.6850  161.6320 O.2   290  ASP290     -0.2867
    144  CB        19.4920   79.5480  162.0610 C.3   290  ASP290      0.1410
    145  CG        20.2840   80.4070  163.0440 C.2   290  ASP290      0.3668
    146  OD1       21.3810   80.8450  162.6460 O.co2 290  ASP290     -0.2456
    147  OD2       19.8800   80.6870  164.2060 O.co2 290  ASP290     -0.2456
    148  N         25.9220   78.7300  159.1290 N.3   292  LYS292     -0.1245
    149  CA        27.0780   79.5590  158.8330 C.3   292  LYS292      0.1561
    150  C         27.9720   78.9510  157.7550 C.2   292  LYS292      0.2260
    151  O         28.2890   77.7600  157.8970 O.2   292  LYS292     -0.2867
    152  CB        28.0160   79.6400  160.0490 C.3   292  LYS292      0.0271
    153  CG        27.3770   80.4520  161.1680 C.3   292  LYS292      0.0035
    154  CD        28.2560   80.3690  162.3970 C.3   292  LYS292      0.0206
    155  CE        27.7680   81.4310  163.3820 C.3   292  LYS292      0.1093
    156  NZ        26.2910   81.4070  163.6160 N.3   292  LYS292     -0.1314
@<TRIPOS>BOND
     1   150   151    2
     2   150   149    1
     3   149   148    1
     4   149   152    1
     5     1     2    1
     6     3     2    1
     7     3     4    2
     8   140   141    1
     9   135   134    2
    10   152   153    1
    11     2     5    1
    12   141   142    1
    13   141   144    1
    14   134   133    1
    15   142   143    2
    16   153   154    1
    17     5     6    1
    18    11    13   ar
    19    11     8   ar
    20     6     8   ar
    21     6     7   ar
    22   118   117    1
    23   118   119    2
    24   144   145    1
    25    13    14   ar
    26     8    10   ar
    27   133   136    1
    28   133   132    1
    29     7     9   ar
    30   154   155    1
    31   136   137    1
    32    14    12   ar
    33    10     9   ar
    34    10    12   ar
    35   117   116    1
    36   117   120    1
    37   146   145   ar
    38   122   121   ar
    39   145   147   ar
    40   155   156    1
    41    15    16    1
    42    18    17    2
    43   120   121    1
    44   137   138   ar
    45   137   139   ar
    46   121   123   ar
    47    17    16    1
    48    16    19    1
    49    21    23   ar
    50    21    20   ar
    51    95    94    2
    52   104   103   ar
    53   102   103    1
    54   102   101    1
    55   103   105   ar
    56    25    26    1
    57    23    24   ar
    58    19    20    1
    59    31    29    1
    60    20    22   ar
    61    99    98    1
    62    99   100    2
    63    98   101    1
    64    98    97    1
    65    96    94   am
    66    56    54    1
    67    94    93    1
    68   127   126    1
    69   126   125    1
    70    28    27    2
    71    29    26    1
    72    29    30    1
    73    24    22   ar
    74    26    27    1
    75    54    55    1
    76    54    51    1
    77    27    32   am
    78    93    90    1
    79    79    77   ar
    80    90    91    1
    81    90    89    1
    82    50    51    1
    83    78    77   ar
    84   125   128    1
    85   125   124    1
    86   130   129   ar
    87    91    92    2
    88   106   107    1
    89   128   129    1
    90    51    52    1
    91    77    76    1
    92   129   131   ar
    93   115   113   ar
    94   115   114   ar
    95    32    33    1
    96   113   111   ar
    97    49    47   ar
    98    49    48   ar
    99   114   112   ar
   100    33    34    1
   101    33    36    1
   102    53    52    2
   103   111   112   ar
   104   111   110    1
   105    76    75    1
   106    47    45   ar
   107   107   110    1
   108   107   108    1
   109    34    35    2
   110    48    46   ar
   111    37    36    1
   112    75    72    1
   113   108   109    2
   114    88    87    1
   115    36    38    1
   116    67    69   ar
   117    67    64   ar
   118    61    62    1
   119    61    58    1
   120    69    70   ar
   121    45    44   ar
   122    87    86    1
   123    72    71    1
   124    72    73    1
   125    64    62   ar
   126    64    66   ar
   127    62    63   ar
   128    46    44   ar
   129    70    68   ar
   130    57    58    1
   131    44    43    1
   132    66    68   ar
   133    66    65   ar
   134    86    85    1
   135    63    65   ar
   136    58    59    1
   137    73    74    2
   138    85    84    1
   139    60    59    2
   140    84    81    1
   141    43    40    1
   142    39    40    1
   143    41    40    1
   144    41    42    1
   145    81    80    1
   146    81    82    1
   147    82    83    2
