@<TRIPOS>MOLECULE
tmp/2xirA00.pdb
 194 185 0 0 0
SMALL
GASTEIGER

@<TRIPOS>ATOM
      1  N         15.7580   22.8130   45.9370 N.3    25  LEU25      -0.1245
      2  CA        15.2830   23.4690   44.7240 C.3    25  LEU25       0.1561
      3  C         14.9400   22.4450   43.6450 C.2    25  LEU25       0.2260
      4  O         14.1710   22.7330   42.7270 O.2    25  LEU25      -0.2867
      5  CB        16.3340   24.4570   44.2080 C.3    25  LEU25       0.0270
      6  CG        16.6530   25.6820   45.0740 C.3    25  LEU25       0.0019
      7  CD1       17.9050   26.3850   44.5720 C.3    25  LEU25       0.0001
      8  CD2       15.4780   26.6560   45.1270 C.3    25  LEU25       0.0001
      9  N         19.6450   19.7850   44.1820 N.3    33  VAL33      -0.1245
     10  CA        20.0810   21.1750   44.2350 C.3    33  VAL33       0.1561
     11  C         19.4000   21.8090   45.4340 C.2    33  VAL33       0.2260
     12  O         18.1880   21.6820   45.6050 O.2    33  VAL33      -0.2867
     13  CB        19.7280   21.9480   42.9440 C.3    33  VAL33       0.0252
     14  CG1       20.0530   23.4310   43.0940 C.3    33  VAL33       0.0019
     15  CG2       20.4810   21.3690   41.7610 C.3    33  VAL33       0.0019
     16  N         19.0910   25.4520   47.8930 N.3    35  GLU35      -0.1245
     17  CA        19.3710   26.8650   48.0860 C.3    35  GLU35       0.1567
     18  C         20.2440   27.0190   49.3270 C.2    35  GLU35       0.2260
     19  O         20.0690   26.2920   50.3030 O.2    35  GLU35      -0.2867
     20  CB        18.0700   27.6500   48.2450 C.3    35  GLU35       0.0388
     21  CG        18.2420   29.1580   48.1500 C.3    35  GLU35       0.1160
     22  CD        16.9350   29.9180   48.2700 C.2    35  GLU35       0.3649
     23  OE1       15.8660   29.3330   47.9870 O.co2  35  GLU35      -0.2457
     24  OE2       16.9830   31.1090   48.6440 O.co2  35  GLU35      -0.2457
     25  N         22.9940   28.4750   44.7300 N.3    51  ALA51      -0.1245
     26  CA        22.4410   27.1380   44.5860 C.3    51  ALA51       0.1562
     27  C         23.5940   26.1570   44.6390 C.2    51  ALA51       0.2260
     28  O         24.6510   26.4050   44.0630 O.2    51  ALA51      -0.2867
     29  CB        21.6950   27.0070   43.2730 C.3    51  ALA51       0.0290
     30  N         24.7350   22.0630   44.0830 N.3    53  LYS53      -0.1245
     31  CA        24.4680   20.7040   43.6460 C.3    53  LYS53       0.1561
     32  C         25.3020   19.7400   44.4710 C.2    53  LYS53       0.2260
     33  O         26.5010   19.9390   44.6660 O.2    53  LYS53      -0.2867
     34  CB        24.7610   20.5240   42.1550 C.3    53  LYS53       0.0271
     35  CG        24.3190   19.1590   41.6210 C.3    53  LYS53       0.0035
     36  CD        24.7230   18.9280   40.1760 C.3    53  LYS53       0.0206
     37  CE        23.7210   19.5220   39.2070 C.3    53  LYS53       0.1093
     38  NZ        24.0120   19.0670   37.8280 N.3    53  LYS53      -0.1314
     39  N         31.9370   16.9600   36.5150 N.3    70  GLU70      -0.1245
     40  CA        31.0670   18.0970   36.2300 C.3    70  GLU70       0.1567
     41  C         31.6970   19.4060   36.7130 C.2    70  GLU70       0.2260
     42  O         31.7000   20.4000   35.9880 O.2    70  GLU70      -0.2867
     43  CB        29.7050   17.8790   36.8880 C.3    70  GLU70       0.0388
     44  CG        28.6950   18.9810   36.6390 C.3    70  GLU70       0.1160
     45  CD        27.3660   18.7050   37.3070 C.2    70  GLU70       0.3649
     46  OE1       27.0090   17.5180   37.4840 O.co2  70  GLU70      -0.2457
     47  OE2       26.6770   19.6760   37.6580 O.co2  70  GLU70      -0.2457
     48  N         34.7320   20.2010   34.3990 N.3    73  ILE73      -0.1231
     49  CA        34.3320   20.7180   33.0890 C.3    73  ILE73       0.1692
     50  C         33.8080   22.1590   33.1770 C.2    73  ILE73       0.2591
     51  O         34.0730   22.9680   32.2890 O.2    73  ILE73      -0.2718
     52  CB        33.3650   19.7540   32.3150 C.3    73  ILE73       0.0266
     53  CG1       33.4080   20.0350   30.8040 C.3    73  ILE73       0.0019
     54  CG2       31.9390   19.8120   32.8560 C.3    73  ILE73       0.0020
     55  CD1       34.6840   19.5690   30.1120 C.3    73  ILE73       0.0001
     56  N         33.0980   22.4880   34.2560 N.am   74  LEU74      -0.1980
     57  CA        32.6450   23.8620   34.4660 C.3    74  LEU74       0.1596
     58  C         33.8160   24.8310   34.6160 C.2    74  LEU74       0.2287
     59  O         33.7560   25.9600   34.1310 O.2    74  LEU74      -0.2864
     60  CB        31.7090   23.9640   35.6710 C.3    74  LEU74       0.0297
     61  CG        30.2820   23.4460   35.4670 C.3    74  LEU74       0.0022
     62  CD1       29.5610   23.3810   36.8030 C.3    74  LEU74       0.0001
     63  CD2       29.5080   24.3140   34.4690 C.3    74  LEU74       0.0001
     64  N         25.2850   29.0310   33.4210 N.3    84  VAL84      -0.1245
     65  CA        25.1940   29.0790   34.8810 C.3    84  VAL84       0.1561
     66  C         26.6150   29.1980   35.4370 C.2    84  VAL84       0.2260
     67  O         27.5210   28.4740   35.0170 O.2    84  VAL84      -0.2867
     68  CB        24.4120   27.8790   35.4720 C.3    84  VAL84       0.0252
     69  CG1       25.1780   26.5790   35.3070 C.3    84  VAL84       0.0019
     70  CG2       24.0500   28.1360   36.9400 C.3    84  VAL84       0.0019
     71  N         28.9340   21.5270   44.6980 N.3    99  VAL99      -0.1245
     72  CA        29.2840   22.4180   43.6000 C.3    99  VAL99       0.1561
     73  C         28.3600   23.6320   43.6620 C.2    99  VAL99       0.2260
     74  O         27.1380   23.4970   43.5540 O.2    99  VAL99      -0.2867
     75  CB        29.1980   21.6990   42.2290 C.3    99  VAL99       0.0252
     76  CG1       29.6440   22.6220   41.1160 C.3    99  VAL99       0.0019
     77  CG2       30.0600   20.4340   42.2280 C.3    99  VAL99       0.0019
     78  N         26.8850   27.2710   42.5590 N.3   101  VAL101     -0.1231
     79  CA        26.6400   28.1570   41.4200 C.3   101  VAL101      0.1692
     80  C         25.7540   29.3350   41.8130 C.2   101  VAL101      0.2592
     81  O         25.1080   29.3230   42.8650 O.2   101  VAL101     -0.2718
     82  CB        26.0110   27.4060   40.2040 C.3   101  VAL101      0.0266
     83  CG1       26.9210   26.2790   39.7210 C.3   101  VAL101      0.0020
     84  CG2       24.6100   26.8770   40.5370 C.3   101  VAL101      0.0020
     85  N         25.7320   30.3540   40.9590 N.am  102  GLU102     -0.1966
     86  CA        24.8900   31.5250   41.1860 C.3   102  GLU102      0.1733
     87  C         23.4070   31.1600   41.2280 C.2   102  GLU102      0.2616
     88  O         22.9450   30.3010   40.4700 O.2   102  GLU102     -0.2715
     89  CB        25.1340   32.5660   40.0990 C.3   102  GLU102      0.0429
     90  CG        24.6210   32.1600   38.7300 C.3   102  GLU102      0.1163
     91  CD        24.9140   33.1850   37.6670 C.2   102  GLU102      0.3649
     92  OE1       24.7200   34.3950   37.9290 O.co2 102  GLU102     -0.2457
     93  OE2       25.3340   32.7750   36.5650 O.co2 102  GLU102     -0.2457
     94  N         22.6720   31.8220   42.1150 N.am  103  PHE103     -0.1960
     95  CA        21.2380   31.6070   42.2570 C.3   103  PHE103      0.1771
     96  C         20.4900   32.3850   41.1770 C.2   103  PHE103      0.2620
     97  O         20.7430   33.5750   40.9710 O.2   103  PHE103     -0.2715
     98  CB        20.7730   32.0380   43.6540 C.3   103  PHE103      0.0574
     99  CG        19.3050   31.8070   43.9130 C.ar  103  PHE103     -0.0200
    100  CD1       18.8270   30.5360   44.2160 C.ar  103  PHE103     -0.0042
    101  CD2       18.4040   32.8690   43.8690 C.ar  103  PHE103     -0.0042
    102  CE1       17.4710   30.3220   44.4610 C.ar  103  PHE103     -0.0003
    103  CE2       17.0460   32.6650   44.1140 C.ar  103  PHE103     -0.0003
    104  CZ        16.5790   31.3890   44.4100 C.ar  103  PHE103     -0.0000
    105  N         19.5770   31.7010   40.4920 N.am  104  CYS104     -0.1954
    106  CA        18.7750   32.3140   39.4380 C.3   104  CYS104      0.1843
    107  C         17.3230   32.4470   39.8940 C.2   104  CYS104      0.2625
    108  O         16.6040   31.4540   40.0210 O.2   104  CYS104     -0.2714
    109  CB        18.8910   31.5080   38.1390 C.3   104  CYS104      0.0997
    110  SG        20.5750   31.4730   37.4710 S.3   104  CYS104     -0.0797
    111  N         16.9230   33.6950   40.1310 N.am  105  LYS105     -0.1963
    112  CA        15.6500   34.0710   40.7590 C.3   105  LYS105      0.1728
    113  C         14.4180   33.2690   40.3270 C.2   105  LYS105      0.2616
    114  O         13.6380   32.8210   41.1680 O.2   105  LYS105     -0.2715
    115  CB        15.3980   35.5730   40.5410 C.3   105  LYS105      0.0311
    116  CG        14.1460   36.1310   41.2040 C.3   105  LYS105      0.0038
    117  CD        13.9840   37.6120   40.8950 C.3   105  LYS105      0.0206
    118  CE        12.7040   38.1730   41.5000 C.3   105  LYS105      0.1093
    119  NZ        12.4880   39.5980   41.1200 N.3   105  LYS105     -0.1314
    120  N         14.2460   33.0970   39.0200 N.am  106  PHE106     -0.1960
    121  CA        13.0010   32.5430   38.4940 C.3   106  PHE106      0.1771
    122  C         13.0230   31.0380   38.2300 C.2   106  PHE106      0.2620
    123  O         12.0050   30.4620   37.8350 O.2   106  PHE106     -0.2715
    124  CB        12.5690   33.3060   37.2390 C.3   106  PHE106      0.0574
    125  CG        12.1800   34.7310   37.5050 C.ar  106  PHE106     -0.0200
    126  CD1       10.9180   35.0380   38.0060 C.ar  106  PHE106     -0.0042
    127  CD2       13.0740   35.7670   37.2580 C.ar  106  PHE106     -0.0042
    128  CE1       10.5530   36.3580   38.2550 C.ar  106  PHE106     -0.0003
    129  CE2       12.7170   37.0900   37.5020 C.ar  106  PHE106     -0.0003
    130  CZ        11.4540   37.3840   38.0020 C.ar  106  PHE106     -0.0000
    131  N         14.1720   30.4040   38.4620 N.am  107  GLY107     -0.1940
    132  CA        14.3090   28.9650   38.2430 C.3   107  GLY107      0.2014
    133  C         14.2780   28.5900   36.7720 C.2   107  GLY107      0.2638
    134  O         14.5770   29.4170   35.9060 O.2   107  GLY107     -0.2714
    135  N         13.8970   27.3470   36.4880 N.am  108  ASN108     -0.1972
    136  CA        13.9230   26.8340   35.1160 C.3   108  ASN108      0.1688
    137  C         12.9040   27.5240   34.2060 C.2   108  ASN108      0.2292
    138  O         11.7890   27.8580   34.6300 O.2   108  ASN108     -0.2864
    139  CB        13.7720   25.3080   35.0880 C.3   108  ASN108      0.1181
    140  CG        12.3260   24.8660   35.0390 C.2   108  ASN108      0.2629
    141  OD1       11.7360   24.7650   33.9630 O.2   108  ASN108     -0.2716
    142  ND2       11.7480   24.5930   36.2040 N.am  108  ASN108     -0.0877
    143  N          9.0460   25.8610   33.3160 N.3   111  THR111     -0.1203
    144  CA         8.0380   26.1300   34.3380 C.3   111  THR111      0.1994
    145  C          7.6570   27.6080   34.3650 C.2   111  THR111      0.2617
    146  O          6.4800   27.9470   34.5000 O.2   111  THR111     -0.2717
    147  CB         8.5250   25.6720   35.7280 C.3   111  THR111      0.1784
    148  OG1        8.8920   24.2890   35.6670 O.3   111  THR111     -0.2211
    149  CG2        7.4370   25.8590   36.7900 C.3   111  THR111      0.0376
    150  N          8.6480   28.4860   34.2160 N.am  112  TYR112     -0.1975
    151  CA         8.3910   29.9210   34.2400 C.3   112  TYR112      0.1639
    152  C          7.4790   30.3730   33.1020 C.2   112  TYR112      0.2290
    153  O          6.4840   31.0520   33.3400 O.2   112  TYR112     -0.2864
    154  CB         9.6920   30.7380   34.2320 C.3   112  TYR112      0.0560
    155  CG         9.4260   32.2260   34.1630 C.ar  112  TYR112     -0.0198
    156  CD1        9.0450   32.9370   35.3020 C.ar  112  TYR112     -0.0009
    157  CD2        9.5170   32.9150   32.9540 C.ar  112  TYR112     -0.0009
    158  CE1        8.7760   34.2990   35.2410 C.ar  112  TYR112      0.0417
    159  CE2        9.2530   34.2780   32.8820 C.ar  112  TYR112      0.0417
    160  CZ         8.8850   34.9620   34.0300 C.ar  112  TYR112      0.1957
    161  OH         8.6230   36.3110   33.9620 O.3   112  TYR112     -0.2866
    162  N         17.9510   28.4380   32.9370 N.3   163  LEU163     -0.1245
    163  CA        17.5530   29.1730   34.1360 C.3   163  LEU163      0.1561
    164  C         17.3060   30.6400   33.8060 C.2   163  LEU163      0.2260
    165  O         18.0040   31.2200   32.9720 O.2   163  LEU163     -0.2867
    166  CB        18.6360   29.0680   35.2140 C.3   163  LEU163      0.0270
    167  CG        18.9630   27.6830   35.7830 C.3   163  LEU163      0.0019
    168  CD1       20.3430   27.6870   36.4250 C.3   163  LEU163      0.0001
    169  CD2       17.9100   27.1970   36.7730 C.3   163  LEU163      0.0001
    170  N         22.2570   25.4730   31.7140 N.3   173  CYS173     -0.1221
    171  CA        22.7040   24.6210   32.8050 C.3   173  CYS173      0.1808
    172  C         22.3630   23.1700   32.4930 C.2   173  CYS173      0.2601
    173  O         21.8270   22.8620   31.4290 O.2   173  CYS173     -0.2717
    174  CB        22.0370   25.0460   34.1160 C.3   173  CYS173      0.0970
    175  SG        20.3030   24.5480   34.2590 S.3   173  CYS173     -0.0800
    176  N         22.6900   22.2790   33.4220 N.am  174  ASP174     -0.1959
    177  CA        22.2050   20.9080   33.3620 C.3   174  ASP174      0.1840
    178  C         21.9270   20.4200   34.7710 C.2   174  ASP174      0.2622
    179  O         22.8460   20.2470   35.5660 O.2   174  ASP174     -0.2715
    180  CB        23.2010   19.9800   32.6540 C.3   174  ASP174      0.1450
    181  CG        22.5670   18.6630   32.2180 C.2   174  ASP174      0.3671
    182  OD1       23.0060   18.0930   31.2000 O.co2 174  ASP174     -0.2456
    183  OD2       21.6250   18.1950   32.8860 O.co2 174  ASP174     -0.2456
    184  N         20.6510   20.2050   35.0790 N.am  175  PHE175     -0.1974
    185  CA        20.2750   19.6770   36.3890 C.3   175  PHE175      0.1639
    186  C         20.8750   18.2910   36.6450 C.2   175  PHE175      0.2290
    187  O         21.1840   17.9510   37.7870 O.2   175  PHE175     -0.2864
    188  CB        18.7540   19.6370   36.5480 C.3   175  PHE175      0.0560
    189  CG        18.1480   20.9560   36.9440 C.ar  175  PHE175     -0.0200
    190  CD1       17.8920   21.9370   35.9900 C.ar  175  PHE175     -0.0042
    191  CD2       17.8270   21.2130   38.2730 C.ar  175  PHE175     -0.0042
    192  CE1       17.3250   23.1550   36.3540 C.ar  175  PHE175     -0.0003
    193  CE2       17.2580   22.4320   38.6470 C.ar  175  PHE175     -0.0003
    194  CZ        17.0080   23.4030   37.6870 C.ar  175  PHE175     -0.0000
@<TRIPOS>BOND
     1    55    53    1
     2    53    52    1
     3   182   181   ar
     4   173   172    2
     5   170   171    1
     6   181   180    1
     7   181   183   ar
     8    51    50    2
     9    52    54    1
    10    52    49    1
    11   172   171    1
    12   172   176   am
    13   180   177    1
    14   171   174    1
    15   159   157   ar
    16   159   160   ar
    17   162   163    1
    18   157   155   ar
    19   165   164    2
    20    49    50    1
    21    49    48    1
    22   152   153    2
    23   152   151    1
    24    50    56   am
    25   143   144    1
    26   177   176    1
    27   177   178    1
    28    64    65    1
    29   164   163    1
    30   161   160    1
    31   141   140    2
    32   160   158   ar
    33   174   175    1
    34    59    58    2
    35   163   166    1
    36   155   154    1
    37   155   156   ar
    38   137   138    2
    39   137   136    1
    40   150   151    1
    41   150   145   am
    42   154   151    1
    43    56    57    1
    44   144   145    1
    45   144   147    1
    46   145   146    2
    47    57    58    1
    48    57    60    1
    49    63    61    1
    50   178   184   am
    51   178   179    2
    52    65    66    1
    53    65    68    1
    54    67    66    2
    55   140   139    1
    56   140   142   am
    57   184   185    1
    58   139   136    1
    59   136   135    1
    60   166   167    1
    61   158   156   ar
    62    69    68    1
    63    61    60    1
    64    61    62    1
    65    68    70    1
    66   148   147    1
    67   147   149    1
    68   167   168    1
    69   167   169    1
    70   134   133    2
    71    42    41    2
    72   190   192   ar
    73   190   189   ar
    74    40    39    1
    75    40    41    1
    76    40    43    1
    77   192   194   ar
    78   185   188    1
    79   185   186    1
    80   135   133   am
    81   188   189    1
    82    93    91   ar
    83    44    43    1
    84    44    45    1
    85   186   187    2
    86   133   132    1
    87   189   191   ar
    88   124   125    1
    89   124   121    1
    90   127   129   ar
    91   127   125   ar
    92    45    46   ar
    93    45    47   ar
    94   110   109    1
    95   129   130   ar
    96   125   126   ar
    97    91    92   ar
    98    91    90    1
    99   194   193   ar
   100    38    37    1
   101   123   122    2
   102   130   128   ar
   103   126   128   ar
   104   109   106    1
   105   122   131   am
   106   122   121    1
   107   132   131    1
   108   191   193   ar
   109   121   120    1
   110    90    89    1
   111   120   113   am
   112    37    36    1
   113   106   107    1
   114   106   105    1
   115    83    82    1
   116   107   108    2
   117   107   111   am
   118    89    86    1
   119   111   112    1
   120    36    35    1
   121    82    84    1
   122    82    79    1
   123   113   112    1
   124   113   114    2
   125    88    87    2
   126   105    96   am
   127   115   112    1
   128   115   116    1
   129   117   116    1
   130   117   118    1
   131    85    86    1
   132    85    80   am
   133    97    96    2
   134    76    75    1
   135   119   118    1
   136    96    95    1
   137    86    87    1
   138    87    94   am
   139    79    80    1
   140    79    78    1
   141    35    34    1
   142    15    13    1
   143    80    81    2
   144    94    95    1
   145    34    31    1
   146    77    75    1
   147    75    72    1
   148    95    98    1
   149     4     3    2
   150    13    14    1
   151    13    10    1
   152    29    26    1
   153    74    73    2
   154    72    73    1
   155    72    71    1
   156     3     2    1
   157    31    30    1
   158    31    32    1
   159    98    99    1
   160   101    99   ar
   161   101   103   ar
   162    99   100   ar
   163    28    27    2
   164   103   104   ar
   165     9    10    1
   166     5     2    1
   167     5     6    1
   168   100   102   ar
   169    10    11    1
   170   104   102   ar
   171    32    33    2
   172     7     6    1
   173    26    27    1
   174    26    25    1
   175     2     1    1
   176     6     8    1
   177    11    12    2
   178    16    17    1
   179    23    22   ar
   180    17    20    1
   181    17    18    1
   182    21    20    1
   183    21    22    1
   184    22    24   ar
   185    18    19    2
