@<TRIPOS>MOLECULE
tmp/2xixA00.pdb
 107 98 0 0 0
SMALL
GASTEIGER

@<TRIPOS>ATOM
      1  N        -16.3720  -38.6290   -5.2040 N.3    12  LEU12      -0.1245
      2  CA       -17.7900  -38.4700   -5.5230 C.3    12  LEU12       0.1561
      3  C        -18.0600  -37.1730   -6.2750 C.2    12  LEU12       0.2260
      4  O        -18.9290  -37.1250   -7.1410 O.2    12  LEU12      -0.2867
      5  CB       -18.6310  -38.4930   -4.2430 C.3    12  LEU12       0.0270
      6  CG       -18.7290  -39.8040   -3.4580 C.3    12  LEU12       0.0019
      7  CD1      -19.4750  -39.5600   -2.1690 C.3    12  LEU12       0.0001
      8  CD2      -19.4200  -40.9040   -4.2700 C.3    12  LEU12       0.0001
      9  N        -17.5850  -26.2440   -2.8390 N.3    17  PHE17      -0.1241
     10  CA       -17.6980  -26.8700   -1.5100 C.3    17  PHE17       0.1605
     11  C        -16.4480  -27.5830   -0.9980 C.2    17  PHE17       0.2264
     12  O        -16.2350  -27.6900    0.2150 O.2    17  PHE17      -0.2867
     13  CB       -18.9000  -27.8310   -1.4260 C.3    17  PHE17       0.0534
     14  CG       -18.9720  -28.8670   -2.5280 C.ar   17  PHE17      -0.0203
     15  CD1      -18.4070  -30.1320   -2.3530 C.ar   17  PHE17      -0.0042
     16  CD2      -19.6520  -28.5910   -3.7270 C.ar   17  PHE17      -0.0042
     17  CE1      -18.4910  -31.0950   -3.3730 C.ar   17  PHE17      -0.0003
     18  CE2      -19.7430  -29.5500   -4.7440 C.ar   17  PHE17      -0.0003
     19  CZ       -19.1600  -30.8080   -4.5620 C.ar   17  PHE17      -0.0000
     20  N        -15.1210  -34.3430   -2.2410 N.3    20  VAL20      -0.1245
     21  CA       -15.8400  -35.3210   -1.4480 C.3    20  VAL20       0.1561
     22  C        -15.5850  -36.7240   -1.9670 C.2    20  VAL20       0.2260
     23  O        -15.7530  -36.9970   -3.1740 O.2    20  VAL20      -0.2867
     24  CB       -17.3470  -35.0280   -1.4180 C.3    20  VAL20       0.0252
     25  CG1      -18.0490  -35.9080   -0.3820 C.3    20  VAL20       0.0019
     26  CG2      -17.5790  -33.5660   -1.1030 C.3    20  VAL20       0.0019
     27  N        -19.2110  -40.1930    3.6680 N.3    33  ALA33      -0.1245
     28  CA       -18.6480  -39.2720    2.6940 C.3    33  ALA33       0.1562
     29  C        -17.5690  -38.4890    3.4100 C.2    33  ALA33       0.2260
     30  O        -17.7520  -38.0550    4.5530 O.2    33  ALA33      -0.2867
     31  CB       -19.7170  -38.3330    2.1080 C.3    33  ALA33       0.0290
     32  N        -15.4000  -35.3040    3.1600 N.3    35  LYS35      -0.1245
     33  CA       -15.2820  -33.9890    2.5520 C.3    35  LYS35       0.1561
     34  C        -14.0620  -33.2400    3.0930 C.2    35  LYS35       0.2260
     35  O        -13.8830  -33.1080    4.3000 O.2    35  LYS35      -0.2867
     36  CB       -16.5510  -33.1870    2.8290 C.3    35  LYS35       0.0271
     37  CG       -16.5650  -31.7960    2.2150 C.3    35  LYS35       0.0035
     38  CD       -17.8670  -31.1310    2.5760 C.3    35  LYS35       0.0206
     39  CE       -18.1350  -29.9290    1.7310 C.3    35  LYS35       0.1093
     40  NZ       -19.4930  -29.4090    2.0340 N.3    35  LYS35      -0.1314
     41  N        -28.2730  -33.5950    6.1570 N.3    72  ILE72      -0.1245
     42  CA       -27.1180  -34.4770    6.3060 C.3    72  ILE72       0.1561
     43  C        -26.5600  -34.4550    7.7370 C.2    72  ILE72       0.2260
     44  O        -26.6410  -33.4540    8.4350 O.2    72  ILE72      -0.2867
     45  CB       -25.9950  -34.1180    5.3270 C.3    72  ILE72       0.0252
     46  CG1      -25.0710  -35.3250    5.1240 C.3    72  ILE72       0.0019
     47  CG2      -25.2630  -32.8210    5.7470 C.3    72  ILE72       0.0019
     48  CD1      -25.6400  -36.3150    4.1290 C.3    72  ILE72       0.0001
     49  N        -19.2260  -37.4390    6.8860 N.3    88  LEU88      -0.1231
     50  CA       -20.6680  -37.2530    6.7640 C.3    88  LEU88       0.1693
     51  C        -21.3540  -38.5640    6.4600 C.2    88  LEU88       0.2592
     52  O        -20.7450  -39.4530    5.8720 O.2    88  LEU88      -0.2718
     53  CB       -20.9680  -36.2630    5.6460 C.3    88  LEU88       0.0284
     54  CG       -20.4160  -34.8760    5.9530 C.3    88  LEU88       0.0019
     55  CD1      -19.9960  -34.2240    4.6880 C.3    88  LEU88       0.0001
     56  CD2      -21.4540  -34.0370    6.7260 C.3    88  LEU88       0.0001
     57  N        -22.6190  -38.6990    6.8610 N.am   89  GLU89      -0.1966
     58  CA       -23.4080  -39.8760    6.4610 C.3    89  GLU89       0.1733
     59  C        -23.4850  -39.9840    4.9390 C.2    89  GLU89       0.2616
     60  O        -23.4860  -38.9720    4.2410 O.2    89  GLU89      -0.2715
     61  CB       -24.8130  -39.8830    7.0880 C.3    89  GLU89       0.0429
     62  CG       -25.7280  -38.7070    6.7200 C.3    89  GLU89       0.1163
     63  CD       -27.2180  -39.0160    6.9200 C.2    89  GLU89       0.3649
     64  OE1      -27.7530  -39.9360    6.2410 O.co2  89  GLU89      -0.2457
     65  OE2      -27.8620  -38.3340    7.7530 O.co2  89  GLU89      -0.2457
     66  N        -23.5190  -41.2080    4.4270 N.am   90  ARG90      -0.1977
     67  CA       -23.7730  -41.4310    3.0050 C.3    90  ARG90       0.1597
     68  C        -24.8900  -42.4440    2.8070 C.2    90  ARG90       0.2287
     69  O        -24.6960  -43.6240    3.0620 O.2    90  ARG90      -0.2864
     70  CB       -22.4960  -41.8820    2.2870 C.3    90  ARG90       0.0334
     71  CG       -22.6690  -42.1950    0.8010 C.3    90  ARG90       0.0492
     72  CD       -21.3390  -42.3300    0.0960 C.3    90  ARG90       0.2205
     73  NE       -20.4830  -43.3640    0.6720 N.pl3  90  ARG90      -0.0865
     74  CZ       -20.5770  -44.6620    0.3950 C.cat  90  ARG90       0.5346
     75  NH1      -21.5100  -45.1140   -0.4430 N.pl3  90  ARG90       0.1354
     76  NH2      -19.7370  -45.5170    0.9630 N.pl3  90  ARG90       0.1354
     77  N        -27.9370  -43.5720   -3.5440 N.3    94  VAL94      -0.1245
     78  CA       -28.2710  -42.1450   -3.4550 C.3    94  VAL94       0.1561
     79  C        -28.0990  -41.4960   -4.8510 C.2    94  VAL94       0.2260
     80  O        -27.3660  -42.0130   -5.7120 O.2    94  VAL94      -0.2867
     81  CB       -27.4010  -41.4290   -2.3360 C.3    94  VAL94       0.0252
     82  CG1      -25.9520  -41.2230   -2.7770 C.3    94  VAL94       0.0019
     83  CG2      -27.9740  -40.1440   -1.9370 C.3    94  VAL94       0.0019
     84  N        -29.8870  -34.3890   -1.6960 N.3   142  LEU142     -0.1245
     85  CA       -29.6670  -35.7940   -2.0580 C.3   142  LEU142      0.1561
     86  C        -30.9470  -36.5560   -1.8900 C.2   142  LEU142      0.2260
     87  O        -31.7520  -36.2190   -1.0540 O.2   142  LEU142     -0.2867
     88  CB       -28.5890  -36.4520   -1.1950 C.3   142  LEU142      0.0270
     89  CG       -27.1530  -35.9210   -1.1140 C.3   142  LEU142      0.0019
     90  CD1      -26.3970  -36.8620   -0.2160 C.3   142  LEU142      0.0001
     91  CD2      -26.4570  -35.8270   -2.4600 C.3   142  LEU142      0.0001
     92  N        -27.6050  -30.9120    1.9030 N.3   153  ILE153     -0.1231
     93  CA       -26.1640  -31.0250    2.0480 C.3   153  ILE153      0.1692
     94  C        -25.5030  -29.6620    1.8200 C.2   153  ILE153      0.2592
     95  O        -26.1680  -28.6980    1.4280 O.2   153  ILE153     -0.2718
     96  CB       -25.5410  -32.1430    1.1160 C.3   153  ILE153      0.0266
     97  CG1      -25.8210  -31.8760   -0.3560 C.3   153  ILE153      0.0019
     98  CG2      -26.0590  -33.5440    1.5060 C.3   153  ILE153      0.0020
     99  CD1      -24.7720  -32.4440   -1.2890 C.3   153  ILE153      0.0001
    100  N        -24.1970  -29.6140    2.0820 N.am  154  ASP154     -0.1974
    101  CA       -23.3240  -28.4640    1.8620 C.3   154  ASP154      0.1709
    102  C        -23.7810  -27.1540    2.4930 C.2   154  ASP154      0.2293
    103  O        -24.4050  -26.3060    1.8410 O.2   154  ASP154     -0.2864
    104  CB       -22.9580  -28.3010    0.3770 C.3   154  ASP154      0.1436
    105  CG       -21.8580  -27.2490    0.1430 C.2   154  ASP154      0.3671
    106  OD1      -21.1060  -26.8490    1.0970 O.co2 154  ASP154     -0.2456
    107  OD2      -21.7490  -26.8270   -1.0340 O.co2 154  ASP154     -0.2456
@<TRIPOS>BOND
     1     4     3    2
     2     3     2    1
     3    80    79    2
     4     2     1    1
     5     2     5    1
     6    79    78    1
     7    18    19   ar
     8    18    16   ar
     9    19    17   ar
    10     8     6    1
    11     5     6    1
    12    16    14   ar
    13    77    78    1
    14     6     7    1
    15    78    81    1
    16    17    15   ar
    17    23    22    2
    18     9    10    1
    19    82    81    1
    20    14    15   ar
    21    14    13    1
    22    91    89    1
    23    81    83    1
    24    20    21    1
    25    85    86    1
    26    85    84    1
    27    85    88    1
    28    22    21    1
    29    86    87    2
    30    10    13    1
    31    10    11    1
    32    21    24    1
    33    24    26    1
    34    24    25    1
    35    99    97    1
    36    88    89    1
    37    89    90    1
    38   107   105   ar
    39    11    12    2
    40    75    74    1
    41    97    96    1
    42    72    73    1
    43    72    71    1
    44   105   104    1
    45   105   106   ar
    46   104   101    1
    47    74    73    2
    48    74    76    1
    49    71    70    1
    50    96    98    1
    51    96    93    1
    52    95    94    2
    53    39    40    1
    54    39    38    1
    55    94    93    1
    56    94   100   am
    57   103   102    2
    58   101   100    1
    59   101   102    1
    60    92    93    1
    61    31    28    1
    62    37    38    1
    63    37    36    1
    64    70    67    1
    65    33    36    1
    66    33    34    1
    67    33    32    1
    68    28    29    1
    69    28    27    1
    70    68    67    1
    71    68    69    2
    72    67    66    1
    73    34    35    2
    74    29    30    2
    75    48    46    1
    76    60    59    2
    77    66    59   am
    78    55    54    1
    79    59    58    1
    80    46    45    1
    81    45    47    1
    82    45    42    1
    83    53    54    1
    84    53    50    1
    85    52    51    2
    86    54    56    1
    87    41    42    1
    88    64    63   ar
    89    42    43    1
    90    51    50    1
    91    51    57   am
    92    58    57    1
    93    58    61    1
    94    62    63    1
    95    62    61    1
    96    50    49    1
    97    63    65   ar
    98    43    44    2
