@<TRIPOS>MOLECULE
tmp/2xiyA00.pdb
 118 110 0 0 0
SMALL
GASTEIGER

@<TRIPOS>ATOM
      1  N        -16.6560  -38.6250   -5.0630 N.3    12  LEU12      -0.1231
      2  CA       -18.0840  -38.4870   -5.3900 C.3    12  LEU12       0.1693
      3  C        -18.3990  -37.2090   -6.1600 C.2    12  LEU12       0.2592
      4  O        -19.3160  -37.1730   -6.9900 O.2    12  LEU12      -0.2718
      5  CB       -18.9420  -38.5630   -4.1300 C.3    12  LEU12       0.0284
      6  CG       -19.0970  -39.9260   -3.4440 C.3    12  LEU12       0.0019
      7  CD1      -19.9660  -39.7830   -2.2100 C.3    12  LEU12       0.0001
      8  CD2      -19.6640  -41.0000   -4.3890 C.3    12  LEU12       0.0001
      9  N        -17.6380  -36.1610   -5.8730 N.am   13  GLY13      -0.1957
     10  CA       -17.8140  -34.8680   -6.5230 C.3    13  GLY13       0.1869
     11  C        -16.8930  -33.8320   -5.9180 C.2    13  GLY13       0.2309
     12  O        -16.3270  -34.0420   -4.8460 O.2    13  GLY13      -0.2863
     13  N        -17.7780  -26.5090   -2.7200 N.3    17  PHE17      -0.1241
     14  CA       -17.9320  -27.1090   -1.3970 C.3    17  PHE17       0.1605
     15  C        -16.6950  -27.8780   -0.9390 C.2    17  PHE17       0.2264
     16  O        -16.6130  -28.2830    0.2130 O.2    17  PHE17      -0.2867
     17  CB       -19.1520  -28.0430   -1.3710 C.3    17  PHE17       0.0534
     18  CG       -19.1570  -29.0830   -2.4680 C.ar   17  PHE17      -0.0203
     19  CD1      -18.4900  -30.2990   -2.3060 C.ar   17  PHE17      -0.0042
     20  CD2      -19.8430  -28.8510   -3.6620 C.ar   17  PHE17      -0.0042
     21  CE1      -18.4980  -31.2570   -3.3300 C.ar   17  PHE17      -0.0003
     22  CE2      -19.8530  -29.8080   -4.6850 C.ar   17  PHE17      -0.0003
     23  CZ       -19.1860  -31.0130   -4.5050 C.ar   17  PHE17      -0.0000
     24  N        -15.3800  -34.3740   -2.1730 N.3    20  VAL20      -0.1245
     25  CA       -16.1080  -35.3650   -1.3800 C.3    20  VAL20       0.1561
     26  C        -15.8510  -36.7760   -1.9160 C.2    20  VAL20       0.2260
     27  O        -15.9840  -37.0260   -3.1150 O.2    20  VAL20      -0.2867
     28  CB       -17.6230  -35.0440   -1.2950 C.3    20  VAL20       0.0252
     29  CG1      -18.3450  -36.0130   -0.3400 C.3    20  VAL20       0.0019
     30  CG2      -17.8200  -33.6360   -0.8030 C.3    20  VAL20       0.0019
     31  N        -19.4320  -40.1420    3.8330 N.3    33  ALA33      -0.1245
     32  CA       -18.8700  -39.2550    2.8280 C.3    33  ALA33       0.1562
     33  C        -17.7630  -38.4730    3.5010 C.2    33  ALA33       0.2260
     34  O        -17.9350  -37.9850    4.6120 O.2    33  ALA33      -0.2867
     35  CB       -19.9500  -38.3060    2.2450 C.3    33  ALA33       0.0290
     36  N        -15.4090  -35.3610    3.2570 N.3    35  LYS35      -0.1245
     37  CA       -15.3740  -34.0640    2.6080 C.3    35  LYS35       0.1561
     38  C        -14.1770  -33.2690    3.1170 C.2    35  LYS35       0.2260
     39  O        -14.0000  -33.0700    4.3290 O.2    35  LYS35      -0.2867
     40  CB       -16.6760  -33.3340    2.8930 C.3    35  LYS35       0.0271
     41  CG       -16.7450  -31.9250    2.3470 C.3    35  LYS35       0.0035
     42  CD       -18.0220  -31.2670    2.8350 C.3    35  LYS35       0.0206
     43  CE       -18.5170  -30.2240    1.8570 C.3    35  LYS35       0.1093
     44  NZ       -19.8490  -29.6990    2.2480 N.3    35  LYS35      -0.1314
     45  N        -28.3750  -33.6310    6.3560 N.3    72  ILE72      -0.1245
     46  CA       -27.1970  -34.4870    6.4230 C.3    72  ILE72       0.1561
     47  C        -26.6200  -34.4540    7.8520 C.2    72  ILE72       0.2260
     48  O        -26.6060  -33.4010    8.4930 O.2    72  ILE72      -0.2867
     49  CB       -26.1600  -34.0400    5.3500 C.3    72  ILE72       0.0252
     50  CG1      -25.4910  -35.2480    4.6650 C.3    72  ILE72       0.0019
     51  CG2      -25.1910  -32.9680    5.8910 C.3    72  ILE72       0.0019
     52  CD1      -24.4360  -35.9300    5.4690 C.3    72  ILE72       0.0001
     53  N        -19.4390  -37.2900    6.9890 N.3    88  LEU88      -0.1231
     54  CA       -20.8750  -37.1350    6.8650 C.3    88  LEU88       0.1693
     55  C        -21.4810  -38.4900    6.6040 C.2    88  LEU88       0.2592
     56  O        -20.8340  -39.3600    6.0260 O.2    88  LEU88      -0.2718
     57  CB       -21.1980  -36.1980    5.6960 C.3    88  LEU88       0.0284
     58  CG       -20.5310  -34.8240    5.7960 C.3    88  LEU88       0.0019
     59  CD1      -20.2900  -34.2750    4.4280 C.3    88  LEU88       0.0001
     60  CD2      -21.3350  -33.8600    6.6740 C.3    88  LEU88       0.0001
     61  N        -22.7260  -38.6700    7.0320 N.am   89  GLU89      -0.1966
     62  CA       -23.4870  -39.8710    6.6930 C.3    89  GLU89       0.1733
     63  C        -23.6290  -40.0210    5.1690 C.2    89  GLU89       0.2616
     64  O        -23.5990  -39.0350    4.4320 O.2    89  GLU89      -0.2715
     65  CB       -24.8630  -39.8290    7.3580 C.3    89  GLU89       0.0429
     66  CG       -25.7840  -38.7650    6.7900 C.3    89  GLU89       0.1163
     67  CD       -27.2330  -38.9830    7.1480 C.2    89  GLU89       0.3649
     68  OE1      -27.8380  -39.9710    6.6620 O.co2  89  GLU89      -0.2457
     69  OE2      -27.7720  -38.1500    7.9000 O.co2  89  GLU89      -0.2457
     70  N        -23.7540  -41.2550    4.7020 N.am   90  ARG90      -0.1964
     71  CA       -23.9890  -41.5130    3.2830 C.3    90  ARG90       0.1714
     72  C        -25.1150  -42.5160    3.0900 C.2    90  ARG90       0.2458
     73  O        -24.9460  -43.6960    3.3990 O.2    90  ARG90      -0.2730
     74  CB       -22.7120  -41.9890    2.5870 C.3    90  ARG90       0.0347
     75  CG       -22.8560  -42.2140    1.0830 C.3    90  ARG90       0.0492
     76  CD       -21.5140  -42.3820    0.3960 C.3    90  ARG90       0.2205
     77  NE       -20.6910  -43.4530    0.9700 N.pl3  90  ARG90      -0.0865
     78  CZ       -20.8090  -44.7480    0.6790 C.cat  90  ARG90       0.5346
     79  NH1      -21.7370  -45.1800   -0.1730 N.pl3  90  ARG90       0.1354
     80  NH2      -19.9950  -45.6240    1.2560 N.pl3  90  ARG90       0.1354
     81  N        -26.2780  -42.0440    2.5910 N.am   91  PRO91      -0.2727
     82  CA       -27.3240  -42.9670    2.1260 C.3    91  PRO91       0.1402
     83  C        -26.8350  -43.7090    0.8920 C.2    91  PRO91       0.2269
     84  O        -26.0430  -43.1630    0.1130 O.2    91  PRO91      -0.2865
     85  CB       -28.4980  -42.0450    1.7670 C.3    91  PRO91       0.0296
     86  CG       -28.1630  -40.7060    2.3480 C.3    91  PRO91       0.0237
     87  CD       -26.6710  -40.6310    2.4310 C.3    91  PRO91       0.0939
     88  N        -27.9700  -43.3630   -3.4200 N.3    94  VAL94      -0.1245
     89  CA       -28.2930  -41.9490   -3.3060 C.3    94  VAL94       0.1561
     90  C        -28.0930  -41.2940   -4.6810 C.2    94  VAL94       0.2260
     91  O        -27.2810  -41.7540   -5.4880 O.2    94  VAL94      -0.2867
     92  CB       -27.4530  -41.2590   -2.1600 C.3    94  VAL94       0.0252
     93  CG1      -25.9700  -41.1170   -2.5420 C.3    94  VAL94       0.0019
     94  CG2      -28.0300  -39.9260   -1.7740 C.3    94  VAL94       0.0019
     95  N        -29.9930  -34.3420   -1.5370 N.3   142  LEU142     -0.1245
     96  CA       -29.7580  -35.7480   -1.8490 C.3   142  LEU142      0.1561
     97  C        -31.0370  -36.5430   -1.7430 C.2   142  LEU142      0.2260
     98  O        -31.8870  -36.2490   -0.9110 O.2   142  LEU142     -0.2867
     99  CB       -28.6910  -36.3510   -0.9320 C.3   142  LEU142      0.0270
    100  CG       -27.2490  -35.8440   -1.0000 C.3   142  LEU142      0.0019
    101  CD1      -26.4200  -36.7370   -0.1340 C.3   142  LEU142      0.0001
    102  CD2      -26.6890  -35.8170   -2.4210 C.3   142  LEU142      0.0001
    103  N        -27.7390  -30.9420    1.9880 N.3   153  ILE153     -0.1231
    104  CA       -26.2790  -30.9660    2.1660 C.3   153  ILE153      0.1692
    105  C        -25.6750  -29.5880    1.8860 C.2   153  ILE153      0.2592
    106  O        -26.3930  -28.6540    1.4970 O.2   153  ILE153     -0.2718
    107  CB       -25.5620  -32.0080    1.2290 C.3   153  ILE153      0.0266
    108  CG1      -25.8920  -31.7600   -0.2490 C.3   153  ILE153      0.0019
    109  CG2      -25.9090  -33.4250    1.6250 C.3   153  ILE153      0.0020
    110  CD1      -24.9460  -32.4990   -1.2130 C.3   153  ILE153      0.0001
    111  N        -24.3580  -29.4900    2.0770 N.am  154  ASP154     -0.1974
    112  CA       -23.5490  -28.3170    1.7120 C.3   154  ASP154      0.1709
    113  C        -23.9570  -27.0320    2.4100 C.2   154  ASP154      0.2293
    114  O        -24.5350  -26.1250    1.7970 O.2   154  ASP154     -0.2864
    115  CB       -23.5020  -28.1190    0.1880 C.3   154  ASP154      0.1436
    116  CG       -22.6410  -29.1510   -0.5050 C.2   154  ASP154      0.3671
    117  OD1      -21.7630  -29.7480    0.1590 O.co2 154  ASP154     -0.2456
    118  OD2      -22.8430  -29.3720   -1.7160 O.co2 154  ASP154     -0.2456
@<TRIPOS>BOND
     1     4     3    2
     2    10    11    1
     3    10     9    1
     4     3     9   am
     5     3     2    1
     6    11    12    2
     7    91    90    2
     8     2     1    1
     9     2     5    1
    10    22    23   ar
    11    22    20   ar
    12    90    89    1
    13    23    21   ar
    14     8     6    1
    15     5     6    1
    16    20    18   ar
    17     6     7    1
    18    88    89    1
    19    21    19   ar
    20    89    92    1
    21    27    26    2
    22    13    14    1
    23    93    92    1
    24    18    19   ar
    25    18    17    1
    26   102   100    1
    27    24    25    1
    28    92    94    1
    29    26    25    1
    30    96    97    1
    31    96    95    1
    32    96    99    1
    33    97    98    2
    34   118   116   ar
    35    14    17    1
    36    14    15    1
    37    25    28    1
    38    28    30    1
    39    28    29    1
    40   110   108    1
    41   100    99    1
    42   100   101    1
    43    15    16    2
    44   116   117   ar
    45   116   115    1
    46   108   107    1
    47    79    78    1
    48    84    83    2
    49   115   112    1
    50    76    77    1
    51    76    75    1
    52    78    77    2
    53    78    80    1
    54    83    82    1
    55    75    74    1
    56   107   109    1
    57   107   104    1
    58   106   105    2
    59   112   111    1
    60   112   113    1
    61    85    82    1
    62    85    86    1
    63   114   113    2
    64    43    44    1
    65    43    42    1
    66   105   111   am
    67   105   104    1
    68   103   104    1
    69    82    81    1
    70    35    32    1
    71    41    42    1
    72    41    40    1
    73    86    87    1
    74    87    81    1
    75    74    71    1
    76    81    72   am
    77    37    40    1
    78    37    38    1
    79    37    36    1
    80    32    33    1
    81    32    31    1
    82    72    71    1
    83    72    73    2
    84    38    39    2
    85    71    70    1
    86    33    34    2
    87    59    58    1
    88    64    63    2
    89    50    49    1
    90    50    52    1
    91    70    63   am
    92    63    62    1
    93    49    51    1
    94    49    46    1
    95    57    58    1
    96    57    54    1
    97    58    60    1
    98    56    55    2
    99    45    46    1
   100    46    47    1
   101    55    54    1
   102    55    61   am
   103    68    67   ar
   104    62    61    1
   105    62    65    1
   106    66    67    1
   107    66    65    1
   108    54    53    1
   109    67    69   ar
   110    47    48    2
