@<TRIPOS>MOLECULE
tmp/2xizA00.pdb
 142 133 0 0 0
SMALL
GASTEIGER

@<TRIPOS>ATOM
      1  N        -16.5760  -38.2810   -5.4650 N.3    12  LEU12      -0.1245
      2  CA       -17.9930  -38.0960   -5.7810 C.3    12  LEU12       0.1561
      3  C        -18.2520  -36.7720   -6.4920 C.2    12  LEU12       0.2260
      4  O        -18.9280  -36.7340   -7.5190 O.2    12  LEU12      -0.2867
      5  CB       -18.8550  -38.1940   -4.5160 C.3    12  LEU12       0.0270
      6  CG       -18.8550  -39.4950   -3.6980 C.3    12  LEU12       0.0019
      7  CD1      -19.6700  -39.3210   -2.4190 C.3    12  LEU12       0.0001
      8  CD2      -19.3790  -40.6870   -4.5050 C.3    12  LEU12       0.0001
      9  N        -17.5520  -26.1250   -3.2890 N.3    17  PHE17      -0.1241
     10  CA       -17.5660  -26.7820   -1.9750 C.3    17  PHE17       0.1605
     11  C        -16.2630  -27.5350   -1.6830 C.2    17  PHE17       0.2264
     12  O        -15.8300  -27.6160   -0.5290 O.2    17  PHE17      -0.2867
     13  CB       -18.7760  -27.7290   -1.8290 C.3    17  PHE17       0.0534
     14  CG       -18.9480  -28.7120   -2.9740 C.ar   17  PHE17      -0.0203
     15  CD1      -18.4470  -30.0140   -2.8770 C.ar   17  PHE17      -0.0042
     16  CD2      -19.6370  -28.3450   -4.1350 C.ar   17  PHE17      -0.0042
     17  CE1      -18.6120  -30.9280   -3.9260 C.ar   17  PHE17      -0.0003
     18  CE2      -19.8050  -29.2530   -5.1920 C.ar   17  PHE17      -0.0003
     19  CZ       -19.2930  -30.5480   -5.0830 C.ar   17  PHE17      -0.0000
     20  N        -15.1690  -34.2890   -2.4040 N.3    20  VAL20      -0.1245
     21  CA       -15.9400  -35.2160   -1.5780 C.3    20  VAL20       0.1561
     22  C        -15.7130  -36.6320   -2.0900 C.2    20  VAL20       0.2260
     23  O        -15.9190  -36.9110   -3.2730 O.2    20  VAL20      -0.2867
     24  CB       -17.4590  -34.8870   -1.6110 C.3    20  VAL20       0.0252
     25  CG1      -18.2300  -35.6990   -0.5560 C.3    20  VAL20       0.0019
     26  CG2      -17.6990  -33.4000   -1.3960 C.3    20  VAL20       0.0019
     27  N        -19.3780  -40.1360    3.5200 N.3    33  ALA33      -0.1245
     28  CA       -18.8030  -39.2150    2.5530 C.3    33  ALA33       0.1562
     29  C        -17.7050  -38.4550    3.2750 C.2    33  ALA33       0.2260
     30  O        -17.9060  -37.9700    4.3910 O.2    33  ALA33      -0.2867
     31  CB       -19.8710  -38.2440    2.0240 C.3    33  ALA33       0.0290
     32  N        -15.4510  -35.2940    3.0990 N.3    35  LYS35      -0.1245
     33  CA       -15.3560  -33.9840    2.4680 C.3    35  LYS35       0.1561
     34  C        -14.1200  -33.2210    2.9350 C.2    35  LYS35       0.2260
     35  O        -13.8850  -33.0640    4.1300 O.2    35  LYS35      -0.2867
     36  CB       -16.6180  -33.1670    2.7540 C.3    35  LYS35       0.0271
     37  CG       -16.6270  -31.7990    2.0860 C.3    35  LYS35       0.0035
     38  CD       -17.9020  -31.0440    2.3890 C.3    35  LYS35       0.0206
     39  CE       -18.0020  -29.7820    1.5610 C.3    35  LYS35       0.1093
     40  NZ       -19.2890  -29.0670    1.8510 N.3    35  LYS35      -0.1314
     41  N        -19.0920  -23.9090    8.5600 N.3    57  GLU57      -0.1245
     42  CA       -19.7470  -25.1180    8.0640 C.3    57  GLU57       0.1567
     43  C        -19.8890  -26.1940    9.1470 C.2    57  GLU57       0.2260
     44  O        -20.9430  -26.8420    9.2610 O.2    57  GLU57      -0.2867
     45  CB       -18.9770  -25.6700    6.8580 C.3    57  GLU57       0.0388
     46  CG       -19.5580  -26.9470    6.2570 C.3    57  GLU57       0.1160
     47  CD       -18.9820  -27.2780    4.8900 C.2    57  GLU57       0.3649
     48  OE1      -18.1080  -26.5390    4.3900 O.co2  57  GLU57      -0.2457
     49  OE2      -19.4210  -28.2840    4.3050 O.co2  57  GLU57      -0.2457
     50  N        -23.3760  -27.5140   10.9220 N.3    61  LEU61      -0.1245
     51  CA       -23.6860  -28.9360   10.8460 C.3    61  LEU61       0.1561
     52  C        -23.9460  -29.5510   12.2120 C.2    61  LEU61       0.2260
     53  O        -24.9110  -30.3000   12.3730 O.2    61  LEU61      -0.2867
     54  CB       -22.5740  -29.6940   10.1290 C.3    61  LEU61       0.0270
     55  CG       -22.6520  -29.6640    8.6090 C.3    61  LEU61       0.0019
     56  CD1      -21.3150  -30.0650    8.0320 C.3    61  LEU61       0.0001
     57  CD2      -23.7860  -30.5680    8.0980 C.3    61  LEU61       0.0001
     58  N        -28.3430  -33.6060    6.1250 N.3    72  ILE72      -0.1245
     59  CA       -27.1650  -34.4500    6.2170 C.3    72  ILE72       0.1561
     60  C        -26.5950  -34.4110    7.6480 C.2    72  ILE72       0.2260
     61  O        -26.5960  -33.3610    8.2910 O.2    72  ILE72      -0.2867
     62  CB       -26.1120  -34.0530    5.1340 C.3    72  ILE72       0.0252
     63  CG1      -25.2100  -35.2430    4.7910 C.3    72  ILE72       0.0019
     64  CG2      -25.3170  -32.7860    5.5270 C.3    72  ILE72       0.0019
     65  CD1      -25.9400  -36.3730    4.0430 C.3    72  ILE72       0.0001
     66  N        -19.3180  -37.3170    6.7410 N.3    88  LEU88      -0.1231
     67  CA       -20.7530  -37.1320    6.6290 C.3    88  LEU88       0.1693
     68  C        -21.3900  -38.4600    6.2850 C.2    88  LEU88       0.2592
     69  O        -20.7790  -39.2820    5.5950 O.2    88  LEU88      -0.2718
     70  CB       -21.0590  -36.1200    5.5190 C.3    88  LEU88       0.0284
     71  CG       -20.5040  -34.7180    5.7840 C.3    88  LEU88       0.0019
     72  CD1      -20.0450  -34.0610    4.5080 C.3    88  LEU88       0.0001
     73  CD2      -21.5390  -33.8520    6.5050 C.3    88  LEU88       0.0001
     74  N        -22.6150  -38.6690    6.7610 N.am   89  GLU89      -0.1966
     75  CA       -23.3900  -39.8440    6.3850 C.3    89  GLU89       0.1733
     76  C        -23.5640  -39.8890    4.8690 C.2    89  GLU89       0.2616
     77  O        -23.6220  -38.8470    4.2050 O.2    89  GLU89      -0.2715
     78  CB       -24.7610  -39.8420    7.0820 C.3    89  GLU89       0.0429
     79  CG       -25.7330  -38.7840    6.5560 C.3    89  GLU89       0.1163
     80  CD       -27.1720  -38.9610    7.0440 C.2    89  GLU89       0.3649
     81  OE1      -27.6630  -40.1070    7.1130 O.co2  89  GLU89      -0.2457
     82  OE2      -27.8240  -37.9400    7.3370 O.co2  89  GLU89      -0.2457
     83  N        -23.6250  -41.0970    4.3240 N.am   90  ARG90      -0.1964
     84  CA       -23.9160  -41.2800    2.9100 C.3    90  ARG90       0.1714
     85  C        -25.0050  -42.3310    2.7240 C.2    90  ARG90       0.2458
     86  O        -24.7790  -43.5090    3.0190 O.2    90  ARG90      -0.2730
     87  CB       -22.6440  -41.6590    2.1410 C.3    90  ARG90       0.0347
     88  CG       -22.8530  -42.0080    0.6620 C.3    90  ARG90       0.0492
     89  CD       -21.5230  -42.2780   -0.0700 C.3    90  ARG90       0.2205
     90  NE       -20.7270  -43.3550    0.5360 N.pl3  90  ARG90      -0.0865
     91  CZ       -20.8250  -44.6460    0.2140 C.cat  90  ARG90       0.5346
     92  NH1      -21.6960  -45.0490   -0.7060 N.pl3  90  ARG90       0.1354
     93  NH2      -20.0470  -45.5420    0.8140 N.pl3  90  ARG90       0.1354
     94  N        -26.1910  -41.9060    2.2420 N.am   91  PRO91      -0.2727
     95  CA       -27.2310  -42.8480    1.8270 C.3    91  PRO91       0.1402
     96  C        -26.7770  -43.6630    0.6120 C.2    91  PRO91       0.2269
     97  O        -25.8770  -43.2510   -0.1250 O.2    91  PRO91      -0.2865
     98  CB       -28.4090  -41.9420    1.4510 C.3    91  PRO91       0.0296
     99  CG       -28.1310  -40.6330    2.1000 C.3    91  PRO91       0.0237
    100  CD       -26.6400  -40.5050    2.1190 C.3    91  PRO91       0.0939
    101  N        -28.0970  -43.6590   -3.7460 N.3    94  VAL94      -0.1245
    102  CA       -28.3540  -42.2330   -3.6610 C.3    94  VAL94       0.1561
    103  C        -28.2370  -41.5690   -5.0450 C.2    94  VAL94       0.2260
    104  O        -27.5150  -42.0600   -5.9190 O.2    94  VAL94      -0.2867
    105  CB       -27.3950  -41.5750   -2.6110 C.3    94  VAL94       0.0252
    106  CG1      -25.9980  -41.3190   -3.1990 C.3    94  VAL94       0.0019
    107  CG2      -27.9780  -40.3170   -2.0610 C.3    94  VAL94       0.0019
    108  N        -29.9310  -34.5110   -1.7960 N.3   142  LEU142     -0.1245
    109  CA       -29.7450  -35.9200   -2.1170 C.3   142  LEU142      0.1561
    110  C        -31.0450  -36.6660   -1.9180 C.2   142  LEU142      0.2260
    111  O        -31.8090  -36.3660   -1.0000 O.2   142  LEU142     -0.2867
    112  CB       -28.6750  -36.5550   -1.2250 C.3   142  LEU142      0.0270
    113  CG       -27.2670  -35.9600   -1.2220 C.3   142  LEU142      0.0019
    114  CD1      -26.3650  -36.8610   -0.4010 C.3   142  LEU142      0.0001
    115  CD2      -26.7240  -35.7930   -2.6440 C.3   142  LEU142      0.0001
    116  N        -27.7490  -31.0260    1.7550 N.3   153  ILE153     -0.1231
    117  CA       -26.3090  -31.1070    1.9680 C.3   153  ILE153      0.1692
    118  C        -25.6520  -29.7530    1.7170 C.2   153  ILE153      0.2592
    119  O        -26.3240  -28.7870    1.3270 O.2   153  ILE153     -0.2718
    120  CB       -25.6510  -32.2000    1.0770 C.3   153  ILE153      0.0266
    121  CG1      -25.7660  -31.8370   -0.4100 C.3   153  ILE153      0.0019
    122  CG2      -26.2760  -33.5560    1.3790 C.3   153  ILE153      0.0020
    123  CD1      -24.8760  -32.6480   -1.3430 C.3   153  ILE153      0.0001
    124  N        -24.3480  -29.7090    1.9730 N.am  154  ASP154     -0.1960
    125  CA       -23.4640  -28.5620    1.7190 C.3   154  ASP154      0.1840
    126  C        -23.8630  -27.2780    2.4210 C.2   154  ASP154      0.2622
    127  O        -24.5190  -26.4060    1.8400 O.2   154  ASP154     -0.2715
    128  CB       -23.2520  -28.3300    0.2210 C.3   154  ASP154      0.1450
    129  CG       -22.0850  -27.3960   -0.0770 C.2   154  ASP154      0.3671
    130  OD1      -21.4240  -26.8580    0.8560 O.co2 154  ASP154     -0.2456
    131  OD2      -21.8260  -27.1990   -1.2810 O.co2 154  ASP154     -0.2456
    132  N        -23.4270  -27.1680    3.6710 N.am  155  PHE155     -0.1974
    133  CA       -23.6620  -25.9790    4.4890 C.3   155  PHE155      0.1639
    134  C        -22.5020  -24.9770    4.3990 C.2   155  PHE155      0.2290
    135  O        -22.3920  -24.0760    5.2300 O.2   155  PHE155     -0.2864
    136  CB       -23.9360  -26.3970    5.9500 C.3   155  PHE155      0.0560
    137  CG       -25.3270  -26.9200    6.1630 C.ar  155  PHE155     -0.0200
    138  CD1      -25.6760  -28.2070    5.7440 C.ar  155  PHE155     -0.0042
    139  CD2      -26.2990  -26.1170    6.7340 C.ar  155  PHE155     -0.0042
    140  CE1      -26.9630  -28.6850    5.9050 C.ar  155  PHE155     -0.0003
    141  CE2      -27.6040  -26.5890    6.8980 C.ar  155  PHE155     -0.0003
    142  CZ       -27.9310  -27.8710    6.4880 C.ar  155  PHE155     -0.0000
@<TRIPOS>BOND
     1     4     3    2
     2     3     2    1
     3   104   103    2
     4     2     1    1
     5     2     5    1
     6    18    19   ar
     7    18    16   ar
     8    19    17   ar
     9   103   102    1
    10     5     6    1
    11     8     6    1
    12    16    14   ar
    13    17    15   ar
    14   101   102    1
    15     6     7    1
    16   102   105    1
    17     9    10    1
    18    23    22    2
    19   106   105    1
    20    14    15   ar
    21    14    13    1
    22   115   113    1
    23   105   107    1
    24    20    21    1
    25   109   110    1
    26   109   108    1
    27   109   112    1
    28    22    21    1
    29    10    13    1
    30    10    11    1
    31   110   111    2
    32    11    12    2
    33    24    21    1
    34    24    26    1
    35    24    25    1
    36   123   121    1
    37   131   129   ar
    38   112   113    1
    39   113   114    1
    40    92    91    1
    41   121   120    1
    42    97    96    2
    43   129   128    1
    44   129   130   ar
    45    89    90    1
    46    89    88    1
    47    91    90    2
    48    91    93    1
    49   128   125    1
    50    96    95    1
    51    88    87    1
    52   120   122    1
    53   120   117    1
    54   119   118    2
    55    98    95    1
    56    98    99    1
    57    39    40    1
    58    39    38    1
    59   118   117    1
    60   118   124   am
    61   125   124    1
    62   125   126    1
    63   116   117    1
    64    95    94    1
    65   127   126    2
    66    31    28    1
    67    37    38    1
    68    37    36    1
    69    99   100    1
    70   100    94    1
    71    87    84    1
    72    94    85   am
    73   126   132   am
    74    33    36    1
    75    33    34    1
    76    33    32    1
    77    28    29    1
    78    28    27    1
    79    85    84    1
    80    85    86    2
    81    84    83    1
    82    34    35    2
    83    29    30    2
    84   132   133    1
    85    65    63    1
    86    77    76    2
    87    49    47   ar
    88    83    76   am
    89    48    47   ar
    90   134   133    1
    91   134   135    2
    92   133   136    1
    93    72    71    1
    94    63    62    1
    95    76    75    1
    96    47    46    1
    97    62    64    1
    98    62    59    1
    99    70    71    1
   100    70    67    1
   101    69    68    2
   102   138   140   ar
   103   138   137   ar
   104    71    73    1
   105   140   142   ar
   106   136   137    1
   107    58    59    1
   108   137   139   ar
   109    59    60    1
   110    46    45    1
   111    68    67    1
   112    68    74   am
   113    75    74    1
   114    75    78    1
   115   142   141   ar
   116    79    80    1
   117    79    78    1
   118    67    66    1
   119   139   141   ar
   120    45    42    1
   121    80    81   ar
   122    80    82   ar
   123    60    61    2
   124    56    55    1
   125    42    41    1
   126    42    43    1
   127    57    55    1
   128    55    54    1
   129    43    44    2
   130    54    51    1
   131    51    50    1
   132    51    52    1
   133    52    53    2
