@<TRIPOS>MOLECULE
tmp/2xj0A00.pdb
 123 114 0 0 0
SMALL
GASTEIGER

@<TRIPOS>ATOM
      1  N        -16.0980  -38.7270   -5.3570 N.3    12  LEU12      -0.1245
      2  CA       -17.5170  -38.5080   -5.6130 C.3    12  LEU12       0.1561
      3  C        -17.7140  -37.2460   -6.4440 C.2    12  LEU12       0.2260
      4  O        -18.3160  -37.2840   -7.5170 O.2    12  LEU12      -0.2867
      5  CB       -18.2770  -38.3760   -4.2920 C.3    12  LEU12       0.0270
      6  CG       -18.2970  -39.6150   -3.3940 C.3    12  LEU12       0.0019
      7  CD1      -18.9160  -39.2690   -2.0520 C.3    12  LEU12       0.0001
      8  CD2      -19.0770  -40.7260   -4.0790 C.3    12  LEU12       0.0001
      9  N        -16.8160  -26.0140   -3.3330 N.3    17  PHE17      -0.1241
     10  CA       -17.1650  -26.3980   -1.9710 C.3    17  PHE17       0.1605
     11  C        -16.1560  -27.3940   -1.4080 C.2    17  PHE17       0.2264
     12  O        -16.2410  -27.7900   -0.2460 O.2    17  PHE17      -0.2867
     13  CB       -18.5790  -26.9950   -1.9330 C.3    17  PHE17       0.0534
     14  CG       -18.7330  -28.2680   -2.7230 C.ar   17  PHE17      -0.0203
     15  CD1      -18.2000  -29.4610   -2.2600 C.ar   17  PHE17      -0.0042
     16  CD2      -19.4190  -28.2710   -3.9270 C.ar   17  PHE17      -0.0042
     17  CE1      -18.3480  -30.6320   -2.9810 C.ar   17  PHE17      -0.0003
     18  CE2      -19.5700  -29.4390   -4.6540 C.ar   17  PHE17      -0.0003
     19  CZ       -19.0340  -30.6200   -4.1800 C.ar   17  PHE17      -0.0000
     20  N        -15.0170  -34.2590   -2.3270 N.3    20  VAL20      -0.1245
     21  CA       -15.6100  -35.3320   -1.5370 C.3    20  VAL20       0.1561
     22  C        -15.2680  -36.7050   -2.1040 C.2    20  VAL20       0.2260
     23  O        -15.2580  -36.8990   -3.3190 O.2    20  VAL20      -0.2867
     24  CB       -17.1440  -35.1940   -1.4790 C.3    20  VAL20       0.0252
     25  CG1      -17.7340  -36.3040   -0.6260 C.3    20  VAL20       0.0019
     26  CG2      -17.5190  -33.8330   -0.9200 C.3    20  VAL20       0.0019
     27  N        -19.0160  -40.0350    3.5330 N.3    33  ALA33      -0.1245
     28  CA       -18.4850  -39.1060    2.5470 C.3    33  ALA33       0.1562
     29  C        -17.4360  -38.2180    3.1960 C.2    33  ALA33       0.2260
     30  O        -17.7280  -37.4550    4.1170 O.2    33  ALA33      -0.2867
     31  CB       -19.6040  -38.2570    1.9690 C.3    33  ALA33       0.0290
     32  N        -15.0170  -35.1230    3.1280 N.3    35  LYS35      -0.1245
     33  CA       -14.8940  -33.8210    2.4800 C.3    35  LYS35       0.1561
     34  C        -13.6260  -33.1120    2.9370 C.2    35  LYS35       0.2260
     35  O        -13.2470  -33.1820    4.1030 O.2    35  LYS35      -0.2867
     36  CB       -16.1200  -32.9560    2.7930 C.3    35  LYS35       0.0271
     37  CG       -16.1060  -31.5660    2.1560 C.3    35  LYS35       0.0035
     38  CD       -17.4600  -30.8890    2.3260 C.3    35  LYS35       0.0206
     39  CE       -17.4680  -29.4840    1.7560 C.3    35  LYS35       0.1093
     40  NZ       -18.8050  -28.8440    1.8760 N.3    35  LYS35      -0.1314
     41  N        -18.5540  -23.9490    8.5510 N.3    57  GLU57      -0.1245
     42  CA       -19.2950  -25.0900    8.0280 C.3    57  GLU57       0.1567
     43  C        -19.4190  -26.1700    9.0950 C.2    57  GLU57       0.2260
     44  O        -20.4460  -26.8400    9.2000 O.2    57  GLU57      -0.2867
     45  CB       -18.5870  -25.6600    6.7950 C.3    57  GLU57       0.0388
     46  CG       -19.3500  -26.7790    6.1000 C.3    57  GLU57       0.1160
     47  CD       -18.6340  -27.2950    4.8650 C.2    57  GLU57       0.3649
     48  OE1      -18.3330  -26.4820    3.9640 O.co2  57  GLU57      -0.2457
     49  OE2      -18.3750  -28.5140    4.7920 O.co2  57  GLU57      -0.2457
     50  N        -27.9730  -33.5590    5.8970 N.3    72  ILE72      -0.1245
     51  CA       -26.7820  -34.3920    5.9990 C.3    72  ILE72       0.1561
     52  C        -26.2410  -34.2900    7.4240 C.2    72  ILE72       0.2260
     53  O        -26.2940  -33.2270    8.0420 O.2    72  ILE72      -0.2867
     54  CB       -25.6980  -33.9280    4.9940 C.3    72  ILE72       0.0252
     55  CG1      -24.9040  -35.1310    4.4780 C.3    72  ILE72       0.0019
     56  CG2      -24.7660  -32.9260    5.6550 C.3    72  ILE72       0.0019
     57  CD1      -24.1100  -35.8540    5.5370 C.3    72  ILE72       0.0001
     58  N        -18.8800  -37.1240    6.6570 N.3    88  LEU88      -0.1231
     59  CA       -20.3320  -37.0400    6.5930 C.3    88  LEU88       0.1693
     60  C        -20.9530  -38.3880    6.2550 C.2    88  LEU88       0.2592
     61  O        -20.3300  -39.2150    5.5910 O.2    88  LEU88      -0.2718
     62  CB       -20.7360  -36.0190    5.5310 C.3    88  LEU88       0.0284
     63  CG       -20.0140  -34.6760    5.6220 C.3    88  LEU88       0.0019
     64  CD1      -20.4080  -33.8010    4.4470 C.3    88  LEU88       0.0001
     65  CD2      -20.3550  -34.0070    6.9400 C.3    88  LEU88       0.0001
     66  N        -22.1810  -38.6090    6.7140 N.am   89  GLU89      -0.1966
     67  CA       -22.8730  -39.8580    6.4270 C.3    89  GLU89       0.1733
     68  C        -23.1090  -39.8900    4.9230 C.2    89  GLU89       0.2616
     69  O        -23.2460  -38.8420    4.2930 O.2    89  GLU89      -0.2715
     70  CB       -24.2120  -39.9150    7.1670 C.3    89  GLU89       0.0429
     71  CG       -25.2400  -38.9020    6.6840 C.3    89  GLU89       0.1163
     72  CD       -26.5410  -38.9650    7.4670 C.2    89  GLU89       0.3649
     73  OE1      -27.4870  -38.2300    7.1130 O.co2  89  GLU89      -0.2457
     74  OE2      -26.6170  -39.7480    8.4390 O.co2  89  GLU89      -0.2457
     75  N        -23.1510  -41.0840    4.3430 N.am   90  ARG90      -0.1964
     76  CA       -23.3610  -41.2030    2.9070 C.3    90  ARG90       0.1714
     77  C        -24.4400  -42.2120    2.5410 C.2    90  ARG90       0.2458
     78  O        -24.2830  -43.4140    2.7540 O.2    90  ARG90      -0.2730
     79  CB       -22.0480  -41.5780    2.2140 C.3    90  ARG90       0.0347
     80  CG       -22.1680  -41.7570    0.7080 C.3    90  ARG90       0.0492
     81  CD       -20.7990  -41.8540    0.0510 C.3    90  ARG90       0.2205
     82  NE       -20.0230  -42.9910    0.5390 N.pl3  90  ARG90      -0.0865
     83  CZ       -20.3350  -44.2620    0.3110 C.cat  90  ARG90       0.5346
     84  NH1      -21.4110  -44.5670   -0.4020 N.pl3  90  ARG90       0.1354
     85  NH2      -19.5680  -45.2300    0.7950 N.pl3  90  ARG90       0.1354
     86  N        -25.5620  -41.7270    1.9890 N.am   91  PRO91      -0.2727
     87  CA       -26.6900  -42.5680    1.5770 C.3    91  PRO91       0.1402
     88  C        -26.2710  -43.5190    0.4600 C.2    91  PRO91       0.2269
     89  O        -25.3630  -43.2130   -0.3160 O.2    91  PRO91      -0.2865
     90  CB       -27.7230  -41.5490    1.1020 C.3    91  PRO91       0.0296
     91  CG       -27.4200  -40.3480    1.9410 C.3    91  PRO91       0.0237
     92  CD       -25.9130  -40.3010    1.8870 C.3    91  PRO91       0.0939
     93  N        -27.6890  -43.2140   -3.9220 N.3    94  VAL94      -0.1245
     94  CA       -28.0800  -41.8120   -3.8510 C.3    94  VAL94       0.1561
     95  C        -27.7200  -41.0450   -5.1200 C.2    94  VAL94       0.2260
     96  O        -26.7270  -41.3440   -5.7820 O.2    94  VAL94      -0.2867
     97  CB       -27.4130  -41.1140   -2.6470 C.3    94  VAL94       0.0252
     98  CG1      -25.9000  -41.1660   -2.7890 C.3    94  VAL94       0.0019
     99  CG2      -27.8930  -39.6770   -2.5470 C.3    94  VAL94       0.0019
    100  N        -29.6210  -34.4250   -1.9500 N.3   142  LEU142     -0.1245
    101  CA       -29.4490  -35.8360   -2.2660 C.3   142  LEU142      0.1561
    102  C        -30.7760  -36.5770   -2.1640 C.2   142  LEU142      0.2260
    103  O        -31.7020  -36.1180   -1.4970 O.2   142  LEU142     -0.2867
    104  CB       -28.4360  -36.4700   -1.3110 C.3   142  LEU142      0.0270
    105  CG       -27.0390  -35.8480   -1.2740 C.3   142  LEU142      0.0019
    106  CD1      -26.1790  -36.6040   -0.2780 C.3   142  LEU142      0.0001
    107  CD2      -26.4150  -35.8900   -2.6590 C.3   142  LEU142      0.0001
    108  N        -26.9460  -30.7010    1.6830 N.3   153  ILE153     -0.1231
    109  CA       -25.5050  -30.8870    1.8060 C.3   153  ILE153      0.1692
    110  C        -24.7270  -29.6090    1.5200 C.2   153  ILE153      0.2592
    111  O        -25.2660  -28.6460    0.9730 O.2   153  ILE153     -0.2718
    112  CB       -25.0080  -31.9860    0.8470 C.3   153  ILE153      0.0266
    113  CG1      -25.3080  -31.5870   -0.5980 C.3   153  ILE153      0.0019
    114  CG2      -25.6820  -33.3080    1.1750 C.3   153  ILE153      0.0020
    115  CD1      -24.8700  -32.6110   -1.6160 C.3   153  ILE153      0.0001
    116  N        -23.4520  -29.6120    1.8990 N.am  154  ASP154     -0.1974
    117  CA       -22.5740  -28.4690    1.6880 C.3   154  ASP154      0.1709
    118  C        -23.0910  -27.2020    2.3550 C.2   154  ASP154      0.2293
    119  O        -23.9930  -26.5410    1.8430 O.2   154  ASP154     -0.2864
    120  CB       -22.3850  -28.2210    0.1900 C.3   154  ASP154      0.1436
    121  CG       -21.5390  -26.9970   -0.0950 C.2   154  ASP154      0.3671
    122  OD1      -20.4260  -26.8990    0.4640 O.co2 154  ASP154     -0.2456
    123  OD2      -21.9840  -26.1340   -0.8810 O.co2 154  ASP154     -0.2456
@<TRIPOS>BOND
     1     4     3    2
     2     3     2    1
     3    96    95    2
     4     2     1    1
     5     2     5    1
     6    95    94    1
     7    18    19   ar
     8    18    16   ar
     9     5     6    1
    10    19    17   ar
    11     8     6    1
    12    16    14   ar
    13    93    94    1
    14    94    97    1
    15     6     7    1
    16     9    10    1
    17    23    22    2
    18    17    15   ar
    19    98    97    1
    20    14    15   ar
    21    14    13    1
    22   107   105    1
    23    97    99    1
    24    20    21    1
    25   101   102    1
    26   101   100    1
    27   101   104    1
    28   102   103    2
    29    22    21    1
    30    10    13    1
    31    10    11    1
    32   115   113    1
    33    21    24    1
    34    24    26    1
    35    24    25    1
    36    11    12    2
    37   104   105    1
    38   105   106    1
    39   123   121   ar
    40   113   112    1
    41    84    83    1
    42    89    88    2
    43   121   120    1
    44   121   122   ar
    45    81    82    1
    46    81    80    1
    47   120   117    1
    48    83    82    2
    49    83    85    1
    50    88    87    1
    51    80    79    1
    52   112   114    1
    53   112   109    1
    54   111   110    2
    55    90    87    1
    56    90    91    1
    57   110   109    1
    58   110   116   am
    59    87    86    1
    60   108   109    1
    61   117   116    1
    62   117   118    1
    63    39    40    1
    64    39    38    1
    65   119   118    2
    66    92    91    1
    67    92    86    1
    68    31    28    1
    69    86    77   am
    70    37    38    1
    71    37    36    1
    72    79    76    1
    73    33    36    1
    74    33    34    1
    75    33    32    1
    76    77    78    2
    77    77    76    1
    78    28    29    1
    79    28    27    1
    80    76    75    1
    81    34    35    2
    82    29    30    2
    83    48    47   ar
    84    69    68    2
    85    75    68   am
    86    64    63    1
    87    55    54    1
    88    55    57    1
    89    49    47   ar
    90    47    46    1
    91    68    67    1
    92    54    56    1
    93    54    51    1
    94    62    63    1
    95    62    59    1
    96    61    60    2
    97    63    65    1
    98    50    51    1
    99    51    52    1
   100    46    45    1
   101    60    59    1
   102    60    66   am
   103    67    66    1
   104    67    70    1
   105    59    58    1
   106    71    70    1
   107    71    72    1
   108    45    42    1
   109    73    72   ar
   110    52    53    2
   111    72    74   ar
   112    42    41    1
   113    42    43    1
   114    43    44    2
