@<TRIPOS>MOLECULE
tmp/2xj1A00.pdb
 196 183 0 0 0
SMALL
GASTEIGER

@<TRIPOS>ATOM
      1  N        -16.6160  -37.9660   -5.1560 N.3    12  LEU12      -0.1231
      2  CA       -18.0320  -37.8320   -5.4800 C.3    12  LEU12       0.1693
      3  C        -18.3120  -36.5100   -6.1880 C.2    12  LEU12       0.2593
      4  O        -19.2460  -36.3960   -6.9830 O.2    12  LEU12      -0.2718
      5  CB       -18.8830  -37.9350   -4.2100 C.3    12  LEU12       0.0284
      6  CG       -18.9780  -39.2560   -3.4390 C.3    12  LEU12       0.0019
      7  CD1      -19.6130  -38.9910   -2.0630 C.3    12  LEU12       0.0001
      8  CD2      -19.7740  -40.3080   -4.2040 C.3    12  LEU12       0.0001
      9  N        -17.4970  -35.5100   -5.8720 N.am   13  GLY13      -0.1942
     10  CA       -17.6830  -34.1470   -6.3480 C.3    13  GLY13       0.2014
     11  C        -16.6600  -33.1990   -5.7480 C.2    13  GLY13       0.2639
     12  O        -16.0020  -33.5150   -4.7420 O.2    13  GLY13      -0.2714
     13  N        -16.5130  -32.0420   -6.3880 N.am   14  SER14      -0.1949
     14  CA       -15.5410  -31.0400   -5.9710 C.3    14  SER14       0.1924
     15  C        -16.0060  -29.6380   -6.3550 C.2    14  SER14       0.2314
     16  O        -17.0530  -29.4730   -6.9820 O.2    14  SER14      -0.2863
     17  CB       -14.1640  -31.3360   -6.5810 C.3    14  SER14       0.2116
     18  OG       -14.1410  -31.0740   -7.9730 O.3    14  SER14      -0.2180
     19  N        -15.9640  -25.0510   -2.6000 N.3    17  PHE17      -0.1241
     20  CA       -16.3270  -25.5180   -1.2540 C.3    17  PHE17       0.1605
     21  C        -15.3730  -26.5960   -0.7130 C.2    17  PHE17       0.2264
     22  O        -15.2050  -26.7430    0.5030 O.2    17  PHE17      -0.2867
     23  CB       -17.7500  -26.0880   -1.2800 C.3    17  PHE17       0.0534
     24  CG       -17.8740  -27.3500   -2.0870 C.ar   17  PHE17      -0.0203
     25  CD1      -17.7190  -28.5980   -1.4790 C.ar   17  PHE17      -0.0042
     26  CD2      -18.1190  -27.2930   -3.4570 C.ar   17  PHE17      -0.0042
     27  CE1      -17.8080  -29.7650   -2.2090 C.ar   17  PHE17      -0.0003
     28  CE2      -18.2190  -28.4570   -4.2020 C.ar   17  PHE17      -0.0003
     29  CZ       -18.0560  -29.7000   -3.5770 C.ar   17  PHE17      -0.0000
     30  N        -15.2540  -33.7540   -2.0940 N.3    20  VAL20      -0.1245
     31  CA       -15.9820  -34.7620   -1.3360 C.3    20  VAL20       0.1561
     32  C        -15.7180  -36.1590   -1.9000 C.2    20  VAL20       0.2260
     33  O        -15.9110  -36.3910   -3.0940 O.2    20  VAL20      -0.2867
     34  CB       -17.5060  -34.4710   -1.3160 C.3    20  VAL20       0.0252
     35  CG1      -18.1990  -35.3070   -0.2410 C.3    20  VAL20       0.0019
     36  CG2      -17.7540  -33.0050   -1.0360 C.3    20  VAL20       0.0019
     37  N        -19.1380  -39.9090    3.7920 N.3    33  ALA33      -0.1245
     38  CA       -18.5490  -38.9860    2.8490 C.3    33  ALA33       0.1562
     39  C        -17.4420  -38.2420    3.5700 C.2    33  ALA33       0.2260
     40  O        -17.6230  -37.7810    4.7060 O.2    33  ALA33      -0.2867
     41  CB       -19.5850  -38.0070    2.3330 C.3    33  ALA33       0.0290
     42  N        -15.2350  -35.0340    3.3460 N.3    35  LYS35      -0.1245
     43  CA       -15.1320  -33.7330    2.6910 C.3    35  LYS35       0.1561
     44  C        -13.8820  -32.9880    3.1730 C.2    35  LYS35       0.2260
     45  O        -13.6460  -32.8390    4.3750 O.2    35  LYS35      -0.2867
     46  CB       -16.3990  -32.9280    2.9300 C.3    35  LYS35       0.0271
     47  CG       -16.4010  -31.5610    2.2830 C.3    35  LYS35       0.0035
     48  CD       -17.6420  -30.7990    2.6620 C.3    35  LYS35       0.0206
     49  CE       -17.6730  -29.4450    1.9630 C.3    35  LYS35       0.1093
     50  NZ       -19.0200  -28.8370    2.0830 N.3    35  LYS35      -0.1314
     51  N        -18.7410  -23.8240    8.9880 N.3    57  GLU57      -0.1245
     52  CA       -19.4700  -24.9900    8.4620 C.3    57  GLU57       0.1567
     53  C        -19.5820  -26.1040    9.5150 C.2    57  GLU57       0.2260
     54  O        -20.6220  -26.7600    9.6360 O.2    57  GLU57      -0.2867
     55  CB       -18.8260  -25.5080    7.1460 C.3    57  GLU57       0.0388
     56  CG       -19.4530  -26.7940    6.5760 C.3    57  GLU57       0.1160
     57  CD       -18.8480  -27.2760    5.2390 C.2    57  GLU57       0.3649
     58  OE1      -17.8870  -26.6660    4.7160 O.co2  57  GLU57      -0.2457
     59  OE2      -19.3550  -28.2880    4.7140 O.co2  57  GLU57      -0.2457
     60  N        -23.0700  -27.3570   11.1750 N.3    61  LEU61      -0.1245
     61  CA       -23.3990  -28.7840   11.1410 C.3    61  LEU61       0.1561
     62  C        -23.6600  -29.3930   12.5310 C.2    61  LEU61       0.2260
     63  O        -24.6110  -30.1730   12.7080 O.2    61  LEU61      -0.2867
     64  CB       -22.3140  -29.5680   10.3960 C.3    61  LEU61       0.0270
     65  CG       -22.3790  -29.5060    8.8660 C.3    61  LEU61       0.0019
     66  CD1      -21.0990  -30.0840    8.2790 C.3    61  LEU61       0.0001
     67  CD2      -23.6340  -30.2280    8.3320 C.3    61  LEU61       0.0001
     68  N        -27.9740  -33.3380    6.4850 N.3    72  ILE72      -0.1245
     69  CA       -26.8330  -34.2240    6.5480 C.3    72  ILE72       0.1561
     70  C        -26.2310  -34.1810    7.9650 C.2    72  ILE72       0.2260
     71  O        -26.1780  -33.1200    8.5860 O.2    72  ILE72      -0.2867
     72  CB       -25.7750  -33.8850    5.4590 C.3    72  ILE72       0.0252
     73  CG1      -24.8980  -35.1050    5.1420 C.3    72  ILE72       0.0019
     74  CG2      -24.9490  -32.6390    5.8270 C.3    72  ILE72       0.0019
     75  CD1      -25.5910  -36.1520    4.2740 C.3    72  ILE72       0.0001
     76  N        -18.9290  -37.1280    6.9840 N.3    88  LEU88      -0.1231
     77  CA       -20.3690  -36.9650    6.8690 C.3    88  LEU88       0.1693
     78  C        -21.0800  -38.2800    6.5770 C.2    88  LEU88       0.2592
     79  O        -20.5130  -39.2070    6.0050 O.2    88  LEU88      -0.2718
     80  CB       -20.7150  -35.9430    5.7840 C.3    88  LEU88       0.0284
     81  CG       -20.1430  -34.5340    5.9760 C.3    88  LEU88       0.0019
     82  CD1      -19.7950  -33.9090    4.6380 C.3    88  LEU88       0.0001
     83  CD2      -21.1130  -33.6560    6.7520 C.3    88  LEU88       0.0001
     84  N        -22.3240  -38.3450    7.0330 N.am   89  GLU89      -0.1966
     85  CA       -23.2910  -39.3570    6.6480 C.3    89  GLU89       0.1733
     86  C        -23.3040  -39.5620    5.1290 C.2    89  GLU89       0.2616
     87  O        -23.2230  -38.5920    4.3760 O.2    89  GLU89      -0.2715
     88  CB       -24.6590  -38.8320    7.0870 C.3    89  GLU89       0.0429
     89  CG       -25.8480  -39.6850    6.7530 C.3    89  GLU89       0.1163
     90  CD       -27.1340  -39.0970    7.2950 C.2    89  GLU89       0.3649
     91  OE1      -28.0660  -39.8810    7.5880 O.co2  89  GLU89      -0.2457
     92  OE2      -27.2130  -37.8540    7.4300 O.co2  89  GLU89      -0.2457
     93  N        -23.4080  -40.8110    4.6840 N.am   90  ARG90      -0.1977
     94  CA       -23.6770  -41.0870    3.2650 C.3    90  ARG90       0.1597
     95  C        -24.7700  -42.1370    3.0950 C.2    90  ARG90       0.2287
     96  O        -24.5210  -43.3190    3.3330 O.2    90  ARG90      -0.2864
     97  CB       -22.3990  -41.5270    2.5260 C.3    90  ARG90       0.0334
     98  CG       -22.5850  -41.8350    1.0410 C.3    90  ARG90       0.0492
     99  CD       -21.2570  -42.0710    0.2950 C.3    90  ARG90       0.2205
    100  NE       -20.4500  -43.1670    0.8490 N.pl3  90  ARG90      -0.0865
    101  CZ       -20.5910  -44.4530    0.5320 C.cat  90  ARG90       0.5346
    102  NH1      -21.5310  -44.8480   -0.3240 N.pl3  90  ARG90       0.1354
    103  NH2      -19.7880  -45.3580    1.0790 N.pl3  90  ARG90       0.1354
    104  N        -27.7070  -43.4840   -3.2610 N.3    94  VAL94      -0.1231
    105  CA       -28.0790  -42.0750   -3.2230 C.3    94  VAL94       0.1692
    106  C        -27.9250  -41.4860   -4.6200 C.2    94  VAL94       0.2592
    107  O        -27.1600  -42.0070   -5.4410 O.2    94  VAL94      -0.2718
    108  CB       -27.2580  -41.2880   -2.1280 C.3    94  VAL94       0.0266
    109  CG1      -25.7980  -41.1210   -2.5080 C.3    94  VAL94       0.0020
    110  CG2      -27.8630  -39.9600   -1.8410 C.3    94  VAL94       0.0020
    111  N        -28.6930  -40.4400   -4.9080 N.am   95  GLN95      -0.1966
    112  CA       -28.4530  -39.6320   -6.0960 C.3    95  GLN95       0.1733
    113  C        -28.6760  -38.1810   -5.7630 C.2    95  GLN95       0.2616
    114  O        -29.6480  -37.8230   -5.0880 O.2    95  GLN95      -0.2715
    115  CB       -29.3490  -40.0310   -7.2770 C.3    95  GLN95       0.0408
    116  CG       -28.9340  -39.3360   -8.5900 C.3    95  GLN95       0.0908
    117  CD       -29.6810  -39.8510   -9.7950 C.2    95  GLN95       0.2608
    118  OE1      -30.8780  -40.1070   -9.7170 O.2    95  GLN95      -0.2717
    119  NE2      -28.9750  -40.0110  -10.9240 N.am   95  GLN95      -0.0878
    120  N        -27.7650  -37.3420   -6.2310 N.am   96  ASP96      -0.1971
    121  CA       -27.8840  -35.8990   -6.0480 C.3    96  ASP96       0.1709
    122  C        -29.0820  -35.3950   -6.8790 C.2    96  ASP96       0.2293
    123  O        -29.3030  -35.8930   -7.9730 O.2    96  ASP96      -0.2864
    124  CB       -26.5710  -35.2760   -6.5090 C.3    96  ASP96       0.1436
    125  CG       -26.4900  -33.8250   -6.2120 C.2    96  ASP96       0.3671
    126  OD1      -25.8250  -33.4630   -5.2120 O.co2  96  ASP96      -0.2456
    127  OD2      -27.0970  -33.0520   -6.9750 O.co2  96  ASP96      -0.2456
    128  N        -28.4850  -34.2320  -10.5500 N.3    99  ASP99      -0.1239
    129  CA       -28.3010  -35.3570  -11.4490 C.3    99  ASP99       0.1674
    130  C        -29.6280  -36.0460  -11.6860 C.2    99  ASP99       0.2266
    131  O        -29.8970  -36.5100  -12.7740 O.2    99  ASP99      -0.2867
    132  CB       -27.3060  -36.3740  -10.8660 C.3    99  ASP99       0.1410
    133  CG       -25.8970  -35.8170  -10.7470 C.2    99  ASP99       0.3668
    134  OD1      -25.4720  -35.0640  -11.6520 O.co2  99  ASP99      -0.2456
    135  OD2      -25.2010  -36.1480   -9.7620 O.co2  99  ASP99      -0.2456
    136  N        -30.2660  -25.3790   -3.2540 N.3   137  LYS137     -0.1245
    137  CA       -30.3650  -25.6630   -4.6910 C.3   137  LYS137      0.1561
    138  C        -30.3500  -27.1640   -4.9140 C.2   137  LYS137      0.2260
    139  O        -30.0030  -27.9210   -3.9920 O.2   137  LYS137     -0.2867
    140  CB       -29.2180  -25.0070   -5.4840 C.3   137  LYS137      0.0271
    141  CG       -27.8160  -25.3060   -4.9820 C.3   137  LYS137      0.0035
    142  CD       -26.8060  -24.7780   -6.0150 C.3   137  LYS137      0.0206
    143  CE       -25.4090  -25.1450   -5.6170 C.3   137  LYS137      0.1093
    144  NZ       -24.4220  -24.3900   -6.4110 N.3   137  LYS137     -0.1314
    145  N        -28.4070  -29.2270   -6.4940 N.3   139  GLU139     -0.1231
    146  CA       -27.0680  -29.7830   -6.2510 C.3   139  GLU139      0.1699
    147  C        -26.7810  -30.0870   -4.7650 C.2   139  GLU139      0.2592
    148  O        -26.0050  -31.0030   -4.4370 O.2   139  GLU139     -0.2718
    149  CB       -26.0640  -28.7290   -6.6900 C.3   139  GLU139      0.0402
    150  CG       -24.8770  -29.1760   -7.4530 C.3   139  GLU139      0.1161
    151  CD       -24.1690  -27.9790   -8.0900 C.2   139  GLU139      0.3649
    152  OE1      -24.8490  -27.0870   -8.6770 O.co2 139  GLU139     -0.2457
    153  OE2      -22.9320  -27.9260   -7.9850 O.co2 139  GLU139     -0.2457
    154  N        -27.3610  -29.2780   -3.8900 N.am  140  ASN140     -0.1974
    155  CA       -27.2290  -29.4530   -2.4320 C.3   140  ASN140      0.1688
    156  C        -28.3440  -30.2450   -1.7550 C.2   140  ASN140      0.2292
    157  O        -28.5780  -30.1210   -0.5470 O.2   140  ASN140     -0.2864
    158  CB       -26.9850  -28.1020   -1.7540 C.3   140  ASN140      0.1181
    159  CG       -25.6430  -27.5160   -2.1490 C.2   140  ASN140      0.2629
    160  OD1      -24.7350  -28.2610   -2.4950 O.2   140  ASN140     -0.2716
    161  ND2      -25.5100  -26.1890   -2.1020 N.am  140  ASN140     -0.0877
    162  N        -29.5970  -34.3560   -1.5550 N.3   142  LEU142     -0.1245
    163  CA       -29.3830  -35.7580   -1.8940 C.3   142  LEU142      0.1561
    164  C        -30.6780  -36.5340   -1.7530 C.2   142  LEU142      0.2260
    165  O        -31.4630  -36.2850   -0.8160 O.2   142  LEU142     -0.2867
    166  CB       -28.3200  -36.3860   -0.9840 C.3   142  LEU142      0.0270
    167  CG       -26.9050  -35.8000   -0.9960 C.3   142  LEU142      0.0019
    168  CD1      -26.0610  -36.5590    0.0190 C.3   142  LEU142      0.0001
    169  CD2      -26.3050  -35.8740   -2.4100 C.3   142  LEU142      0.0001
    170  N        -27.4060  -30.7890    2.0850 N.3   153  ILE153     -0.1231
    171  CA       -25.9590  -30.9010    2.2760 C.3   153  ILE153      0.1692
    172  C        -25.2870  -29.5650    1.9790 C.2   153  ILE153      0.2592
    173  O        -25.9540  -28.5970    1.5890 O.2   153  ILE153     -0.2718
    174  CB       -25.3170  -31.9910    1.3490 C.3   153  ILE153      0.0266
    175  CG1      -25.6190  -31.6990   -0.1230 C.3   153  ILE153      0.0019
    176  CG2      -25.7710  -33.3870    1.7470 C.3   153  ILE153      0.0020
    177  CD1      -24.7990  -32.5260   -1.1000 C.3   153  ILE153      0.0001
    178  N        -23.9670  -29.5430    2.1710 N.am  154  ASP154     -0.1960
    179  CA       -23.1000  -28.3980    1.9160 C.3   154  ASP154      0.1840
    180  C        -23.4910  -27.1290    2.6470 C.2   154  ASP154      0.2622
    181  O        -24.1440  -26.2390    2.0850 O.2   154  ASP154     -0.2715
    182  CB       -22.9540  -28.1250    0.4140 C.3   154  ASP154      0.1450
    183  CG       -21.7490  -27.2690    0.1080 C.2   154  ASP154      0.3671
    184  OD1      -20.9770  -26.9430    1.0530 O.co2 154  ASP154     -0.2456
    185  OD2      -21.5650  -26.9390   -1.0770 O.co2 154  ASP154     -0.2456
    186  N        -23.0670  -27.0550    3.9070 N.am  155  PHE155     -0.1974
    187  CA       -23.2850  -25.8920    4.7450 C.3   155  PHE155      0.1639
    188  C        -22.1180  -24.9040    4.6710 C.2   155  PHE155      0.2290
    189  O        -21.9660  -24.0660    5.5610 O.2   155  PHE155     -0.2864
    190  CB       -23.5610  -26.3540    6.2050 C.3   155  PHE155      0.0560
    191  CG       -24.9480  -26.8880    6.3790 C.ar  155  PHE155     -0.0200
    192  CD1      -25.2800  -28.1670    5.9240 C.ar  155  PHE155     -0.0042
    193  CD2      -25.9490  -26.0820    6.9090 C.ar  155  PHE155     -0.0042
    194  CE1      -26.5750  -28.6500    6.0250 C.ar  155  PHE155     -0.0003
    195  CE2      -27.2510  -26.5640    7.0170 C.ar  155  PHE155     -0.0003
    196  CZ       -27.5650  -27.8440    6.5780 C.ar  155  PHE155     -0.0000
@<TRIPOS>BOND
     1   131   130    2
     2   130   129    1
     3   134   133   ar
     4   129   132    1
     5   129   128    1
     6   119   117   am
     7   132   133    1
     8   133   135   ar
     9   117   118    2
    10   117   116    1
    11   152   151   ar
    12   116   115    1
    13   151   153   ar
    14   151   150    1
    15   123   122    2
    16    18    17    1
    17   150   149    1
    18   115   112    1
    19     4     3    2
    20    16    15    2
    21   127   125   ar
    22   122   121    1
    23   149   146    1
    24    17    14    1
    25   124   125    1
    26   124   121    1
    27   145   146    1
    28   144   143    1
    29    13    14    1
    30    13    11   am
    31    15    14    1
    32    10     9    1
    33    10    11    1
    34   146   147    1
    35   120   121    1
    36   120   113   am
    37   125   126   ar
    38     3     9   am
    39     3     2    1
    40   112   113    1
    41   112   111    1
    42   142   143    1
    43   142   141    1
    44   113   114    2
    45    11    12    2
    46   140   141    1
    47   140   137    1
    48     2     1    1
    49     2     5    1
    50   107   106    2
    51   138   137    1
    52   138   139    2
    53   111   106   am
    54   147   148    2
    55   147   154   am
    56   137   136    1
    57   106   105    1
    58     5     6    1
    59     8     6    1
    60    28    29   ar
    61    28    26   ar
    62   154   155    1
    63    29    27   ar
    64    26    24   ar
    65     6     7    1
    66   104   105    1
    67   105   108    1
    68    33    32    2
    69    19    20    1
    70   109   108    1
    71   160   159    2
    72   155   156    1
    73   155   158    1
    74   169   167    1
    75    27    25   ar
    76   159   161   am
    77   159   158    1
    78   108   110    1
    79    30    31    1
    80    24    25   ar
    81    24    23    1
    82    32    31    1
    83   163   164    1
    84   163   162    1
    85   163   166    1
    86   156   157    2
    87   164   165    2
    88    31    34    1
    89    34    36    1
    90    34    35    1
    91    23    20    1
    92    20    21    1
    93   177   175    1
    94   185   183   ar
    95   167   166    1
    96   167   168    1
    97    21    22    2
    98   102   101    1
    99   175   174    1
   100   183   182    1
   101   183   184   ar
   102    99   100    1
   103    99    98    1
   104   182   179    1
   105   101   100    2
   106   101   103    1
   107    98    97    1
   108   174   176    1
   109   174   171    1
   110   173   172    2
   111   179   178    1
   112   179   180    1
   113    49    50    1
   114    49    48    1
   115   172   178   am
   116   172   171    1
   117   181   180    2
   118   170   171    1
   119    47    48    1
   120    47    46    1
   121    41    38    1
   122    97    94    1
   123   180   186   am
   124    43    46    1
   125    43    44    1
   126    43    42    1
   127    38    39    1
   128    38    37    1
   129    95    94    1
   130    95    96    2
   131    44    45    2
   132    94    93    1
   133    39    40    2
   134   186   187    1
   135    75    73    1
   136    87    86    2
   137    82    81    1
   138   188   187    1
   139   188   189    2
   140    93    86   am
   141    59    57   ar
   142    58    57   ar
   143   187   190    1
   144    86    85    1
   145    73    72    1
   146    57    56    1
   147    72    74    1
   148    72    69    1
   149    80    81    1
   150    80    77    1
   151   192   194   ar
   152   192   191   ar
   153    81    83    1
   154    79    78    2
   155   194   196   ar
   156   190   191    1
   157   191   193   ar
   158    68    69    1
   159    69    70    1
   160    56    55    1
   161    78    77    1
   162    78    84   am
   163   196   195   ar
   164    85    84    1
   165    85    88    1
   166    89    88    1
   167    89    90    1
   168    77    76    1
   169   193   195   ar
   170    55    52    1
   171    90    92   ar
   172    90    91   ar
   173    70    71    2
   174    66    65    1
   175    67    65    1
   176    52    51    1
   177    52    53    1
   178    65    64    1
   179    53    54    2
   180    64    61    1
   181    61    60    1
   182    61    62    1
   183    62    63    2
