@<TRIPOS>MOLECULE
tmp/2xj2A00.pdb
 188 177 0 0 0
SMALL
GASTEIGER

@<TRIPOS>ATOM
      1  N        -16.5570  -38.0110   -5.3300 N.3    12  LEU12      -0.1231
      2  CA       -17.9460  -37.7720   -5.7190 C.3    12  LEU12       0.1693
      3  C        -18.0980  -36.4610   -6.4980 C.2    12  LEU12       0.2592
      4  O        -18.8770  -36.3780   -7.4450 O.2    12  LEU12      -0.2718
      5  CB       -18.8660  -37.7820   -4.4870 C.3    12  LEU12       0.0284
      6  CG       -19.0510  -39.1320   -3.7710 C.3    12  LEU12       0.0019
      7  CD1      -19.6990  -38.9530   -2.4080 C.3    12  LEU12       0.0001
      8  CD2      -19.8610  -40.1130   -4.6240 C.3    12  LEU12       0.0001
      9  N        -17.3470  -35.4420   -6.0960 N.am   13  GLY13      -0.1957
     10  CA       -17.3800  -34.1430   -6.7620 C.3    13  GLY13       0.1869
     11  C        -16.5240  -33.1210   -6.0420 C.2    13  GLY13       0.2309
     12  O        -16.2020  -33.2850   -4.8660 O.2    13  GLY13      -0.2863
     13  N        -17.1390  -25.6680   -2.7430 N.3    17  PHE17      -0.1241
     14  CA       -17.2540  -26.3130   -1.4220 C.3    17  PHE17       0.1605
     15  C        -16.0230  -27.0920   -0.9440 C.2    17  PHE17       0.2264
     16  O        -15.8660  -27.3390    0.2480 O.2    17  PHE17      -0.2867
     17  CB       -18.4710  -27.2520   -1.3980 C.3    17  PHE17       0.0534
     18  CG       -18.5030  -28.2570   -2.5320 C.ar   17  PHE17      -0.0203
     19  CD1      -17.9110  -29.5140   -2.3880 C.ar   17  PHE17      -0.0042
     20  CD2      -19.1530  -27.9530   -3.7370 C.ar   17  PHE17      -0.0042
     21  CE1      -17.9500  -30.4440   -3.4300 C.ar   17  PHE17      -0.0003
     22  CE2      -19.2020  -28.8800   -4.7840 C.ar   17  PHE17      -0.0003
     23  CZ       -18.6010  -30.1330   -4.6260 C.ar   17  PHE17      -0.0000
     24  N        -15.3270  -33.7970   -2.1530 N.3    20  VAL20      -0.1245
     25  CA       -16.0570  -34.8220   -1.4040 C.3    20  VAL20       0.1561
     26  C        -15.7760  -36.2220   -1.9890 C.2    20  VAL20       0.2260
     27  O        -15.8790  -36.4340   -3.2000 O.2    20  VAL20      -0.2867
     28  CB       -17.5990  -34.5170   -1.3560 C.3    20  VAL20       0.0252
     29  CG1      -18.3450  -35.5150   -0.4650 C.3    20  VAL20       0.0019
     30  CG2      -17.8530  -33.1070   -0.8530 C.3    20  VAL20       0.0019
     31  N        -19.2590  -39.9990    3.6950 N.3    33  ALA33      -0.1245
     32  CA       -18.6480  -39.0720    2.7630 C.3    33  ALA33       0.1562
     33  C        -17.5140  -38.3290    3.4780 C.2    33  ALA33       0.2260
     34  O        -17.6550  -37.9070    4.6310 O.2    33  ALA33      -0.2867
     35  CB       -19.6980  -38.0830    2.2170 C.3    33  ALA33       0.0290
     36  N        -15.2730  -35.1150    3.2700 N.3    35  LYS35      -0.1245
     37  CA       -15.2030  -33.7830    2.6560 C.3    35  LYS35       0.1561
     38  C        -13.9650  -33.0200    3.1440 C.2    35  LYS35       0.2260
     39  O        -13.7390  -32.8650    4.3470 O.2    35  LYS35      -0.2867
     40  CB       -16.4950  -32.9950    2.9330 C.3    35  LYS35       0.0271
     41  CG       -16.5260  -31.5810    2.3510 C.3    35  LYS35       0.0035
     42  CD       -17.8200  -30.8610    2.7060 C.3    35  LYS35       0.0206
     43  CE       -17.9550  -29.5530    1.9400 C.3    35  LYS35       0.1093
     44  NZ       -19.2800  -28.8770    2.1610 N.3    35  LYS35      -0.1314
     45  N        -18.9450  -23.9320    8.9630 N.3    57  GLU57      -0.1245
     46  CA       -19.6100  -25.1450    8.4700 C.3    57  GLU57       0.1567
     47  C        -19.7200  -26.2390    9.5420 C.2    57  GLU57       0.2260
     48  O        -20.7470  -26.9160    9.6460 O.2    57  GLU57      -0.2867
     49  CB       -18.9150  -25.6870    7.2140 C.3    57  GLU57       0.0388
     50  CG       -19.5290  -26.9730    6.6570 C.3    57  GLU57       0.1160
     51  CD       -18.9670  -27.3930    5.2960 C.2    57  GLU57       0.3649
     52  OE1      -18.0230  -26.7440    4.7660 O.co2  57  GLU57      -0.2457
     53  OE2      -19.4890  -28.3900    4.7520 O.co2  57  GLU57      -0.2457
     54  N        -23.2580  -27.4800   11.1660 N.3    61  LEU61      -0.1245
     55  CA       -23.5880  -28.9050   11.1210 C.3    61  LEU61       0.1561
     56  C        -23.8840  -29.4990   12.4980 C.2    61  LEU61       0.2260
     57  O        -24.8180  -30.2950   12.6420 O.2    61  LEU61      -0.2867
     58  CB       -22.4810  -29.6900   10.4280 C.3    61  LEU61       0.0270
     59  CG       -22.4470  -29.5790    8.9040 C.3    61  LEU61       0.0019
     60  CD1      -21.1470  -30.1790    8.3680 C.3    61  LEU61       0.0001
     61  CD2      -23.7020  -30.2330    8.2620 C.3    61  LEU61       0.0001
     62  N        -28.1970  -33.5580    6.4980 N.3    72  ILE72      -0.1245
     63  CA       -27.0410  -34.4350    6.5960 C.3    72  ILE72       0.1561
     64  C        -26.4440  -34.4070    8.0170 C.2    72  ILE72       0.2260
     65  O        -26.4110  -33.3620    8.6530 O.2    72  ILE72      -0.2867
     66  CB       -25.9750  -34.1080    5.4960 C.3    72  ILE72       0.0252
     67  CG1      -25.0910  -35.3270    5.1980 C.3    72  ILE72       0.0019
     68  CG2      -25.1520  -32.8560    5.8380 C.3    72  ILE72       0.0019
     69  CD1      -25.8010  -36.4270    4.4030 C.3    72  ILE72       0.0001
     70  N        -19.0630  -37.2450    6.8920 N.3    88  LEU88      -0.1231
     71  CA       -20.5020  -37.0720    6.7940 C.3    88  LEU88       0.1693
     72  C        -21.1910  -38.3930    6.5000 C.2    88  LEU88       0.2592
     73  O        -20.6080  -39.2900    5.8890 O.2    88  LEU88      -0.2718
     74  CB       -20.8490  -36.0450    5.7130 C.3    88  LEU88       0.0284
     75  CG       -20.2800  -34.6350    5.9610 C.3    88  LEU88       0.0019
     76  CD1      -19.7860  -34.0150    4.6670 C.3    88  LEU88       0.0001
     77  CD2      -21.2720  -33.7240    6.6920 C.3    88  LEU88       0.0001
     78  N        -22.4300  -38.4940    6.9710 N.am   89  GLU89      -0.1966
     79  CA       -23.3740  -39.5410    6.5980 C.3    89  GLU89       0.1733
     80  C        -23.4090  -39.7400    5.0780 C.2    89  GLU89       0.2616
     81  O        -23.2760  -38.7770    4.3200 O.2    89  GLU89      -0.2715
     82  CB       -24.7590  -39.1100    7.0960 C.3    89  GLU89       0.0429
     83  CG       -25.9370  -39.8950    6.5730 C.3    89  GLU89       0.1163
     84  CD       -27.2760  -39.2750    6.9650 C.2    89  GLU89       0.3649
     85  OE1      -28.3000  -39.9840    6.8660 O.co2  89  GLU89      -0.2457
     86  OE2      -27.3090  -38.0920    7.3730 O.co2  89  GLU89      -0.2457
     87  N        -23.5830  -40.9810    4.6360 N.am   90  ARG90      -0.1964
     88  CA       -23.8310  -41.2420    3.2170 C.3    90  ARG90       0.1714
     89  C        -24.9020  -42.3090    2.9830 C.2    90  ARG90       0.2458
     90  O        -24.6550  -43.4990    3.2030 O.2    90  ARG90      -0.2730
     91  CB       -22.5340  -41.5710    2.4610 C.3    90  ARG90       0.0347
     92  CG       -22.7440  -41.9620    0.9930 C.3    90  ARG90       0.0492
     93  CD       -21.4340  -42.0950    0.2220 C.3    90  ARG90       0.2205
     94  NE       -20.5880  -43.1830    0.7140 N.pl3  90  ARG90      -0.0865
     95  CZ       -20.7150  -44.4700    0.3840 C.cat  90  ARG90       0.5346
     96  NH1      -21.6740  -44.8740   -0.4390 N.pl3  90  ARG90       0.1354
     97  NH2      -19.8680  -45.3660    0.8830 N.pl3  90  ARG90       0.1354
     98  N        -26.1010  -41.8810    2.5330 N.am   91  PRO91      -0.2727
     99  CA       -27.1470  -42.8170    2.0890 C.3    91  PRO91       0.1402
    100  C        -26.6790  -43.6290    0.8830 C.2    91  PRO91       0.2269
    101  O        -25.8820  -43.1470    0.0670 O.2    91  PRO91      -0.2865
    102  CB       -28.3150  -41.8970    1.6990 C.3    91  PRO91       0.0296
    103  CG       -28.0300  -40.5900    2.3730 C.3    91  PRO91       0.0237
    104  CD       -26.5400  -40.4720    2.4320 C.3    91  PRO91       0.0939
    105  N        -27.8150  -43.4720   -3.3820 N.3    94  VAL94      -0.1231
    106  CA       -28.1620  -42.0520   -3.3170 C.3    94  VAL94       0.1692
    107  C        -28.0180  -41.4240   -4.7110 C.2    94  VAL94       0.2592
    108  O        -27.2260  -41.8920   -5.5400 O.2    94  VAL94      -0.2718
    109  CB       -27.3140  -41.2930   -2.2260 C.3    94  VAL94       0.0266
    110  CG1      -25.8830  -41.0610   -2.6700 C.3    94  VAL94       0.0020
    111  CG2      -27.9500  -39.9640   -1.8320 C.3    94  VAL94       0.0020
    112  N        -28.8110  -40.3950   -4.9800 N.am   95  GLN95      -0.1966
    113  CA       -28.5910  -39.5570   -6.1500 C.3    95  GLN95       0.1733
    114  C        -28.9350  -38.1360   -5.7840 C.2    95  GLN95       0.2616
    115  O        -29.9300  -37.9170   -5.0860 O.2    95  GLN95      -0.2715
    116  CB       -29.4550  -40.0060   -7.3300 C.3    95  GLN95       0.0408
    117  CG       -29.0800  -39.3010   -8.6220 C.3    95  GLN95       0.0908
    118  CD       -29.8140  -39.8460   -9.8130 C.2    95  GLN95       0.2608
    119  OE1      -31.0070  -40.1140   -9.7440 O.2    95  GLN95      -0.2717
    120  NE2      -29.1020  -40.0130  -10.9220 N.am   95  GLN95      -0.0878
    121  N        -28.1360  -37.1580   -6.2210 N.am   96  ASP96      -0.1971
    122  CA       -28.5530  -35.7720   -5.9400 C.3    96  ASP96       0.1709
    123  C        -29.6770  -35.3100   -6.8700 C.2    96  ASP96       0.2293
    124  O        -29.8970  -35.9020   -7.9280 O.2    96  ASP96      -0.2864
    125  CB       -27.3820  -34.7760   -5.8080 C.3    96  ASP96       0.1436
    126  CG       -26.7710  -34.3640   -7.1340 C.2    96  ASP96       0.3671
    127  OD1      -27.5010  -34.0900   -8.1080 O.co2  96  ASP96      -0.2456
    128  OD2      -25.5290  -34.2570   -7.1790 O.co2  96  ASP96      -0.2456
    129  N        -28.8270  -34.4230  -10.5710 N.3    99  ASP99      -0.1239
    130  CA       -28.6610  -35.5910  -11.4260 C.3    99  ASP99       0.1674
    131  C        -29.9920  -36.2740  -11.6980 C.2    99  ASP99       0.2266
    132  O        -30.2460  -36.7420  -12.8170 O.2    99  ASP99      -0.2867
    133  CB       -27.6870  -36.6020  -10.8150 C.3    99  ASP99       0.1410
    134  CG       -26.2460  -36.1210  -10.8300 C.2    99  ASP99       0.3668
    135  OD1      -25.9120  -35.1770  -11.5780 O.co2  99  ASP99      -0.2456
    136  OD2      -25.4390  -36.6980  -10.0760 O.co2  99  ASP99      -0.2456
    137  N        -28.4820  -29.5100   -6.5560 N.3   139  GLU139     -0.1231
    138  CA       -27.1910  -30.1580   -6.2280 C.3   139  GLU139      0.1699
    139  C        -26.9420  -30.4200   -4.7410 C.2   139  GLU139      0.2592
    140  O        -26.1890  -31.3390   -4.3950 O.2   139  GLU139     -0.2718
    141  CB       -26.0240  -29.2880   -6.6850 C.3   139  GLU139      0.0402
    142  CG       -25.7910  -29.2410   -8.1680 C.3   139  GLU139      0.1161
    143  CD       -24.7870  -28.1630   -8.5440 C.2   139  GLU139      0.3649
    144  OE1      -24.9630  -27.5480   -9.6220 O.co2 139  GLU139     -0.2457
    145  OE2      -23.8390  -27.9270   -7.7510 O.co2 139  GLU139     -0.2457
    146  N        -27.5110  -29.5680   -3.8850 N.am  140  ASN140     -0.1974
    147  CA       -27.3430  -29.6710   -2.4320 C.3   140  ASN140      0.1688
    148  C        -28.4750  -30.4500   -1.7490 C.2   140  ASN140      0.2292
    149  O        -28.6960  -30.3320   -0.5360 O.2   140  ASN140     -0.2864
    150  CB       -27.1530  -28.2830   -1.8080 C.3   140  ASN140      0.1181
    151  CG       -25.8450  -27.6150   -2.2320 C.2   140  ASN140      0.2629
    152  OD1      -24.9080  -28.2770   -2.6980 O.2   140  ASN140     -0.2716
    153  ND2      -25.7720  -26.2910   -2.0620 N.am  140  ASN140     -0.0877
    154  N        -29.8320  -34.4510   -1.5010 N.3   142  LEU142     -0.1245
    155  CA       -29.5910  -35.8680   -1.7860 C.3   142  LEU142      0.1561
    156  C        -30.8920  -36.6160   -1.6510 C.2   142  LEU142      0.2260
    157  O        -31.6760  -36.3240   -0.7400 O.2   142  LEU142     -0.2867
    158  CB       -28.5520  -36.4710   -0.8290 C.3   142  LEU142      0.0270
    159  CG       -27.1040  -35.9650   -0.8710 C.3   142  LEU142      0.0019
    160  CD1      -26.2280  -36.7590    0.0870 C.3   142  LEU142      0.0001
    161  CD2      -26.5490  -36.0490   -2.2890 C.3   142  LEU142      0.0001
    162  N        -27.6280  -30.9650    2.0330 N.3   153  ILE153     -0.1231
    163  CA       -26.1770  -31.0530    2.2430 C.3   153  ILE153      0.1692
    164  C        -25.4900  -29.7080    1.9880 C.2   153  ILE153      0.2592
    165  O        -26.1280  -28.7500    1.5530 O.2   153  ILE153     -0.2718
    166  CB       -25.4940  -32.1530    1.3440 C.3   153  ILE153      0.0266
    167  CG1      -25.6640  -31.8390   -0.1640 C.3   153  ILE153      0.0019
    168  CG2      -26.0060  -33.5250    1.7230 C.3   153  ILE153      0.0020
    169  CD1      -24.6880  -32.5820   -1.0960 C.3   153  ILE153      0.0001
    170  N        -24.1800  -29.6850    2.2360 N.am  154  ASP154     -0.1960
    171  CA       -23.2980  -28.5360    1.9980 C.3   154  ASP154      0.1840
    172  C        -23.6960  -27.2430    2.7010 C.2   154  ASP154      0.2622
    173  O        -24.3120  -26.3430    2.1020 O.2   154  ASP154     -0.2715
    174  CB       -23.0600  -28.2920    0.5120 C.3   154  ASP154      0.1450
    175  CG       -21.8810  -27.3620    0.2630 C.2   154  ASP154      0.3671
    176  OD1      -21.1130  -27.0770    1.2130 O.co2 154  ASP154     -0.2456
    177  OD2      -21.7170  -26.9260   -0.8890 O.co2 154  ASP154     -0.2456
    178  N        -23.3050  -27.1690    3.9720 N.am  155  PHE155     -0.1974
    179  CA       -23.5100  -25.9930    4.8100 C.3   155  PHE155      0.1639
    180  C        -22.3230  -25.0190    4.7300 C.2   155  PHE155      0.2290
    181  O        -22.1690  -24.1440    5.5870 O.2   155  PHE155     -0.2864
    182  CB       -23.7990  -26.4380    6.2670 C.3   155  PHE155      0.0560
    183  CG       -25.1800  -27.0190    6.4440 C.ar  155  PHE155     -0.0200
    184  CD1      -25.4830  -28.3070    5.9800 C.ar  155  PHE155     -0.0042
    185  CD2      -26.1960  -26.2580    7.0090 C.ar  155  PHE155     -0.0042
    186  CE1      -26.7690  -28.8380    6.1010 C.ar  155  PHE155     -0.0003
    187  CE2      -27.4910  -26.7810    7.1400 C.ar  155  PHE155     -0.0003
    188  CZ       -27.7790  -28.0710    6.6880 C.ar  155  PHE155     -0.0000
@<TRIPOS>BOND
     1   132   131    2
     2   131   130    1
     3   135   134   ar
     4   130   133    1
     5   130   129    1
     6   120   118   am
     7   134   133    1
     8   134   136   ar
     9   118   119    2
    10   118   117    1
    11   144   143   ar
    12   117   116    1
    13   143   142    1
    14   143   145   ar
    15   142   141    1
    16   127   126   ar
    17   124   123    2
    18     4     3    2
    19   116   113    1
    20   128   126   ar
    21   126   125    1
    22   123   122    1
    23    10     9    1
    24    10    11    1
    25   141   138    1
    26   137   138    1
    27     3     9   am
    28     3     2    1
    29   138   139    1
    30   121   122    1
    31   121   114   am
    32   113   114    1
    33   113   112    1
    34    11    12    2
    35   122   125    1
    36   114   115    2
    37     2     1    1
    38     2     5    1
    39   108   107    2
    40   112   107   am
    41    22    23   ar
    42    22    20   ar
    43   139   140    2
    44   139   146   am
    45   107   106    1
    46    23    21   ar
    47     8     6    1
    48     5     6    1
    49   146   147    1
    50     6     7    1
    51    20    18   ar
    52    21    19   ar
    53   105   106    1
    54   106   109    1
    55    27    26    2
    56    13    14    1
    57   152   151    2
    58   110   109    1
    59    18    19   ar
    60    18    17    1
    61   147   150    1
    62   147   148    1
    63   161   159    1
    64   151   153   am
    65   151   150    1
    66   109   111    1
    67    24    25    1
    68    26    25    1
    69   155   156    1
    70   155   154    1
    71   155   158    1
    72   148   149    2
    73   156   157    2
    74    14    17    1
    75    14    15    1
    76    25    28    1
    77    28    30    1
    78    28    29    1
    79   169   167    1
    80    15    16    2
    81   177   175   ar
    82   159   158    1
    83   159   160    1
    84    96    95    1
    85   167   166    1
    86   101   100    2
    87    93    94    1
    88    93    92    1
    89   175   174    1
    90   175   176   ar
    91    95    94    2
    92    95    97    1
    93   174   171    1
    94   100    99    1
    95    92    91    1
    96   166   168    1
    97   166   163    1
    98   165   164    2
    99   102    99    1
   100   102   103    1
   101    43    44    1
   102    43    42    1
   103   164   170   am
   104   164   163    1
   105   171   170    1
   106   171   172    1
   107   162   163    1
   108    99    98    1
   109   173   172    2
   110    35    32    1
   111    41    42    1
   112    41    40    1
   113   103   104    1
   114   104    98    1
   115    91    88    1
   116    98    89   am
   117    37    40    1
   118    37    38    1
   119    37    36    1
   120   172   178   am
   121    32    33    1
   122    32    31    1
   123    89    90    2
   124    89    88    1
   125    38    39    2
   126    88    87    1
   127    33    34    2
   128   178   179    1
   129    81    80    2
   130    69    67    1
   131    87    80   am
   132    76    75    1
   133   180   179    1
   134   180   181    2
   135    53    51   ar
   136    52    51   ar
   137   179   182    1
   138    80    79    1
   139    67    66    1
   140    51    50    1
   141    66    68    1
   142    66    63    1
   143    74    75    1
   144    74    71    1
   145    73    72    2
   146    75    77    1
   147   184   186   ar
   148   184   183   ar
   149   186   188   ar
   150   182   183    1
   151   183   185   ar
   152    62    63    1
   153    72    71    1
   154    72    78   am
   155    83    84    1
   156    83    82    1
   157    63    64    1
   158    79    78    1
   159    79    82    1
   160    50    49    1
   161   188   187   ar
   162    71    70    1
   163    85    84   ar
   164    84    86   ar
   165   185   187   ar
   166    49    46    1
   167    64    65    2
   168    61    59    1
   169    60    59    1
   170    46    45    1
   171    46    47    1
   172    59    58    1
   173    47    48    2
   174    58    55    1
   175    55    54    1
   176    55    56    1
   177    56    57    2
