@<TRIPOS>MOLECULE
tmp/2xj7A00.pdb
 159 153 0 0 0
SMALL
GASTEIGER

@<TRIPOS>ATOM
      1  N          3.4700  -38.5820   37.5200 N.3   132  GLY132     -0.1210
      2  CA         4.1230  -37.4460   36.8160 C.3   132  GLY132      0.1956
      3  C          3.7930  -36.0910   37.3860 C.2   132  GLY132      0.2612
      4  O          3.9770  -35.0070   36.7000 O.2   132  GLY132     -0.2717
      5  N          3.3130  -36.1340   38.6270 N.am  133  PHE133     -0.1962
      6  CA         2.8700  -34.9320   39.3800 C.3   133  PHE133      0.1771
      7  C          4.0200  -34.1210   40.0320 C.2   133  PHE133      0.2619
      8  O          5.1290  -34.6400   40.1820 O.2   133  PHE133     -0.2715
      9  CB         1.8060  -35.2930   40.4260 C.3   133  PHE133      0.0574
     10  CG         2.2290  -36.3440   41.3860 C.ar  133  PHE133     -0.0200
     11  CD1        3.0270  -36.0210   42.4850 C.ar  133  PHE133     -0.0042
     12  CD2        1.8400  -37.6550   41.1880 C.ar  133  PHE133     -0.0042
     13  CE1        3.4290  -37.0690   43.4090 C.ar  133  PHE133     -0.0003
     14  CE2        2.2350  -38.6670   42.0470 C.ar  133  PHE133     -0.0003
     15  CZ         3.0350  -38.3540   43.1450 C.ar  133  PHE133     -0.0000
     16  N          3.7710  -32.8270   40.3300 N.am  134  TYR134     -0.1974
     17  CA         4.5820  -32.0470   41.3080 C.3   134  TYR134      0.1639
     18  C          4.1880  -32.3550   42.7640 C.2   134  TYR134      0.2290
     19  O          2.9720  -32.3900   43.0590 O.2   134  TYR134     -0.2864
     20  CB         4.3310  -30.5420   41.0890 C.3   134  TYR134      0.0560
     21  CG         4.8080  -30.0870   39.7610 C.ar  134  TYR134     -0.0198
     22  CD1        6.1720  -29.7850   39.5400 C.ar  134  TYR134     -0.0009
     23  CD2        3.9240  -29.9720   38.7020 C.ar  134  TYR134     -0.0009
     24  CE1        6.6220  -29.3420   38.2600 C.ar  134  TYR134      0.0417
     25  CE2        4.3520  -29.4840   37.4300 C.ar  134  TYR134      0.0417
     26  CZ         5.6960  -29.2050   37.2190 C.ar  134  TYR134      0.1957
     27  OH         6.0710  -28.7820   35.9540 O.3   134  TYR134     -0.2866
     28  N          7.9010  -35.1280   39.1350 N.3   163  LYS163     -0.1245
     29  CA         8.5530  -33.8720   38.7960 C.3   163  LYS163      0.1561
     30  C          9.6530  -33.4840   39.7860 C.2   163  LYS163      0.2260
     31  O         10.6230  -32.8330   39.4230 O.2   163  LYS163     -0.2867
     32  CB         7.5260  -32.7500   38.6690 C.3   163  LYS163      0.0271
     33  CG         6.6970  -32.7900   37.4030 C.3   163  LYS163      0.0035
     34  CD         7.5480  -32.5940   36.1560 C.3   163  LYS163      0.0206
     35  CE         6.6950  -32.3680   34.9130 C.3   163  LYS163      0.1093
     36  NZ         6.0360  -33.5570   34.3380 N.3   163  LYS163     -0.1314
     37  N          7.7780  -31.4840   28.9760 N.3   239  ASP239     -0.1225
     38  CA         6.6670  -30.6600   29.4840 C.3   239  ASP239      0.1805
     39  C          7.0960  -29.6210   30.5330 C.2   239  ASP239      0.2597
     40  O          7.9510  -29.8950   31.3830 O.2   239  ASP239     -0.2718
     41  CB         5.5370  -31.5260   30.0650 C.3   239  ASP239      0.1424
     42  CG         6.0110  -32.4380   31.1790 C.2   239  ASP239      0.3668
     43  OD1        7.1280  -32.9770   31.0850 O.co2 239  ASP239     -0.2456
     44  OD2        5.2560  -32.5620   32.1600 O.co2 239  ASP239     -0.2456
     45  N          6.4820  -28.4360   30.4740 N.am  240  ASP240     -0.1974
     46  CA         6.6980  -27.4070   31.5300 C.3   240  ASP240      0.1709
     47  C          8.1570  -27.0020   31.6830 C.2   240  ASP240      0.2293
     48  O          8.6870  -27.0200   32.7880 O.2   240  ASP240     -0.2864
     49  CB         6.1630  -27.8130   32.9160 C.3   240  ASP240      0.1436
     50  CG         4.6250  -27.9730   32.9770 C.2   240  ASP240      0.3671
     51  OD1        3.9060  -27.5230   32.0720 O.co2 240  ASP240     -0.2456
     52  OD2        4.1420  -28.4960   34.0000 O.co2 240  ASP240     -0.2456
     53  N          6.8010  -36.9380   25.8720 N.3   275  CYS275     -0.1235
     54  CA         5.7420  -35.9820   26.1520 C.3   275  CYS275      0.1677
     55  C          6.1780  -34.6640   25.5580 C.2   275  CYS275      0.2270
     56  O          7.2650  -34.2010   25.8540 O.2   275  CYS275     -0.2867
     57  CB         5.4560  -35.8490   27.6630 C.3   275  CYS275      0.0956
     58  SG         4.1650  -34.5240   28.0390 S.3   275  CYS275     -0.0801
     59  N          1.5540  -29.6080   24.8870 N.3   279  TYR279     -0.1241
     60  CA         0.8940  -30.8640   25.1900 C.3   279  TYR279      0.1605
     61  C         -0.6250  -30.7910   25.2600 C.2   279  TYR279      0.2264
     62  O         -1.2800  -31.7250   25.6940 O.2   279  TYR279     -0.2867
     63  CB         1.4740  -31.5090   26.4420 C.3   279  TYR279      0.0534
     64  CG         1.4610  -30.6740   27.6930 C.ar  279  TYR279     -0.0201
     65  CD1        0.2930  -30.4420   28.3850 C.ar  279  TYR279     -0.0009
     66  CD2        2.6300  -30.1680   28.2100 C.ar  279  TYR279     -0.0009
     67  CE1        0.2900  -29.7120   29.5290 C.ar  279  TYR279      0.0417
     68  CE2        2.6380  -29.4480   29.3500 C.ar  279  TYR279      0.0417
     69  CZ         1.4680  -29.2160   30.0110 C.ar  279  TYR279      0.1957
     70  OH         1.4870  -28.4840   31.1650 O.3   279  TYR279     -0.2866
     71  N         -2.7050  -34.1180   26.5130 N.3   307  THR307     -0.1218
     72  CA        -3.5840  -34.0430   27.7140 C.3   307  THR307      0.1862
     73  C         -4.9660  -33.4750   27.3360 C.2   307  THR307      0.2287
     74  O         -5.8170  -33.2010   28.2110 O.2   307  THR307     -0.2866
     75  CB        -2.9930  -33.2080   28.8760 C.3   307  THR307      0.1770
     76  OG1       -2.9920  -31.8070   28.5000 O.3   307  THR307     -0.2211
     77  CG2       -1.5680  -33.6530   29.2580 C.3   307  THR307      0.0375
     78  N         -5.0740  -27.8770   29.2710 N.3   311  VAL311     -0.1231
     79  CA        -4.0700  -28.3800   30.2210 C.3   311  VAL311      0.1692
     80  C         -4.7040  -29.4880   31.0450 C.2   311  VAL311      0.2591
     81  O         -4.0640  -30.5400   31.3130 O.2   311  VAL311     -0.2718
     82  CB        -3.5630  -27.2440   31.1720 C.3   311  VAL311      0.0266
     83  CG1       -2.6230  -27.7550   32.2140 C.3   311  VAL311      0.0020
     84  CG2       -2.8950  -26.0950   30.3650 C.3   311  VAL311      0.0020
     85  N         -5.9350  -29.2610   31.5070 N.am  312  ILE312     -0.1980
     86  CA        -6.6890  -30.3840   32.1190 C.3   312  ILE312      0.1595
     87  C         -8.0160  -30.4250   31.3530 C.2   312  ILE312      0.2287
     88  O         -8.7280  -29.4170   31.2570 O.2   312  ILE312     -0.2864
     89  CB        -6.9620  -30.2600   33.6980 C.3   312  ILE312      0.0276
     90  CG1       -5.6810  -29.9620   34.5500 C.3   312  ILE312      0.0022
     91  CG2       -7.6710  -31.4970   34.2210 C.3   312  ILE312      0.0022
     92  CD1       -5.4750  -28.4730   34.5750 C.3   312  ILE312      0.0001
     93  N         -2.3050  -38.5790   28.1920 N.3   334  TRP334     -0.1241
     94  CA        -1.8830  -38.2490   29.5570 C.3   334  TRP334      0.1605
     95  C         -3.0920  -37.5110   30.1260 C.2   334  TRP334      0.2264
     96  O         -3.3420  -36.3310   29.8000 O.2   334  TRP334     -0.2867
     97  CB        -0.6830  -37.2890   29.5100 C.3   334  TRP334      0.0550
     98  CG        -0.1220  -36.7220   30.8560 C.ar  334  TRP334      0.0003
     99  CD1       -0.8310  -36.1680   31.9030 C.ar  334  TRP334      0.0946
    100  CD2        1.2750  -36.6450   31.2430 C.ar  334  TRP334      0.0152
    101  NE1        0.0420  -35.7550   32.8940 N.ar  334  TRP334     -0.2442
    102  CE2        1.3290  -36.0110   32.5070 C.ar  334  TRP334      0.0810
    103  CE3        2.4770  -37.0250   30.6180 C.ar  334  TRP334      0.0012
    104  CZ2        2.5320  -35.7710   33.1940 C.ar  334  TRP334      0.0191
    105  CZ3        3.6840  -36.7590   31.2800 C.ar  334  TRP334      0.0001
    106  CH2        3.6990  -36.1540   32.5860 C.ar  334  TRP334      0.0015
    107  N         -5.0630  -35.5770   32.8700 N.3   336  ASN336     -0.1240
    108  CA        -4.7590  -34.8850   34.1460 C.3   336  ASN336      0.1653
    109  C         -5.8470  -34.9590   35.2380 C.2   336  ASN336      0.2266
    110  O         -6.4230  -33.9610   35.6110 O.2   336  ASN336     -0.2867
    111  CB        -4.3250  -33.4360   33.9110 C.3   336  ASN336      0.1155
    112  CG        -2.8370  -33.3460   33.5870 C.2   336  ASN336      0.2627
    113  OD1       -2.0440  -33.9900   34.2490 O.2   336  ASN336     -0.2716
    114  ND2       -2.4600  -32.5420   32.5480 N.am  336  ASN336     -0.0877
    115  N         -5.0090  -35.8080   39.3960 N.3   339  VAL339     -0.1245
    116  CA        -3.9030  -35.0040   39.8620 C.3   339  VAL339      0.1561
    117  C         -4.4240  -33.7360   40.5250 C.2   339  VAL339      0.2260
    118  O         -5.3310  -33.0900   39.9950 O.2   339  VAL339     -0.2867
    119  CB        -2.8730  -34.6840   38.7550 C.3   339  VAL339      0.0252
    120  CG1       -3.5380  -33.9590   37.5500 C.3   339  VAL339      0.0019
    121  CG2       -1.6950  -33.8330   39.3460 C.3   339  VAL339      0.0019
    122  N         -2.1920  -31.3170   42.0440 N.3   341  ASP341     -0.1225
    123  CA        -0.9700  -30.6470   42.4710 C.3   341  ASP341      0.1805
    124  C         -1.0770  -29.1370   42.2580 C.2   341  ASP341      0.2597
    125  O         -0.1830  -28.3660   42.6090 O.2   341  ASP341     -0.2718
    126  CB         0.2800  -31.3060   41.8530 C.3   341  ASP341      0.1424
    127  CG         0.3660  -31.1660   40.3500 C.2   341  ASP341      0.3668
    128  OD1       -0.3320  -30.2710   39.7420 O.co2 341  ASP341     -0.2456
    129  OD2        1.1990  -31.9550   39.7830 O.co2 341  ASP341     -0.2456
    130  N         -2.2220  -28.7180   41.7580 N.am  342  TYR342     -0.1976
    131  CA        -2.4630  -27.2850   41.5670 C.3   342  TYR342      0.1639
    132  C         -3.7090  -26.8320   42.3680 C.2   342  TYR342      0.2290
    133  O         -4.0830  -25.6440   42.3340 O.2   342  TYR342     -0.2864
    134  CB        -2.5820  -26.9720   40.0570 C.3   342  TYR342      0.0560
    135  CG        -3.7320  -27.7000   39.3890 C.ar  342  TYR342     -0.0198
    136  CD1       -3.5650  -28.9970   38.8980 C.ar  342  TYR342     -0.0009
    137  CD2       -4.9910  -27.0890   39.2470 C.ar  342  TYR342     -0.0009
    138  CE1       -4.6270  -29.6910   38.2990 C.ar  342  TYR342      0.0417
    139  CE2       -6.0710  -27.7770   38.6250 C.ar  342  TYR342      0.0417
    140  CZ        -5.8830  -29.0600   38.1640 C.ar  342  TYR342      0.1957
    141  OH        -6.9120  -29.7550   37.5400 O.3   342  TYR342     -0.2866
    142  N         -2.6810  -39.2650   35.3690 N.3   369  ASN369     -0.1240
    143  CA        -1.7540  -38.5720   36.2430 C.3   369  ASN369      0.1653
    144  C         -2.4680  -38.3400   37.5710 C.2   369  ASN369      0.2266
    145  O         -3.3800  -37.5380   37.6470 O.2   369  ASN369     -0.2867
    146  CB        -1.3630  -37.2470   35.6070 C.3   369  ASN369      0.1155
    147  CG        -0.2950  -36.5170   36.3750 C.2   369  ASN369      0.2627
    148  OD1        0.4890  -37.1130   37.0920 O.2   369  ASN369     -0.2716
    149  ND2       -0.2580  -35.2130   36.2150 N.am  369  ASN369     -0.0877
    150  N         -6.9690  -23.1960   35.8930 N.3   430  HIS430     -0.1241
    151  CA        -7.2440  -24.0420   34.7370 C.3   430  HIS430      0.1621
    152  C         -8.7210  -24.1750   34.3870 C.2   430  HIS430      0.2264
    153  O         -9.0460  -24.6780   33.3160 O.2   430  HIS430     -0.2867
    154  CB        -6.5550  -25.3900   34.9360 C.3   430  HIS430      0.0745
    155  CG        -5.0690  -25.2780   34.9060 C.ar  430  HIS430      0.0817
    156  ND1       -4.4100  -24.5060   33.9680 N.ar  430  HIS430     -0.2268
    157  CD2       -4.1110  -25.8150   35.6970 C.ar  430  HIS430      0.1154
    158  CE1       -3.1050  -24.6000   34.1680 C.ar  430  HIS430      0.1986
    159  NE2       -2.9010  -25.3730   35.2240 N.ar  430  HIS430     -0.2212
@<TRIPOS>BOND
     1    59    60    1
     2    60    61    1
     3    60    63    1
     4    61    62    2
     5    55    56    2
     6    55    54    1
     7    53    54    1
     8    54    57    1
     9    63    64    1
    10    71    72    1
    11    73    72    1
    12    73    74    2
    13    57    58    1
    14    64    66   ar
    15    64    65   ar
    16    72    75    1
    17    93    94    1
    18    66    68   ar
    19    65    67   ar
    20    76    75    1
    21    75    77    1
    22    37    38    1
    23    78    79    1
    24    68    69   ar
    25    38    41    1
    26    38    39    1
    27    97    94    1
    28    97    98    1
    29    67    69   ar
    30    94    95    1
    31    96    95    2
    32    69    70    1
    33    41    42    1
    34    79    80    1
    35    79    82    1
    36    84    82    1
    37    45    39   am
    38    45    46    1
    39    39    40    2
    40   103   100   ar
    41   103   105   ar
    42    98   100   ar
    43    98    99   ar
    44    80    81    2
    45    80    85   am
    46    43    42   ar
    47    82    83    1
    48    42    44   ar
    49   100   102   ar
    50    88    87    2
    51   105   106   ar
    52    87    86    1
    53    85    86    1
    54    46    47    1
    55    46    49    1
    56    47    48    2
    57    99   101   ar
    58    51    50   ar
    59    86    89    1
    60   102   101   ar
    61   102   104   ar
    62   114   112   am
    63   106   104   ar
    64   107   108    1
    65    49    50    1
    66    50    52   ar
    67   153   152    2
    68   112   111    1
    69   112   113    2
    70    89    91    1
    71    89    90    1
    72   111   108    1
    73   156   158   ar
    74   156   155   ar
    75   108   109    1
    76   158   159   ar
    77    36    35    1
    78   152   151    1
    79    90    92    1
    80   151   154    1
    81   151   150    1
    82   155   154    1
    83   155   157   ar
    84    35    34    1
    85   159   157   ar
    86   109   110    2
    87   142   143    1
    88   146   143    1
    89   146   147    1
    90    27    26    1
    91    34    33    1
    92   149   147   am
    93   143   144    1
    94   147   148    2
    95     4     3    2
    96     2     3    1
    97     2     1    1
    98    26    25   ar
    99    26    24   ar
   100     3     5   am
   101    33    32    1
   102    25    23   ar
   103   141   140    1
   104   120   119    1
   105   144   145    2
   106   140   138   ar
   107   140   139   ar
   108    24    22   ar
   109   138   136   ar
   110   139   137   ar
   111     5     6    1
   112    32    29    1
   113    23    21   ar
   114   119   121    1
   115   119   116    1
   116    29    28    1
   117    29    30    1
   118   136   135   ar
   119   137   135   ar
   120     6     7    1
   121     6     9    1
   122   135   134    1
   123   115   116    1
   124    31    30    2
   125    22    21   ar
   126   128   127   ar
   127    21    20    1
   128   129   127   ar
   129   116   117    1
   130   118   117    2
   131     7     8    2
   132     7    16   am
   133   134   131    1
   134    16    17    1
   135   127   126    1
   136     9    10    1
   137    20    17    1
   138    12    10   ar
   139    12    14   ar
   140    17    18    1
   141    10    11   ar
   142   131   130    1
   143   131   132    1
   144   130   124   am
   145   126   123    1
   146   122   123    1
   147    14    15   ar
   148   124   123    1
   149   124   125    2
   150   133   132    2
   151    11    13   ar
   152    18    19    2
   153    15    13   ar
