@<TRIPOS>MOLECULE
tmp/2xj9B01.pdb
 158 152 0 0 0
SMALL
GASTEIGER

@<TRIPOS>ATOM
      1  N         21.2600   -3.9340   25.8140 N.3    12  GLY12      -0.1210
      2  CA        22.6960   -3.7540   25.7400 C.3    12  GLY12       0.1956
      3  C         23.0980   -2.7290   26.7760 C.2    12  GLY12       0.2612
      4  O         22.3140   -1.8530   27.1510 O.2    12  GLY12      -0.2717
      5  N         24.3220   -2.8530   27.2640 N.am   13  GLY13      -0.1942
      6  CA        24.8680   -1.8850   28.2020 C.3    13  GLY13       0.2014
      7  C         24.1810   -1.7600   29.5550 C.2    13  GLY13       0.2639
      8  O         24.3750   -0.7740   30.2660 O.2    13  GLY13      -0.2714
      9  N         23.3800   -2.7510   29.9210 N.am   14  ALA14      -0.1963
     10  CA        22.7550   -2.7480   31.2290 C.3    14  ALA14       0.1728
     11  C         23.8040   -2.8380   32.3560 C.2    14  ALA14       0.2617
     12  O         23.5270   -2.4730   33.4950 O.2    14  ALA14      -0.2715
     13  CB        21.7510   -3.8760   31.3360 C.3    14  ALA14       0.0334
     14  N         25.0030   -3.3150   32.0280 N.am   15  GLY15      -0.1940
     15  CA        26.0690   -3.4830   32.9970 C.3    15  GLY15       0.2014
     16  C         26.3810   -4.9290   33.3420 C.2    15  GLY15       0.2639
     17  O         27.1510   -5.1930   34.2770 O.2    15  GLY15      -0.2714
     18  N         25.7910   -5.8630   32.5930 N.am   16  LYS16      -0.1963
     19  CA        25.9580   -7.2950   32.8520 C.3    16  LYS16       0.1728
     20  C         27.4070   -7.7150   33.0420 C.2    16  LYS16       0.2617
     21  O         27.7350   -8.3770   34.0140 O.2    16  LYS16      -0.2715
     22  CB        25.3490   -8.1470   31.7530 C.3    16  LYS16       0.0311
     23  CG        23.8600   -8.1160   31.7010 C.3    16  LYS16       0.0038
     24  CD        23.3700   -8.9130   30.4970 C.3    16  LYS16       0.0206
     25  CE        24.0760   -8.5030   29.2010 C.3    16  LYS16       0.1093
     26  NZ        23.5710   -7.1970   28.6540 N.3    16  LYS16      -0.1314
     27  N         28.2890   -7.3550   32.1310 N.am   17  SER17      -0.1936
     28  CA        29.6570   -7.8520   32.2600 C.3    17  SER17       0.2055
     29  C         30.3960   -7.2250   33.4250 C.2    17  SER17       0.2643
     30  O         31.2830   -7.8320   33.9950 O.2    17  SER17      -0.2714
     31  CB        30.4500   -7.6600   30.9750 C.3    17  SER17       0.2130
     32  OG        29.8500   -8.3730   29.8960 O.3    17  SER17      -0.2179
     33  N         30.0270   -6.0010   33.7710 N.am   18  THR18      -0.1950
     34  CA        30.6590   -5.3010   34.8790 C.3    18  THR18       0.1897
     35  C         30.2590   -5.9210   36.2210 C.2    18  THR18       0.2313
     36  O         31.1080   -6.1810   37.0650 O.2    18  THR18      -0.2863
     37  CB        30.3400   -3.8030   34.8520 C.3    18  THR18       0.1794
     38  OG1       31.0340   -3.1940   33.7560 O.3    18  THR18      -0.2208
     39  CG2       30.7970   -3.1470   36.1120 C.3    18  THR18       0.0378
     40  N         28.9530  -14.1740   25.4690 N.3    40  ALA40      -0.1245
     41  CA        29.0350  -13.1380   24.4400 C.3    40  ALA40       0.1562
     42  C         30.1950  -13.5520   23.5360 C.2    40  ALA40       0.2260
     43  O         31.3530  -13.1960   23.7740 O.2    40  ALA40      -0.2867
     44  CB        29.2740  -11.7620   25.0610 C.3    40  ALA40       0.0290
     45  N         32.0750  -10.3960   21.5670 N.3    43  GLN43      -0.1245
     46  CA        32.6240   -9.3880   22.4880 C.3    43  GLN43       0.1566
     47  C         33.5260  -10.0090   23.5130 C.2    43  GLN43       0.2260
     48  O         34.6750   -9.6100   23.6410 O.2    43  GLN43      -0.2867
     49  CB        31.5390   -8.6270   23.2300 C.3    43  GLN43       0.0367
     50  CG        30.6100   -7.8650   22.3490 C.3    43  GLN43       0.0905
     51  CD        29.8880   -6.8000   23.1160 C.2    43  GLN43       0.2608
     52  OE1       28.8130   -6.3460   22.7100 O.2    43  GLN43      -0.2717
     53  NE2       30.4750   -6.3870   24.2390 N.am   43  GLN43      -0.0878
     54  N         33.5980   -9.9260   26.8420 N.3    45  THR45      -0.1218
     55  CA        34.1020   -8.9540   27.8050 C.3    45  THR45       0.1862
     56  C         34.6510   -9.6150   29.0770 C.2    45  THR45       0.2287
     57  O         35.7870   -9.3300   29.4840 O.2    45  THR45      -0.2866
     58  CB        33.0360   -7.9230   28.1830 C.3    45  THR45       0.1770
     59  OG1       32.4020   -7.4150   26.9980 O.3    45  THR45      -0.2211
     60  CG2       33.6710   -6.7860   28.9830 C.3    45  THR45       0.0375
     61  N         25.9840  -13.2240   30.0850 N.3   109  THR109     -0.1204
     62  CA        25.3000  -13.3500   28.8100 C.3   109  THR109      0.1979
     63  C         25.3460  -12.0610   27.9740 C.2   109  THR109      0.2460
     64  O         25.7010  -10.9880   28.4850 O.2   109  THR109     -0.2732
     65  CB        23.8630  -13.8580   28.9910 C.3   109  THR109      0.1783
     66  OG1       23.0350  -12.8090   29.4980 O.3   109  THR109     -0.2211
     67  CG2       23.8560  -15.0220   29.9580 C.3   109  THR109      0.0376
     68  N         25.0160  -12.1800   26.6740 N.am  110  PRO110     -0.2717
     69  CA        25.0930  -11.0930   25.7020 C.3   110  PRO110      0.1535
     70  C         23.7750  -10.3500   25.6500 C.2   110  PRO110      0.2599
     71  O         22.7950  -10.8020   26.2520 O.2   110  PRO110     -0.2715
     72  CB        25.3190  -11.8280   24.3740 C.3   110  PRO110      0.0310
     73  CG        25.1020  -13.2770   24.6490 C.3   110  PRO110      0.0237
     74  CD        24.5470  -13.4140   26.0310 C.3   110  PRO110      0.0939
     75  N         23.7540   -9.2370   24.9230 N.am  111  GLY111     -0.1955
     76  CA        22.6040   -8.3580   24.9120 C.3   111  GLY111      0.1869
     77  C         21.6570   -8.5810   23.7530 C.2   111  GLY111      0.2309
     78  O         21.1730   -7.6340   23.1150 O.2   111  GLY111     -0.2863
     79  N         21.7700    0.2340   37.9540 N.3   182  ASN182     -0.1225
     80  CA        23.1990    0.3790   37.8240 C.3   182  ASN182      0.1785
     81  C         23.5200    1.7120   37.1320 C.2   182  ASN182      0.2597
     82  O         22.6350    2.3520   36.5700 O.2   182  ASN182     -0.2718
     83  CB        23.7220   -0.8270   37.0430 C.3   182  ASN182      0.1169
     84  CG        25.1950   -0.7620   36.7740 C.2   182  ASN182      0.2627
     85  OD1       25.6230   -0.8010   35.6260 O.2   182  ASN182     -0.2716
     86  ND2       25.9870   -0.6600   37.8320 N.am  182  ASN182     -0.0877
     87  N         24.7750    2.1510   37.2160 N.am  183  ARG183     -0.1979
     88  CA        25.1930    3.4850   36.7540 C.3   183  ARG183      0.1597
     89  C         24.3270    4.6520   37.2320 C.2   183  ARG183      0.2287
     90  O         24.0490    5.5730   36.4790 O.2   183  ARG183     -0.2864
     91  CB        25.3090    3.5060   35.2420 C.3   183  ARG183      0.0334
     92  CG        26.5650    2.8530   34.7240 C.3   183  ARG183      0.0492
     93  CD        27.3360    3.8420   33.8780 C.3   183  ARG183      0.2205
     94  NE        27.1680    3.6130   32.4450 N.pl3 183  ARG183     -0.0865
     95  CZ        27.8590    4.2560   31.5030 C.cat 183  ARG183      0.5346
     96  NH1       27.6490    3.9700   30.2220 N.pl3 183  ARG183      0.1354
     97  NH2       28.7640    5.1840   31.8350 N.pl3 183  ARG183      0.1354
     98  N         24.3270    0.1450   41.9140 N.3   214  LEU214     -0.1231
     99  CA        25.6800    0.6720   41.8720 C.3   214  LEU214      0.1693
    100  C         25.5910    2.0620   41.2640 C.2   214  LEU214      0.2592
    101  O         24.6220    2.3930   40.5790 O.2   214  LEU214     -0.2718
    102  CB        26.5870   -0.2030   41.0090 C.3   214  LEU214      0.0284
    103  CG        26.7210   -1.6660   41.3920 C.3   214  LEU214      0.0019
    104  CD1       27.9080   -2.2740   40.6620 C.3   214  LEU214      0.0001
    105  CD2       26.9210   -1.7480   42.8820 C.3   214  LEU214      0.0001
    106  N         26.5980    2.8840   41.4990 N.am  215  ARG215     -0.1966
    107  CA        26.5500    4.2140   40.9490 C.3   215  ARG215      0.1729
    108  C         27.6060    4.2800   39.9080 C.2   215  ARG215      0.2616
    109  O         28.5260    3.4600   39.9140 O.2   215  ARG215     -0.2715
    110  CB        26.7910    5.2540   42.0360 C.3   215  ARG215      0.0348
    111  CG        25.7260    5.2390   43.1260 C.3   215  ARG215      0.0492
    112  CD        25.6980    6.5490   43.8810 C.3   215  ARG215      0.2205
    113  NE        26.0910    7.6690   43.0280 N.pl3 215  ARG215     -0.0865
    114  CZ        25.8620    8.9430   43.3210 C.cat 215  ARG215      0.5346
    115  NH1       26.2560    9.8990   42.4870 N.pl3 215  ARG215      0.1354
    116  NH2       25.2300    9.2550   44.4480 N.pl3 215  ARG215      0.1354
    117  N         27.4500    5.2380   38.9980 N.am  216  ASP216     -0.1957
    118  CA        28.4200    5.4840   37.9280 C.3   216  ASP216      0.1840
    119  C         29.7630    5.8260   38.5950 C.2   216  ASP216      0.2621
    120  O         29.8500    6.7530   39.4030 O.2   216  ASP216     -0.2715
    121  CB        27.8980    6.6150   37.0090 C.3   216  ASP216      0.1450
    122  CG        28.6090    6.6790   35.6380 C.2   216  ASP216      0.3671
    123  OD1       29.4050    5.7690   35.3340 O.co2 216  ASP216     -0.2456
    124  OD2       28.3630    7.6410   34.8530 O.co2 216  ASP216     -0.2456
    125  N         30.7990    5.0540   38.3000 N.am  217  ARG217     -0.1977
    126  CA        32.0620    5.2190   38.9970 C.3   217  ARG217      0.1597
    127  C         33.2670    4.7790   38.1880 C.2   217  ARG217      0.2287
    128  O         33.3730    3.6160   37.8210 O.2   217  ARG217     -0.2864
    129  CB        32.0430    4.3940   40.2700 C.3   217  ARG217      0.0334
    130  CG        31.2250    4.9720   41.3870 C.3   217  ARG217      0.0492
    131  CD        31.9110    4.7220   42.7380 C.3   217  ARG217      0.2205
    132  NE        31.2690    5.5300   43.7670 N.pl3 217  ARG217     -0.0865
    133  CZ        30.2130    5.1250   44.4660 C.cat 217  ARG217      0.5346
    134  NH1       29.7230    3.9080   44.2680 N.pl3 217  ARG217      0.1354
    135  NH2       29.6550    5.9230   45.3590 N.pl3 217  ARG217      0.1354
    136  N         34.9160    1.4030   38.5440 N.3   220  TYR220     -0.1227
    137  CA        34.2310    0.2210   38.0320 C.3   220  TYR220      0.1736
    138  C         34.6050   -0.0930   36.5700 C.2   220  TYR220      0.2595
    139  O         34.1790   -1.0940   36.0040 O.2   220  TYR220     -0.2718
    140  CB        32.7190    0.4220   38.1270 C.3   220  TYR220      0.0548
    141  CG        32.1390    0.3230   39.5190 C.ar  220  TYR220     -0.0200
    142  CD1       32.7460   -0.4450   40.4930 C.ar  220  TYR220     -0.0009
    143  CD2       30.9700    0.9980   39.8500 C.ar  220  TYR220     -0.0009
    144  CE1       32.2160   -0.5290   41.7520 C.ar  220  TYR220      0.0417
    145  CE2       30.4250    0.9070   41.0920 C.ar  220  TYR220      0.0417
    146  CZ        31.0510    0.1430   42.0440 C.ar  220  TYR220      0.1957
    147  OH        30.4980    0.0480   43.2940 O.3   220  TYR220     -0.2866
    148  N         35.3930    0.7650   35.9490 N.am  221  ARG221     -0.1980
    149  CA        35.5370    0.7020   34.5170 C.3   221  ARG221      0.1597
    150  C         36.9790    0.9600   34.1290 C.2   221  ARG221      0.2287
    151  O         37.4240    0.6510   33.0190 O.2   221  ARG221     -0.2864
    152  CB        34.6760    1.7920   33.9060 C.3   221  ARG221      0.0334
    153  CG        35.4430    2.6640   32.9550 C.3   221  ARG221      0.0492
    154  CD        34.9350    4.0840   32.9410 C.3   221  ARG221      0.2205
    155  NE        33.5850    4.2080   32.5180 N.pl3 221  ARG221     -0.0865
    156  CZ        32.6470    5.0700   32.8860 C.cat 221  ARG221      0.5346
    157  NH1       32.7950    6.0080   33.8190 N.pl3 221  ARG221      0.1354
    158  NH2       31.4880    4.9300   32.2690 N.pl3 221  ARG221      0.1354
@<TRIPOS>BOND
     1    45    46    1
     2    50    51    1
     3    50    49    1
     4    46    49    1
     5    46    47    1
     6    52    51    2
     7    78    77    2
     8    51    53   am
     9    47    48    2
    10    42    43    2
    11    42    41    1
    12    77    76    1
    13    72    73    1
    14    72    69    1
    15    41    44    1
    16    41    40    1
    17    73    74    1
    18    76    75    1
    19    75    70   am
    20    70    69    1
    21    70    71    2
    22    69    68    1
    23     2     1    1
    24     2     3    1
    25    74    68    1
    26    68    63   am
    27     3     4    2
    28     3     5   am
    29    54    55    1
    30    59    58    1
    31     5     6    1
    32    55    58    1
    33    55    56    1
    34    63    64    2
    35    63    62    1
    36    58    60    1
    37     6     7    1
    38    26    25    1
    39    62    65    1
    40    62    61    1
    41    65    66    1
    42    65    67    1
    43    56    57    2
    44    25    24    1
    45     7     9   am
    46     7     8    2
    47    32    31    1
    48     9    10    1
    49    96    95    1
    50    24    23    1
    51    31    28    1
    52    10    13    1
    53    10    11    1
    54    95    97    1
    55    95    94    2
    56    23    22    1
    57    22    19    1
    58    14    11   am
    59    14    15    1
    60    27    28    1
    61    27    20   am
    62    28    29    1
    63   158   156    1
    64    11    12    2
    65    94    93    1
    66   155   156    2
    67   155   154    1
    68    18    19    1
    69    18    16   am
    70    19    20    1
    71   156   157    1
    72   154   153    1
    73   153   152    1
    74    15    16    1
    75   151   150    2
    76    20    21    2
    77    16    17    2
    78    29    33   am
    79    29    30    2
    80    38    37    1
    81    33    34    1
    82    93    92    1
    83   152   149    1
    84   150   149    1
    85   149   148    1
    86    92    91    1
    87    37    34    1
    88    37    39    1
    89   124   122   ar
    90    34    35    1
    91    91    88    1
    92   123   122   ar
    93    85    84    2
    94   122   121    1
    95   148   138   am
    96   139   138    2
    97    35    36    2
    98    90    89    2
    99   138   137    1
   100    82    81    2
   101    88    87    1
   102    88    89    1
   103    84    83    1
   104    84    86   am
   105   121   118    1
   106    83    80    1
   107    81    87   am
   108    81    80    1
   109   128   127    2
   110    80    79    1
   111   118   119    1
   112   118   117    1
   113   137   140    1
   114   137   136    1
   115   140   141    1
   116   127   126    1
   117   125   119   am
   118   125   126    1
   119   119   120    2
   120   126   129    1
   121   117   108   am
   122   141   143   ar
   123   141   142   ar
   124   143   145   ar
   125   108   109    2
   126   108   107    1
   127   129   130    1
   128   142   144   ar
   129   101   100    2
   130   104   103    1
   131   107   106    1
   132   107   110    1
   133   102   103    1
   134   102    99    1
   135   145   146   ar
   136   100   106   am
   137   100    99    1
   138   130   131    1
   139   103   105    1
   140   144   146   ar
   141    99    98    1
   142   110   111    1
   143   146   147    1
   144   115   114    1
   145   131   132    1
   146   113   114    2
   147   113   112    1
   148   111   112    1
   149   114   116    1
   150   132   133    2
   151   134   133    1
   152   133   135    1
