@<TRIPOS>MOLECULE
tmp/2xjaD00.pdb
 176 169 0 0 0
SMALL
GASTEIGER

@<TRIPOS>ATOM
      1  N         26.3700  -12.4570   62.2400 N.3   122  THR122     -0.1203
      2  CA        26.6280  -11.4750   63.2950 C.3   122  THR122      0.1994
      3  C         27.3780  -10.2530   62.7510 C.2   122  THR122      0.2619
      4  O         26.9260   -9.1450   62.9440 O.2   122  THR122     -0.2717
      5  CB        27.2850  -12.0750   64.5810 C.3   122  THR122      0.1784
      6  OG1       26.3980  -13.0340   65.2000 O.3   122  THR122     -0.2211
      7  CG2       27.5520  -10.9570   65.5790 C.3   122  THR122      0.0376
      8  N         28.4770  -10.4840   62.0360 N.am  123  SER123     -0.1937
      9  CA        29.2630   -9.4340   61.4190 C.3   123  SER123      0.2055
     10  C         29.5670   -9.7180   59.9850 C.2   123  SER123      0.2644
     11  O         29.7020  -10.8790   59.5880 O.2   123  SER123     -0.2714
     12  CB        30.6220   -9.3590   62.0710 C.3   123  SER123      0.2130
     13  OG        30.5580   -8.8130   63.3640 O.3   123  SER123     -0.2179
     14  N         29.7730   -8.6370   59.2390 N.am  124  GLY124     -0.1939
     15  CA        30.1550   -8.7130   57.8560 C.3   124  GLY124      0.2014
     16  C         29.0170   -8.7480   56.8370 C.2   124  GLY124      0.2639
     17  O         29.2670   -8.9690   55.6330 O.2   124  GLY124     -0.2714
     18  N         27.7820   -8.5270   57.2850 N.am  125  LYS125     -0.1963
     19  CA        26.6730   -8.3690   56.3550 C.3   125  LYS125      0.1728
     20  C         26.8820   -7.1240   55.4870 C.2   125  LYS125      0.2617
     21  O         26.7980   -7.1980   54.2460 O.2   125  LYS125     -0.2715
     22  CB        25.3370   -8.2680   57.0680 C.3   125  LYS125      0.0311
     23  CG        24.9710   -9.4880   57.9190 C.3   125  LYS125      0.0038
     24  CD        23.5510   -9.4200   58.5240 C.3   125  LYS125      0.0206
     25  CE        23.3470   -8.1960   59.4200 C.3   125  LYS125      0.1093
     26  NZ        24.0480   -8.3350   60.7320 N.3   125  LYS125     -0.1314
     27  N         27.1760   -5.9860   56.1030 N.am  126  THR126     -0.1937
     28  CA        27.2330   -4.7790   55.3230 C.3   126  THR126      0.2028
     29  C         28.3700   -4.9350   54.3300 C.2   126  THR126      0.2642
     30  O         28.1620   -4.7090   53.1530 O.2   126  THR126     -0.2714
     31  CB        27.3530   -3.5040   56.2310 C.3   126  THR126      0.1808
     32  OG1       26.1940   -3.3860   57.0620 O.3   126  THR126     -0.2208
     33  CG2       27.5540   -2.1960   55.4490 C.3   126  THR126      0.0379
     34  N         29.5520   -5.3610   54.7910 N.am  127  THR127     -0.1950
     35  CA        30.7200   -5.5000   53.8990 C.3   127  THR127      0.1897
     36  C         30.4110   -6.4940   52.7530 C.2   127  THR127      0.2313
     37  O         30.5390   -6.1390   51.5810 O.2   127  THR127     -0.2863
     38  CB        31.9840   -5.9270   54.6810 C.3   127  THR127      0.1794
     39  OG1       32.2340   -5.0120   55.7430 O.3   127  THR127     -0.2208
     40  CG2       33.1730   -5.9630   53.7960 C.3   127  THR127      0.0378
     41  N         22.5520   -1.5130   56.3110 N.3   148  THR148     -0.1218
     42  CA        22.8380   -0.6080   57.4120 C.3   148  THR148      0.1862
     43  C         23.0440    0.8150   56.8100 C.2   148  THR148      0.2287
     44  O         22.2460    1.7350   57.0260 O.2   148  THR148     -0.2866
     45  CB        24.0400   -1.0880   58.2840 C.3   148  THR148      0.1770
     46  OG1       24.0830   -2.5400   58.4480 O.3   148  THR148     -0.2211
     47  CG2       23.9510   -0.4500   59.5980 C.3   148  THR148      0.0375
     48  N         20.9690   -6.8840   53.3190 N.3   188  GLU188     -0.1245
     49  CA        21.3470   -7.3000   54.6520 C.3   188  GLU188      0.1567
     50  C         20.0790   -7.9190   55.2520 C.2   188  GLU188      0.2260
     51  O         18.9940   -7.3150   55.0850 O.2   188  GLU188     -0.2867
     52  CB        21.8530   -6.1250   55.4720 C.3   188  GLU188      0.0388
     53  CG        23.3590   -6.0350   55.5030 C.3   188  GLU188      0.1160
     54  CD        23.8720   -4.8260   56.3140 C.2   188  GLU188      0.3649
     55  OE1       23.9710   -4.9040   57.5810 O.co2 188  GLU188     -0.2457
     56  OE2       24.2020   -3.7900   55.6750 O.co2 188  GLU188     -0.2457
     57  N         27.4840  -15.2970   57.0890 N.3   210  THR210     -0.1203
     58  CA        28.8510  -14.9420   57.4150 C.3   210  THR210      0.1994
     59  C         29.3500  -15.6560   58.7230 C.2   210  THR210      0.2617
     60  O         30.2160  -16.5530   58.6810 O.2   210  THR210     -0.2717
     61  CB        29.0210  -13.3940   57.4510 C.3   210  THR210      0.1784
     62  OG1       28.2510  -12.8260   58.5300 O.3   210  THR210     -0.2211
     63  CG2       28.5670  -12.7870   56.1310 C.3   210  THR210      0.0376
     64  N         28.7860  -15.3030   59.8770 N.am  211  ASN211     -0.1974
     65  CA        29.2930  -15.8200   61.1500 C.3   211  ASN211      0.1688
     66  C         28.2900  -15.6400   62.2930 C.2   211  ASN211      0.2292
     67  O         27.2140  -15.0760   62.0820 O.2   211  ASN211     -0.2864
     68  CB        30.6270  -15.1370   61.4700 C.3   211  ASN211      0.1181
     69  CG        30.4980  -13.6620   61.5130 C.2   211  ASN211      0.2629
     70  OD1       29.9320  -13.1440   62.4590 O.2   211  ASN211     -0.2716
     71  ND2       30.9770  -12.9640   60.4820 N.am  211  ASN211     -0.0877
     72  N         39.3730  -11.6930   58.2350 N.3   310  TYR310     -0.1227
     73  CA        37.9950  -12.0720   58.0100 C.3   310  TYR310      0.1736
     74  C         37.3960  -11.4280   56.7770 C.2   310  TYR310      0.2595
     75  O         36.3470  -11.8630   56.2870 O.2   310  TYR310     -0.2718
     76  CB        37.1410  -11.7560   59.2270 C.3   310  TYR310      0.0548
     77  CG        37.3050  -10.3570   59.7370 C.ar  310  TYR310     -0.0200
     78  CD1       37.0230   -9.2520   58.9320 C.ar  310  TYR310     -0.0009
     79  CD2       37.7150  -10.1360   61.0330 C.ar  310  TYR310     -0.0009
     80  CE1       37.1580   -7.9650   59.4060 C.ar  310  TYR310      0.0417
     81  CE2       37.8510   -8.8510   61.5260 C.ar  310  TYR310      0.0417
     82  CZ        37.5810   -7.7670   60.7070 C.ar  310  TYR310      0.1957
     83  OH        37.7270   -6.4890   61.2110 O.3   310  TYR310     -0.2866
     84  N         38.0470  -10.3790   56.2760 N.am  311  ASN311     -0.1974
     85  CA        37.5500   -9.7270   55.0710 C.3   311  ASN311      0.1688
     86  C         37.8520  -10.5520   53.8530 C.2   311  ASN311      0.2292
     87  O         37.1900  -10.4430   52.8570 O.2   311  ASN311     -0.2864
     88  CB        38.0630   -8.3020   54.9490 C.3   311  ASN311      0.1181
     89  CG        37.1890   -7.3070   55.7240 C.2   311  ASN311      0.2629
     90  OD1       35.9610   -7.4490   55.7590 O.2   311  ASN311     -0.2716
     91  ND2       37.8170   -6.3040   56.3520 N.am  311  ASN311     -0.0877
     92  N         37.4140  -13.6270   54.1830 N.3   313  ALA313     -0.1231
     93  CA        36.2580  -14.5030   54.3310 C.3   313  ALA313      0.1694
     94  C         35.0580  -13.8170   53.7160 C.2   313  ALA313      0.2592
     95  O         34.4380  -14.3860   52.8340 O.2   313  ALA313     -0.2718
     96  CB        36.0360  -14.8930   55.7820 C.3   313  ALA313      0.0304
     97  N         34.8030  -12.5640   54.0970 N.am  314  ASN314     -0.1974
     98  CA        33.7090  -11.7800   53.4890 C.3   314  ASN314      0.1688
     99  C         33.7560  -11.8730   51.9780 C.2   314  ASN314      0.2292
    100  O         32.7510  -12.2110   51.3150 O.2   314  ASN314     -0.2864
    101  CB        33.7280  -10.3070   53.9190 C.3   314  ASN314      0.1181
    102  CG        33.2910  -10.1050   55.3570 C.2   314  ASN314      0.2629
    103  OD1       32.7610  -11.0010   55.9940 O.2   314  ASN314     -0.2716
    104  ND2       33.5310   -8.9310   55.8740 N.am  314  ASN314     -0.0877
    105  N         33.7980    0.7010   57.2760 N.3   344  ARG344     -0.1231
    106  CA        34.2970   -0.6350   57.5450 C.3   344  ARG344      0.1694
    107  C         35.7430   -0.6670   57.0790 C.2   344  ARG344      0.2591
    108  O         36.0270   -0.5950   55.8830 O.2   344  ARG344     -0.2718
    109  CB        33.4560   -1.7070   56.8390 C.3   344  ARG344      0.0321
    110  CG        31.9630   -1.5210   56.9330 C.3   344  ARG344      0.0489
    111  CD        31.5560   -1.3570   58.3270 C.3   344  ARG344      0.2205
    112  NE        30.1470   -1.6260   58.5200 N.pl3 344  ARG344     -0.0865
    113  CZ        29.2080   -0.6960   58.4870 C.cat 344  ARG344      0.5346
    114  NH1       29.5530    0.5610   58.2430 N.pl3 344  ARG344      0.1354
    115  NH2       27.9300   -1.0330   58.7080 N.pl3 344  ARG344      0.1354
    116  N         36.6410   -0.7640   58.0570 N.am  345  LEU345     -0.1980
    117  CA        38.0990   -0.6410   57.8760 C.3   345  LEU345      0.1596
    118  C         38.5040    0.2670   56.7160 C.2   345  LEU345      0.2287
    119  O         39.2180   -0.1430   55.8110 O.2   345  LEU345     -0.2864
    120  CB        38.7870   -2.0140   57.7810 C.3   345  LEU345      0.0297
    121  CG        39.0960   -2.8310   59.0490 C.3   345  LEU345      0.0022
    122  CD1       38.8850   -2.0360   60.3360 C.3   345  LEU345      0.0001
    123  CD2       38.2670   -4.1280   59.1090 C.3   345  LEU345      0.0001
    124  N         36.3030    2.6600   61.5710 N.3   359  ASP359     -0.1225
    125  CA        35.4890    1.4530   61.6110 C.3   359  ASP359      0.1805
    126  C         34.2340    1.5880   62.4570 C.2   359  ASP359      0.2598
    127  O         34.2420    2.2400   63.5040 O.2   359  ASP359     -0.2718
    128  CB        36.3080    0.2570   62.0870 C.3   359  ASP359      0.1424
    129  CG        35.5290   -1.0490   62.0080 C.2   359  ASP359      0.3668
    130  OD1       34.7280   -1.2100   61.0450 O.co2 359  ASP359     -0.2456
    131  OD2       35.7150   -1.9010   62.9160 O.co2 359  ASP359     -0.2456
    132  N         33.1830    0.9140   61.9830 N.am  360  TYR360     -0.1962
    133  CA        31.8350    0.9940   62.5130 C.3   360  TYR360      0.1771
    134  C         31.6440    0.2080   63.7780 C.2   360  TYR360      0.2619
    135  O         30.6840    0.4620   64.4970 O.2   360  TYR360     -0.2715
    136  CB        30.8780    0.4510   61.4800 C.3   360  TYR360      0.0574
    137  CG        29.4340    0.7050   61.7480 C.ar  360  TYR360     -0.0198
    138  CD1       28.9820    1.9370   62.2000 C.ar  360  TYR360     -0.0009
    139  CD2       28.5160   -0.2790   61.5010 C.ar  360  TYR360     -0.0009
    140  CE1       27.6510    2.1620   62.4100 C.ar  360  TYR360      0.0417
    141  CE2       27.1880   -0.0640   61.6890 C.ar  360  TYR360      0.0417
    142  CZ        26.7600    1.1560   62.1460 C.ar  360  TYR360      0.1957
    143  OH        25.4180    1.3420   62.3400 O.3   360  TYR360     -0.2866
    144  N         32.5460   -0.7400   64.0410 N.am  361  ALA361     -0.1963
    145  CA        32.4370   -1.6770   65.1630 C.3   361  ALA361      0.1728
    146  C         31.9310   -1.0450   66.4630 C.2   361  ALA361      0.2616
    147  O         32.7060   -0.4210   67.1860 O.2   361  ALA361     -0.2715
    148  CB        33.7700   -2.3330   65.3990 C.3   361  ALA361      0.0334
    149  N         30.6440   -1.2460   66.7670 N.am  362  HIS362     -0.1973
    150  CA        29.9590   -0.5400   67.8720 C.3   362  HIS362      0.1656
    151  C         29.3750   -1.4530   68.9460 C.2   362  HIS362      0.2291
    152  O         28.7390   -0.9910   69.8960 O.2   362  HIS362     -0.2864
    153  CB        28.8430    0.3300   67.3060 C.3   362  HIS362      0.0771
    154  CG        27.9330   -0.3990   66.3710 C.ar  362  HIS362      0.0820
    155  ND1       28.1270   -1.7170   66.0090 N.ar  362  HIS362     -0.2267
    156  CD2       26.8480    0.0220   65.6820 C.ar  362  HIS362      0.1154
    157  CE1       27.1850   -2.0830   65.1580 C.ar  362  HIS362      0.1986
    158  NE2       26.3960   -1.0470   64.9420 N.ar  362  HIS362     -0.2212
    159  N         31.5440   -7.0930   67.8240 N.3   366  ALA366     -0.1245
    160  CA        32.0890   -6.3930   66.6720 C.3   366  ALA366      0.1562
    161  C         33.5230   -5.9450   66.9390 C.2   366  ALA366      0.2260
    162  O         34.4220   -6.1730   66.1200 O.2   366  ALA366     -0.2867
    163  CB        31.2040   -5.1950   66.3090 C.3   366  ALA366      0.0290
    164  N         36.5120   -8.7500   67.3570 N.3   369  SER369     -0.1202
    165  CA        37.0180   -9.3340   66.1200 C.3   369  SER369      0.2020
    166  C         37.9390   -8.3570   65.3700 C.2   369  SER369      0.2618
    167  O         39.0460   -8.7190   64.9700 O.2   369  SER369     -0.2717
    168  CB        35.8860   -9.9040   65.2430 C.3   369  SER369      0.2103
    169  OG        35.0530   -8.8920   64.7140 O.3   369  SER369     -0.2182
    170  N         37.5100   -7.1110   65.2310 N.am  370  VAL370     -0.1979
    171  CA        38.3360   -6.0970   64.5720 C.3   370  VAL370      0.1595
    172  C         39.7140   -5.9310   65.2050 C.2   370  VAL370      0.2287
    173  O         40.7360   -6.0120   64.5030 O.2   370  VAL370     -0.2864
    174  CB        37.6410   -4.7390   64.5660 C.3   370  VAL370      0.0276
    175  CG1       38.4380   -3.7300   63.7560 C.3   370  VAL370      0.0022
    176  CG2       36.2510   -4.9070   63.9960 C.3   370  VAL370      0.0022
@<TRIPOS>BOND
     1   100    99    2
     2    37    36    2
     3    99    98    1
     4    36    35    1
     5    95    94    2
     6    87    86    2
     7    30    29    2
     8    48    49    1
     9    98   101    1
    10    98    97    1
    11    94    97   am
    12    94    93    1
    13    40    38    1
    14    86    85    1
    15    35    38    1
    16    35    34    1
    17   101   102    1
    18    92    93    1
    19    21    20    2
    20    29    34   am
    21    29    28    1
    22    93    96    1
    23    49    50    1
    24    49    52    1
    25    38    39    1
    26    88    85    1
    27    88    89    1
    28    85    84    1
    29    51    50    2
    30    28    27    1
    31    28    31    1
    32   102   104   am
    33   102   103    2
    34    33    31    1
    35    52    53    1
    36    20    27   am
    37    20    19    1
    38    53    54    1
    39    17    16    2
    40    56    54   ar
    41    89    90    2
    42    89    91   am
    43   119   118    2
    44   108   107    2
    45    63    61    1
    46    31    32    1
    47    84    74   am
    48    75    74    2
    49    41    42    1
    50    54    55   ar
    51    19    22    1
    52    19    18    1
    53   118   117    1
    54    74    73    1
    55    43    44    2
    56    43    42    1
    57    16    18   am
    58    16    15    1
    59   109   110    1
    60   109   106    1
    61   110   111    1
    62    22    23    1
    63   107   106    1
    64   107   116   am
    65    57    58    1
    66   105   106    1
    67    42    45    1
    68    58    61    1
    69    58    59    1
    70    61    62    1
    71   120   117    1
    72   120   121    1
    73    15    14    1
    74   117   116    1
    75    23    24    1
    76    73    72    1
    77    73    76    1
    78   114   113    1
    79    45    46    1
    80    45    47    1
    81   111   112    1
    82   113   112    2
    83   113   115    1
    84    24    25    1
    85    60    59    2
    86    59    64   am
    87    78    80   ar
    88    78    77   ar
    89   121   123    1
    90   121   122    1
    91    76    77    1
    92    14    10   am
    93    80    82   ar
    94    25    26    1
    95    11    10    2
    96    77    79   ar
    97    64    65    1
    98    10     9    1
    99    71    69   am
   100    82    83    1
   101    82    81   ar
   102    79    81   ar
   103   130   129   ar
   104    65    68    1
   105    65    66    1
   106     9     8    1
   107     9    12    1
   108    68    69    1
   109   136   137    1
   110   136   133    1
   111   139   141   ar
   112   139   137   ar
   113    69    70    2
   114   124   125    1
   115   125   128    1
   116   125   126    1
   117   141   142   ar
   118   137   138   ar
   119   132   126   am
   120   132   133    1
   121   129   128    1
   122   129   131   ar
   123     8     3   am
   124    12    13    1
   125    67    66    2
   126   142   143    1
   127   142   140   ar
   128   138   140   ar
   129     1     2    1
   130   126   127    2
   131   133   134    1
   132     3     4    2
   133     3     2    1
   134     2     5    1
   135   175   174    1
   136   134   144   am
   137   134   135    2
   138   176   174    1
   139   144   145    1
   140   173   172    2
   141   174   171    1
   142   171   172    1
   143   171   170    1
   144     5     6    1
   145     5     7    1
   146   169   168    1
   147   158   157   ar
   148   158   156   ar
   149   167   166    2
   150   157   155   ar
   151   145   148    1
   152   145   146    1
   153   170   166   am
   154   168   165    1
   155   166   165    1
   156   156   154   ar
   157   155   154   ar
   158   162   161    2
   159   165   164    1
   160   163   160    1
   161   154   153    1
   162   146   149   am
   163   146   147    2
   164   160   161    1
   165   160   159    1
   166   149   150    1
   167   153   150    1
   168   150   151    1
   169   151   152    2
