@<TRIPOS>MOLECULE
tmp/2xjcA01.pdb
 127 119 0 0 0
SMALL
GASTEIGER

@<TRIPOS>ATOM
      1  N        -10.1830   18.5470   62.5950 N.3   142  ARG142     -0.1231
      2  CA        -9.0380   18.4720   61.6910 C.3   142  ARG142      0.1694
      3  C         -8.1190   17.2330   61.8820 C.2   142  ARG142      0.2592
      4  O         -7.5740   16.7410   60.9240 O.2   142  ARG142     -0.2718
      5  CB        -8.2120   19.7390   61.8450 C.3   142  ARG142      0.0321
      6  CG        -8.8830   20.9710   61.2010 C.3   142  ARG142      0.0489
      7  CD        -7.8440   21.6630   60.3020 C.3   142  ARG142      0.2205
      8  NE        -6.9680   22.4180   61.1510 N.pl3 142  ARG142     -0.0865
      9  CZ        -5.6510   22.3470   61.1860 C.cat 142  ARG142      0.5346
     10  NH1       -4.9580   21.5400   60.3900 N.pl3 142  ARG142      0.1354
     11  NH2       -5.0320   23.1390   62.0480 N.pl3 142  ARG142      0.1354
     12  N         -7.9840   16.7490   63.1200 N.am  143  ASP143     -0.1974
     13  CA        -7.2310   15.5160   63.3930 C.3   143  ASP143      0.1709
     14  C         -7.9110   14.2430   62.8190 C.2   143  ASP143      0.2293
     15  O         -7.3660   13.1390   62.9290 O.2   143  ASP143     -0.2864
     16  CB        -6.9840   15.3610   64.8970 C.3   143  ASP143      0.1436
     17  CG        -6.3310   16.5950   65.5200 C.2   143  ASP143      0.3671
     18  OD1       -5.0770   16.6910   65.4760 O.co2 143  ASP143     -0.2456
     19  OD2       -7.0790   17.4540   66.0620 O.co2 143  ASP143     -0.2456
     20  N         -8.2340   12.8540   59.8380 N.3   145  THR145     -0.1218
     21  CA        -7.6750   12.9080   58.5170 C.3   145  THR145      0.1862
     22  C         -8.1870   11.7320   57.6720 C.2   145  THR145      0.2287
     23  O         -8.0920   11.7910   56.4570 O.2   145  THR145     -0.2866
     24  CB        -6.1450   12.9200   58.5670 C.3   145  THR145      0.1770
     25  OG1       -5.7210   11.7900   59.3240 O.3   145  THR145     -0.2211
     26  CG2       -5.5960   14.2110   59.2500 C.3   145  THR145      0.0375
     27  N         -7.8200   17.5100   52.7900 N.3   150  ILE150     -0.1245
     28  CA        -7.5000   18.8950   52.4700 C.3   150  ILE150      0.1561
     29  C         -6.8430   18.9650   51.0890 C.2   150  ILE150      0.2260
     30  O         -5.7660   18.3410   50.8290 O.2   150  ILE150     -0.2867
     31  CB        -6.5680   19.5450   53.5160 C.3   150  ILE150      0.0252
     32  CG1       -7.1620   19.4310   54.9440 C.3   150  ILE150      0.0019
     33  CG2       -6.2890   21.0300   53.1390 C.3   150  ILE150      0.0019
     34  CD1       -6.1390   19.6630   56.0270 C.3   150  ILE150      0.0001
     35  N         -4.7720   20.6750   49.1440 N.3   152  ASN152     -0.1240
     36  CA        -3.7180   21.6650   49.3010 C.3   152  ASN152      0.1653
     37  C         -3.1500   22.3220   48.0500 C.2   152  ASN152      0.2266
     38  O         -2.6180   23.4330   48.1380 O.2   152  ASN152     -0.2867
     39  CB        -2.5260   21.0470   50.0450 C.3   152  ASN152      0.1155
     40  CG        -2.8240   20.7850   51.5530 C.2   152  ASN152      0.2627
     41  OD1       -3.0830   21.7030   52.3280 O.2   152  ASN152     -0.2716
     42  ND2       -2.7120   19.5370   51.9560 N.am  152  ASN152     -0.0877
     43  N          2.0950   23.5680   50.7210 N.3   351  ILE351     -0.1231
     44  CA         2.0650   24.1180   52.0630 C.3   351  ILE351      0.1692
     45  C          2.3020   23.0220   53.1110 C.2   351  ILE351      0.2592
     46  O          2.9050   23.2850   54.1640 O.2   351  ILE351     -0.2718
     47  CB         0.7340   24.8890   52.3240 C.3   351  ILE351      0.0266
     48  CG1        0.7160   25.6330   53.6830 C.3   351  ILE351      0.0019
     49  CG2       -0.3890   23.9680   52.2700 C.3   351  ILE351      0.0020
     50  CD1        1.9240   26.5240   53.9360 C.3   351  ILE351      0.0001
     51  N          1.8810   21.7880   52.8060 N.am  352  PHE352     -0.1976
     52  CA         2.0200   20.6770   53.7400 C.3   352  PHE352      0.1639
     53  C          3.3450   19.9490   53.4680 C.2   352  PHE352      0.2290
     54  O          4.2650   19.9550   54.3170 O.2   352  PHE352     -0.2864
     55  CB         0.8160   19.7430   53.6360 C.3   352  PHE352      0.0560
     56  CG         0.8940   18.5880   54.5520 C.ar  352  PHE352     -0.0200
     57  CD1        0.9290   18.7820   55.9500 C.ar  352  PHE352     -0.0042
     58  CD2        0.9720   17.2980   54.0500 C.ar  352  PHE352     -0.0042
     59  CE1        1.0100   17.6950   56.8350 C.ar  352  PHE352     -0.0003
     60  CE2        1.0660   16.2050   54.9380 C.ar  352  PHE352     -0.0003
     61  CZ         1.1080   16.4240   56.3270 C.ar  352  PHE352     -0.0000
     62  N          5.3400   23.1510   55.6040 N.3   356  LEU356     -0.1231
     63  CA         5.0740   22.7170   56.9610 C.3   356  LEU356      0.1693
     64  C          6.0280   21.5720   57.4150 C.2   356  LEU356      0.2591
     65  O          6.5810   21.6200   58.5310 O.2   356  LEU356     -0.2718
     66  CB         3.5840   22.2870   57.0870 C.3   356  LEU356      0.0284
     67  CG         3.0980   21.8540   58.4680 C.3   356  LEU356      0.0019
     68  CD1        1.5680   22.0390   58.5790 C.3   356  LEU356      0.0001
     69  CD2        3.5600   20.4230   58.8180 C.3   356  LEU356      0.0001
     70  N          6.2160   20.5500   56.5660 N.am  357  LYS357     -0.1980
     71  CA         7.0380   19.3960   56.9490 C.3   357  LYS357      0.1596
     72  C          8.5340   19.6950   56.9990 C.2   357  LYS357      0.2287
     73  O          9.2200   19.2080   57.8820 O.2   357  LYS357     -0.2864
     74  CB         6.7930   18.1800   56.0340 C.3   357  LYS357      0.0298
     75  CG         5.4770   17.4800   56.3340 C.3   357  LYS357      0.0038
     76  CD         5.5020   16.8860   57.7160 C.3   357  LYS357      0.0206
     77  CE         4.2560   16.0860   57.9270 C.3   357  LYS357      0.1093
     78  NZ         4.1940   15.4330   59.2630 N.3   357  LYS357     -0.1314
     79  N          8.8200   21.8790   60.3640 N.3   360  LYS360     -0.1245
     80  CA         8.6860   21.1430   61.6160 C.3   360  LYS360      0.1561
     81  C          9.7190   20.0380   61.7750 C.2   360  LYS360      0.2260
     82  O         10.1910   19.8150   62.8920 O.2   360  LYS360     -0.2867
     83  CB         7.3090   20.4860   61.7710 C.3   360  LYS360      0.0271
     84  CG         6.1590   21.4320   61.9590 C.3   360  LYS360      0.0035
     85  CD         4.9190   20.5550   62.2470 C.3   360  LYS360      0.0206
     86  CE         3.7030   21.3520   62.5720 C.3   360  LYS360      0.1093
     87  NZ         3.8130   22.0780   63.9150 N.3   360  LYS360     -0.1314
     88  N         -7.7700   28.3410   56.9640 N.3   424  LEU424     -0.1245
     89  CA        -6.7150   27.4620   57.4090 C.3   424  LEU424      0.1561
     90  C         -5.4610   27.7090   56.5700 C.2   424  LEU424      0.2260
     91  O         -4.3380   27.7360   57.1040 O.2   424  LEU424     -0.2867
     92  CB        -7.1620   26.0020   57.2500 C.3   424  LEU424      0.0270
     93  CG        -6.0820   24.9460   57.4270 C.3   424  LEU424      0.0019
     94  CD1       -5.5360   24.9420   58.8910 C.3   424  LEU424      0.0001
     95  CD2       -6.6460   23.5820   57.0380 C.3   424  LEU424      0.0001
     96  N         -1.7690   28.7290   58.0080 N.3   428  GLN428     -0.1245
     97  CA        -0.6050   27.8640   57.7480 C.3   428  GLN428      0.1566
     98  C          0.5190   28.5970   56.9820 C.2   428  GLN428      0.2260
     99  O          1.6980   28.3630   57.2640 O.2   428  GLN428     -0.2867
    100  CB        -1.0220   26.5550   57.0350 C.3   428  GLN428      0.0367
    101  CG        -1.9620   25.6810   57.8890 C.3   428  GLN428      0.0905
    102  CD        -1.9450   24.2520   57.4580 C.2   428  GLN428      0.2608
    103  OE1       -2.1470   23.9460   56.2900 O.2   428  GLN428     -0.2717
    104  NE2       -1.6660   23.3570   58.3940 N.am  428  GLN428     -0.0878
    105  N          2.1000   30.7060   59.7130 N.3   431  ARG431     -0.1231
    106  CA         2.8220   29.9140   60.7140 C.3   431  ARG431      0.1694
    107  C          4.0820   29.2380   60.1690 C.2   431  ARG431      0.2592
    108  O          5.0820   29.1190   60.8780 O.2   431  ARG431     -0.2718
    109  CB         1.8900   28.8760   61.3700 C.3   431  ARG431      0.0321
    110  CG         2.4820   28.1390   62.5760 C.3   431  ARG431      0.0489
    111  CD         1.4030   27.4510   63.4360 C.3   431  ARG431      0.2205
    112  NE         0.2960   28.3600   63.7410 N.pl3 431  ARG431     -0.0865
    113  CZ         0.2720   29.2370   64.7460 C.cat 431  ARG431      0.5346
    114  NH1        1.2990   29.3520   65.5900 N.pl3 431  ARG431      0.1354
    115  NH2       -0.8010   30.0040   64.9110 N.pl3 431  ARG431      0.1354
    116  N          4.0290   28.7820   58.9200 N.am  432  TYR432     -0.1976
    117  CA         5.0550   27.8690   58.3980 C.3   432  TYR432      0.1639
    118  C          5.9690   28.4250   57.2770 C.2   432  TYR432      0.2290
    119  O          7.1060   27.9560   57.1470 O.2   432  TYR432     -0.2864
    120  CB         4.4090   26.5130   57.9790 C.3   432  TYR432      0.0560
    121  CG         3.7710   25.8120   59.1420 C.ar  432  TYR432     -0.0198
    122  CD1        4.5430   25.3600   60.1920 C.ar  432  TYR432     -0.0009
    123  CD2        2.3830   25.6650   59.2270 C.ar  432  TYR432     -0.0009
    124  CE1        3.9590   24.7530   61.3190 C.ar  432  TYR432      0.0417
    125  CE2        1.7900   25.0430   60.3360 C.ar  432  TYR432      0.0417
    126  CZ         2.5760   24.5900   61.3660 C.ar  432  TYR432      0.1957
    127  OH         2.0080   23.9720   62.4570 O.3   432  TYR432     -0.2866
@<TRIPOS>BOND
     1    37    38    2
     2    37    36    1
     3    35    36    1
     4    36    39    1
     5    39    40    1
     6    43    44    1
     7    30    29    2
     8    29    28    1
     9    40    42   am
    10    40    41    2
    11    44    47    1
    12    44    45    1
    13    49    47    1
    14    47    48    1
    15    28    27    1
    16    28    31    1
    17    51    45   am
    18    51    52    1
    19    45    46    2
    20    33    31    1
    21    53    52    1
    22    53    54    2
    23    31    32    1
    24    55    52    1
    25    55    56    1
    26    48    50    1
    27    58    56   ar
    28    58    60   ar
    29    56    57   ar
    30    60    61   ar
    31    32    34    1
    32    62    63    1
    33    57    59   ar
    34    74    75    1
    35    74    71    1
    36   103   102    2
    37    61    59   ar
    38    75    76    1
    39    23    22    2
    40    70    71    1
    41    70    64   am
    42    90    91    2
    43    90    89    1
    44    71    72    1
    45    63    66    1
    46    63    64    1
    47    88    89    1
    48    98    99    2
    49    98    97    1
    50    72    73    2
    51   100    97    1
    52   100   101    1
    53    95    93    1
    54    66    67    1
    55   119   118    2
    56    92    89    1
    57    92    93    1
    58   118   117    1
    59    64    65    2
    60    93    94    1
    61   102   101    1
    62   102   104   am
    63    22    21    1
    64    76    77    1
    65    97    96    1
    66    77    78    1
    67   120   117    1
    68   120   121    1
    69   117   116    1
    70    67    68    1
    71    67    69    1
    72    21    24    1
    73    21    20    1
    74    24    26    1
    75    24    25    1
    76   116   107   am
    77   121   123   ar
    78   121   122   ar
    79   123   125   ar
    80   105   106    1
    81   107   106    1
    82   107   108    2
    83   122   124   ar
    84     7     8    1
    85     7     6    1
    86   125   126   ar
    87    79    80    1
    88    10     9    1
    89   106   109    1
    90     4     3    2
    91     8     9    2
    92     9    11    1
    93     6     5    1
    94   124   126   ar
    95   126   127    1
    96   109   110    1
    97    80    83    1
    98    80    81    1
    99     2     5    1
   100     2     3    1
   101     2     1    1
   102    83    84    1
   103    81    82    2
   104     3    12   am
   105    84    85    1
   106    85    86    1
   107    86    87    1
   108   110   111    1
   109    14    15    2
   110    14    13    1
   111    12    13    1
   112    13    16    1
   113   111   112    1
   114   112   113    2
   115   113   115    1
   116   113   114    1
   117    16    17    1
   118    18    17   ar
   119    17    19   ar
