@<TRIPOS>MOLECULE
tmp/2xjeA00.pdb
 174 165 0 0 0
SMALL
GASTEIGER

@<TRIPOS>ATOM
      1  N         11.8130   23.0060   44.4280 N.3    50  ASN50      -0.1225
      2  CA        10.9770   21.9910   43.9250 C.3    50  ASN50       0.1785
      3  C         10.6020   22.4180   42.4770 C.2    50  ASN50       0.2597
      4  O         10.7820   23.5790   42.1030 O.2    50  ASN50      -0.2718
      5  CB         9.8140   21.9580   44.8890 C.3    50  ASN50       0.1169
      6  CG         8.5500   21.5180   44.2610 C.2    50  ASN50       0.2627
      7  OD1        7.7470   22.3340   43.8580 O.2    50  ASN50      -0.2716
      8  ND2        8.3660   20.2150   44.1530 N.am   50  ASN50      -0.0877
      9  N         10.0910   21.5080   41.6560 N.am   51  MET51      -0.1965
     10  CA         9.7990   21.8380   40.2820 C.3    51  MET51       0.1736
     11  C          8.3550   22.1500   39.9860 C.2    51  MET51       0.2616
     12  O          8.0520   23.2460   39.5260 O.2    51  MET51      -0.2715
     13  CB        10.2940   20.7530   39.3270 C.3    51  MET51       0.0427
     14  CG        10.1000   21.1560   37.8770 C.3    51  MET51       0.0599
     15  SD        10.5340   19.7790   36.8500 S.3    51  MET51      -0.1393
     16  CE         9.0200   18.7490   36.9370 C.3    51  MET51       0.0692
     17  N          7.4800   21.1740   40.1480 N.am   52  ASP52      -0.1971
     18  CA         6.0720   21.3530   39.7730 C.3    52  ASP52       0.1709
     19  C          5.3600   22.4090   40.5850 C.2    52  ASP52       0.2293
     20  O          5.2950   22.3370   41.8080 O.2    52  ASP52      -0.2864
     21  CB         5.3110   20.0260   39.8340 C.3    52  ASP52       0.1436
     22  CG         5.9540   18.9660   38.9650 C.2    52  ASP52       0.3671
     23  OD1        5.4870   18.8010   37.8100 O.co2  52  ASP52      -0.2456
     24  OD2        6.9470   18.3300   39.4270 O.co2  52  ASP52      -0.2456
     25  N         -3.1740   21.6670   47.0450 N.3   153  THR153     -0.1218
     26  CA        -2.3800   22.1590   45.9200 C.3   153  THR153      0.1862
     27  C         -3.1750   22.5440   44.6750 C.2   153  THR153      0.2287
     28  O         -4.3940   22.2880   44.5430 O.2   153  THR153     -0.2866
     29  CB        -1.2740   21.2070   45.5430 C.3   153  THR153      0.1770
     30  OG1       -1.8460   20.0320   44.9590 O.3   153  THR153     -0.2211
     31  CG2       -0.4530   20.8030   46.8050 C.3   153  THR153      0.0375
     32  N         -2.5990   21.1420   41.8520 N.3   155  PHE155     -0.1227
     33  CA        -2.9990   19.8120   41.3280 C.3   155  PHE155      0.1736
     34  C         -4.4130   19.3280   41.7370 C.2   155  PHE155      0.2595
     35  O         -4.9560   18.4660   41.0670 O.2   155  PHE155     -0.2718
     36  CB        -1.9630   18.7170   41.6950 C.3   155  PHE155      0.0547
     37  CG        -0.6050   18.8390   40.9640 C.ar  155  PHE155     -0.0202
     38  CD1       -0.5290   18.8610   39.5510 C.ar  155  PHE155     -0.0042
     39  CD2        0.6020   18.8840   41.6920 C.ar  155  PHE155     -0.0042
     40  CE1        0.7040   18.9580   38.8740 C.ar  155  PHE155     -0.0003
     41  CE2        1.8820   18.9470   41.0120 C.ar  155  PHE155     -0.0003
     42  CZ         1.9080   18.9970   39.6000 C.ar  155  PHE155     -0.0000
     43  N         -4.9890   19.8590   42.8230 N.am  156  ASN156     -0.1974
     44  CA        -6.2790   19.3850   43.3620 C.3   156  ASN156      0.1688
     45  C         -7.3930   20.3070   42.9120 C.2   156  ASN156      0.2292
     46  O         -8.6000   20.1030   43.2180 O.2   156  ASN156     -0.2864
     47  CB        -6.3350   19.4090   44.9140 C.3   156  ASN156      0.1181
     48  CG        -5.3760   18.4240   45.5960 C.2   156  ASN156      0.2629
     49  OD1       -4.5910   18.8290   46.4640 O.2   156  ASN156     -0.2716
     50  ND2       -5.4550   17.1270   45.2300 N.am  156  ASN156     -0.0877
     51  N         -9.8920   18.2960   40.8240 N.3   159  GLU159     -0.1245
     52  CA       -10.6510   17.3560   41.6200 C.3   159  GLU159      0.1567
     53  C        -11.6260   18.0260   42.5700 C.2   159  GLU159      0.2260
     54  O        -12.6690   17.4430   42.8390 O.2   159  GLU159     -0.2867
     55  CB        -9.7650   16.3370   42.3490 C.3   159  GLU159      0.0388
     56  CG        -8.8970   16.8610   43.4630 C.3   159  GLU159      0.1160
     57  CD        -7.9370   15.7910   43.9290 C.2   159  GLU159      0.3649
     58  OE1       -8.3980   14.8270   44.6000 O.co2 159  GLU159     -0.2457
     59  OE2       -6.7120   15.8980   43.6200 O.co2 159  GLU159     -0.2457
     60  N         -9.8830   10.1180   43.4970 N.3   200  ARG200     -0.1245
     61  CA        -8.5840   10.4240   44.0450 C.3   200  ARG200      0.1563
     62  C         -7.5910    9.4930   43.3320 C.2   200  ARG200      0.2260
     63  O         -6.5360    9.9140   42.8680 O.2   200  ARG200     -0.2867
     64  CB        -8.6880   10.1960   45.5700 C.3   200  ARG200      0.0307
     65  CG        -7.4900   10.4970   46.4320 C.3   200  ARG200      0.0489
     66  CD        -7.3000   11.9570   46.8400 C.3   200  ARG200      0.2205
     67  NE        -6.7240   12.7670   45.7590 N.pl3 200  ARG200     -0.0865
     68  CZ        -5.5260   12.5710   45.2190 C.cat 200  ARG200      0.5346
     69  NH1       -4.7520   11.6000   45.6470 N.pl3 200  ARG200      0.1354
     70  NH2       -5.1070   13.3420   44.2360 N.pl3 200  ARG200      0.1354
     71  N         -7.3390   10.7280   39.5670 N.3   203  VAL203     -0.1231
     72  CA        -6.3750   11.8160   39.4200 C.3   203  VAL203      0.1692
     73  C         -4.9640   11.2470   39.4690 C.2   203  VAL203      0.2592
     74  O         -4.1000   11.5920   38.6380 O.2   203  VAL203     -0.2718
     75  CB        -6.5510   12.9130   40.5120 C.3   203  VAL203      0.0266
     76  CG1       -5.4340   13.9740   40.4390 C.3   203  VAL203      0.0020
     77  CG2       -7.9460   13.5950   40.3960 C.3   203  VAL203      0.0020
     78  N         -4.7320   10.3700   40.4340 N.am  204  ASP204     -0.1974
     79  CA        -3.4190    9.7890   40.6320 C.3   204  ASP204      0.1709
     80  C         -3.0560    8.9980   39.3860 C.2   204  ASP204      0.2293
     81  O         -1.9470    9.1300   38.8990 O.2   204  ASP204     -0.2864
     82  CB        -3.4070    8.9180   41.8790 C.3   204  ASP204      0.1436
     83  CG        -2.9910    9.6920   43.1350 C.2   204  ASP204      0.3671
     84  OD1       -2.9190   10.9440   43.1140 O.co2 204  ASP204     -0.2456
     85  OD2       -2.7310    9.0300   44.1680 O.co2 204  ASP204     -0.2456
     86  N         -2.0500   11.1650   36.4360 N.3   207  HIS207     -0.1226
     87  CA        -0.7340   11.6620   36.6850 C.3   207  HIS207      0.1752
     88  C          0.3100   10.5570   36.4210 C.2   207  HIS207      0.2596
     89  O          1.3190   10.8090   35.7790 O.2   207  HIS207     -0.2718
     90  CB        -0.6490   12.3270   38.0890 C.3   207  HIS207      0.0759
     91  CG        -1.1050   13.7650   38.1130 C.ar  207  HIS207      0.0818
     92  ND1       -0.2810   14.8230   37.7710 N.ar  207  HIS207     -0.2268
     93  CD2       -2.3080   14.3210   38.4210 C.ar  207  HIS207      0.1154
     94  CE1       -0.9440   15.9610   37.8830 C.ar  207  HIS207      0.1986
     95  NE2       -2.1790   15.6850   38.2690 N.ar  207  HIS207     -0.2212
     96  N          0.0330    9.3220   36.8460 N.am  208  TYR208     -0.1976
     97  CA         1.0260    8.2470   36.7780 C.3   208  TYR208      0.1639
     98  C          0.9170    7.2260   35.6410 C.2   208  TYR208      0.2290
     99  O          1.9410    6.7410   35.1800 O.2   208  TYR208     -0.2864
    100  CB         1.1200    7.5410   38.1340 C.3   208  TYR208      0.0560
    101  CG         1.5570    8.5150   39.1940 C.ar  208  TYR208     -0.0198
    102  CD1        0.7330    8.8170   40.2970 C.ar  208  TYR208     -0.0009
    103  CD2        2.7980    9.1880   39.0680 C.ar  208  TYR208     -0.0009
    104  CE1        1.1270    9.7360   41.2490 C.ar  208  TYR208      0.0417
    105  CE2        3.2150   10.1260   40.0170 C.ar  208  TYR208      0.0417
    106  CZ         2.3800   10.3960   41.1070 C.ar  208  TYR208      0.1957
    107  OH         2.8090   11.3270   42.0480 O.3   208  TYR208     -0.2866
    108  N          0.9390   13.6540   31.4410 N.3   213  LYS213     -0.1245
    109  CA         2.3600   13.9840   31.2110 C.3   213  LYS213      0.1561
    110  C          2.7510   14.0150   29.7380 C.2   213  LYS213      0.2260
    111  O          3.3450   14.9870   29.2870 O.2   213  LYS213     -0.2867
    112  CB         3.3000   13.0910   32.0260 C.3   213  LYS213      0.0271
    113  CG         3.2550   13.3230   33.5290 C.3   213  LYS213      0.0035
    114  CD         4.5090   12.7750   34.1910 C.3   213  LYS213      0.0206
    115  CE         4.5450   13.0740   35.6800 C.3   213  LYS213      0.1093
    116  NZ         3.5740   12.1760   36.3740 N.3   213  LYS213     -0.1314
    117  N         12.5380   17.0860   43.7590 N.3   247  THR247     -0.1203
    118  CA        11.1610   16.9280   43.2620 C.3   247  THR247      0.1994
    119  C         10.6540   15.5080   43.4800 C.2   247  THR247      0.2618
    120  O         11.4270   14.5560   43.4780 O.2   247  THR247     -0.2717
    121  CB        11.0440   17.3920   41.7640 C.3   247  THR247      0.1784
    122  OG1        9.8330   16.9040   41.1660 O.3   247  THR247     -0.2211
    123  CG2       12.2570   16.9460   40.9460 C.3   247  THR247      0.0376
    124  N          9.3430   15.4180   43.7060 N.am  248  ASN248     -0.1960
    125  CA         8.5990   14.1710   43.7490 C.3   248  ASN248      0.1819
    126  C          8.4760   13.5150   42.3840 C.2   248  ASN248      0.2622
    127  O          8.2340   12.3220   42.3120 O.2   248  ASN248     -0.2715
    128  CB         7.1790   14.3950   44.3260 C.3   248  ASN248      0.1195
    129  CG         7.1920   14.4920   45.8370 C.2   248  ASN248      0.2630
    130  OD1        8.2590   14.5900   46.4450 O.2   248  ASN248     -0.2716
    131  ND2        6.0130   14.4730   46.4570 N.am  248  ASN248     -0.0877
    132  N          8.5700   14.3340   41.3300 N.am  249  SER249     -0.1950
    133  CA         8.5880   13.9130   39.9220 C.3   249  SER249      0.1924
    134  C          9.7570   12.9950   39.5930 C.2   249  SER249      0.2314
    135  O         10.7620   12.9480   40.3160 O.2   249  SER249     -0.2863
    136  CB         8.6910   15.1280   39.0130 C.3   249  SER249      0.2116
    137  OG         7.3950   15.5990   38.6940 O.3   249  SER249     -0.2180
    138  N         10.5690   12.9890   33.2860 N.3   253  TYR253     -0.1241
    139  CA         9.6240   14.1210   33.2020 C.3   253  TYR253      0.1605
    140  C         10.2870   15.4300   33.5990 C.2   253  TYR253      0.2264
    141  O         10.1050   16.4690   32.9680 O.2   253  TYR253     -0.2867
    142  CB         8.3930   13.8800   34.0920 C.3   253  TYR253      0.0534
    143  CG         7.3800   14.9980   34.0140 C.ar  253  TYR253     -0.0201
    144  CD1        6.6140   15.1590   32.8800 C.ar  253  TYR253     -0.0009
    145  CD2        7.1820   15.8960   35.0990 C.ar  253  TYR253     -0.0009
    146  CE1        5.6310   16.1890   32.7930 C.ar  253  TYR253      0.0417
    147  CE2        6.2310   16.9260   35.0320 C.ar  253  TYR253      0.0417
    148  CZ         5.4460   17.0590   33.8640 C.ar  253  TYR253      0.1957
    149  OH         4.4950   18.0420   33.7280 O.3   253  TYR253     -0.2866
    150  N          8.2360   13.3500   49.0650 N.3   290  LYS290     -0.1245
    151  CA         7.8860   14.3030   50.1270 C.3   290  LYS290      0.1561
    152  C          6.3870   14.0830   50.3930 C.2   290  LYS290      0.2260
    153  O          5.6530   13.7750   49.4480 O.2   290  LYS290     -0.2867
    154  CB         8.1310   15.7530   49.6780 C.3   290  LYS290      0.0271
    155  CG         9.5590   16.0940   49.3490 C.3   290  LYS290      0.0035
    156  CD         9.6540   17.4690   48.8270 C.3   290  LYS290      0.0206
    157  CE         9.2580   17.5230   47.3340 C.3   290  LYS290      0.1093
    158  NZ         9.5550   18.8740   46.7140 N.3   290  LYS290     -0.1314
    159  N          5.7860   24.9400   46.9260 N.3   349  ASP349     -0.1239
    160  CA         4.4140   25.3850   46.6920 C.3   349  ASP349      0.1674
    161  C          3.3930   24.5900   47.5060 C.2   349  ASP349      0.2266
    162  O          2.2280   24.9920   47.6030 O.2   349  ASP349     -0.2867
    163  CB         4.0630   25.2550   45.1920 C.3   349  ASP349      0.1410
    164  CG         4.0830   23.8030   44.7050 C.2   349  ASP349      0.3668
    165  OD1        5.2040   23.2250   44.5370 O.co2 349  ASP349     -0.2456
    166  OD2        2.9870   23.2220   44.4840 O.co2 349  ASP349     -0.2456
    167  N          5.8830   20.4290   51.3600 N.3   354  ASP354     -0.1239
    168  CA         7.1610   21.1700   51.1820 C.3   354  ASP354      0.1674
    169  C          7.5800   21.9610   52.4500 C.2   354  ASP354      0.2266
    170  O          8.7030   21.8200   52.9650 O.2   354  ASP354     -0.2867
    171  CB         7.0580   22.2220   50.0430 C.3   354  ASP354      0.1410
    172  CG         7.0830   21.6250   48.6130 C.2   354  ASP354      0.3668
    173  OD1        7.5690   20.5110   48.3540 O.co2 354  ASP354     -0.2456
    174  OD2        6.6150   22.3360   47.7100 O.co2 354  ASP354     -0.2456
@<TRIPOS>BOND
     1   111   110    2
     2   110   109    1
     3   109   108    1
     4   109   112    1
     5   112   113    1
     6   146   144   ar
     7   146   148   ar
     8   144   143   ar
     9   141   140    2
    10   139   138    1
    11   139   140    1
    12   139   142    1
    13   113   114    1
    14   149   148    1
    15   148   147   ar
    16   143   142    1
    17   143   145   ar
    18   114   115    1
    19   147   145   ar
    20    99    98    2
    21    98    97    1
    22   115   116    1
    23    89    88    2
    24    88    87    1
    25    88    96   am
    26    86    87    1
    27    87    90    1
    28    97    96    1
    29    97   100    1
    30    15    16    1
    31    15    14    1
    32    92    94   ar
    33    92    91   ar
    34    23    22   ar
    35    14    13    1
    36    94    95   ar
    37    90    91    1
    38    91    93   ar
    39   100   101    1
    40    95    93   ar
    41    74    73    2
    42   137   136    1
    43    40    38   ar
    44    40    42   ar
    45    81    80    2
    46    22    24   ar
    47    22    21    1
    48   136   133    1
    49   103   101   ar
    50   103   105   ar
    51   101   102   ar
    52    13    10    1
    53    80    79    1
    54    72    73    1
    55    72    71    1
    56    72    75    1
    57    73    78   am
    58    12    11    2
    59    38    37   ar
    60   134   133    1
    61   134   135    2
    62    42    41   ar
    63    18    21    1
    64    18    17    1
    65    18    19    1
    66   133   132    1
    67    11    17   am
    68    11    10    1
    69   105   106   ar
    70    10     9    1
    71   102   104   ar
    72    77    75    1
    73    78    79    1
    74    76    75    1
    75    19    20    2
    76    79    82    1
    77    51    52    1
    78   123   121    1
    79    37    39   ar
    80    37    36    1
    81    41    39   ar
    82    35    34    2
    83   106   104   ar
    84   106   107    1
    85   122   121    1
    86    33    36    1
    87    33    34    1
    88    33    32    1
    89   132   126   am
    90    52    55    1
    91    52    53    1
    92     9     3   am
    93    34    43   am
    94   121   118    1
    95    82    83    1
    96     4     3    2
    97   127   126    2
    98    55    56    1
    99   126   125    1
   100     3     2    1
   101    53    54    2
   102    43    44    1
   103    63    62    2
   104    45    46    2
   105    45    44    1
   106    84    83   ar
   107    83    85   ar
   108   118   119    1
   109   118   117    1
   110    62    61    1
   111    44    47    1
   112    56    57    1
   113   120   119    2
   114   119   124   am
   115    60    61    1
   116    59    57   ar
   117   124   125    1
   118   125   128    1
   119     7     6    2
   120     2     1    1
   121     2     5    1
   122    57    58   ar
   123    61    64    1
   124     8     6   am
   125    70    68    1
   126     6     5    1
   127   128   129    1
   128   166   164   ar
   129   165   164   ar
   130    28    27    2
   131    27    26    1
   132   164   163    1
   133    47    48    1
   134    30    29    1
   135   163   160    1
   136    68    69    1
   137    68    67    2
   138    50    48   am
   139    29    26    1
   140    29    31    1
   141    64    65    1
   142    48    49    2
   143    67    66    1
   144   129   130    2
   145   129   131   am
   146    26    25    1
   147    65    66    1
   148   160   159    1
   149   160   161    1
   150   158   157    1
   151   157   156    1
   152   161   162    2
   153   174   172   ar
   154   173   172   ar
   155   172   171    1
   156   156   155    1
   157   150   151    1
   158   155   154    1
   159   153   152    2
   160   154   151    1
   161   171   168    1
   162   151   152    1
   163   168   167    1
   164   168   169    1
   165   169   170    2
