@<TRIPOS>MOLECULE
tmp/2xjgA00.pdb
 128 117 0 0 0
SMALL
GASTEIGER

@<TRIPOS>ATOM
      1  N          6.5370   -3.0860   10.5090 N.3    38  LEU38      -0.1245
      2  CA         7.6190   -3.6690   11.3070 C.3    38  LEU38       0.1561
      3  C          7.7800   -5.1420   10.9960 C.2    38  LEU38       0.2260
      4  O          8.8910   -5.6340   10.7770 O.2    38  LEU38      -0.2867
      5  CB         7.2470   -3.5700   12.8000 C.3    38  LEU38       0.0270
      6  CG         7.2320   -2.2650   13.5800 C.3    38  LEU38       0.0019
      7  CD1        6.9900   -2.5990   15.0390 C.3    38  LEU38       0.0001
      8  CD2        8.5560   -1.5460   13.4470 C.3    38  LEU38       0.0001
      9  N          9.2680   -5.9110    7.5780 N.3    41  ASN41      -0.1225
     10  CA        10.7260   -5.7430    7.4130 C.3    41  ASN41       0.1785
     11  C         11.4270   -6.9540    8.0160 C.2    41  ASN41       0.2597
     12  O         12.4260   -7.4530    7.4820 O.2    41  ASN41      -0.2718
     13  CB        11.2340   -4.4670    8.0860 C.3    41  ASN41       0.1169
     14  CG        11.0320   -3.2360    7.2350 C.2    41  ASN41       0.2627
     15  OD1       10.2320   -2.3660    7.5630 O.2    41  ASN41      -0.2716
     16  ND2       11.7860   -3.1370    6.1550 N.am   41  ASN41      -0.0877
     17  N         10.9000   -7.3780    9.1660 N.am   42  SER42      -0.1952
     18  CA        11.3660   -8.5460    9.8970 C.3    42  SER42       0.1924
     19  C         11.2630   -9.7770    8.9990 C.2    42  SER42       0.2314
     20  O         12.1650  -10.5910    8.9600 O.2    42  SER42      -0.2863
     21  CB        10.4960   -8.7680   11.1460 C.3    42  SER42       0.2116
     22  OG        10.9760   -8.0670   12.2910 O.3    42  SER42      -0.2180
     23  N         11.0070   -9.8410    5.6780 N.3    44  ASP44      -0.1225
     24  CA        11.9470   -9.7040    4.5520 C.3    44  ASP44       0.1805
     25  C         13.3980  -10.0390    4.8970 C.2    44  ASP44       0.2597
     26  O         14.0990  -10.6510    4.1020 O.2    44  ASP44      -0.2718
     27  CB        11.8230   -8.3360    3.8710 C.3    44  ASP44       0.1424
     28  CG        10.5030   -8.1700    3.1540 C.2    44  ASP44       0.3668
     29  OD1        9.8980   -9.2130    2.7980 O.co2  44  ASP44      -0.2456
     30  OD2       10.0720   -7.0100    2.9610 O.co2  44  ASP44      -0.2456
     31  N         13.8470   -9.6390    6.0800 N.am   45  ALA45      -0.1979
     32  CA        15.2050   -9.9640    6.5810 C.3    45  ALA45       0.1597
     33  C         15.3040  -11.4850    6.8720 C.2    45  ALA45       0.2287
     34  O         16.3740  -12.0680    6.8540 O.2    45  ALA45      -0.2864
     35  CB        15.4770   -9.1770    7.8980 C.3    45  ALA45       0.0319
     36  N         15.7270  -13.3250    3.5710 N.3    48  LYS48      -0.1245
     37  CA        17.1040  -13.0940    3.1350 C.3    48  LYS48       0.1561
     38  C         18.1280  -14.1060    3.6170 C.2    48  LYS48       0.2260
     39  O         18.9650  -14.5450    2.8410 O.2    48  LYS48      -0.2867
     40  CB        17.5530  -11.7190    3.6310 C.3    48  LYS48       0.0271
     41  CG        18.0870  -10.8080    2.5370 C.3    48  LYS48       0.0035
     42  CD        19.2700  -11.4090    1.8480 C.3    48  LYS48       0.0206
     43  CE        19.8230  -10.4520    0.8370 C.3    48  LYS48       0.1093
     44  NZ        21.1320  -10.9470    0.3230 N.3    48  LYS48      -0.1314
     45  N         10.0500   -5.3290   18.8750 N.3    81  ILE81      -0.1245
     46  CA         9.9670   -6.4290   17.8840 C.3    81  ILE81       0.1561
     47  C         11.3540   -7.0880   17.7090 C.2    81  ILE81       0.2260
     48  O         12.3450   -6.4110   17.5490 O.2    81  ILE81      -0.2867
     49  CB         9.3380   -6.0500   16.4820 C.3    81  ILE81       0.0252
     50  CG1        9.3250   -7.3060   15.5890 C.3    81  ILE81       0.0019
     51  CG2       10.1510   -4.9660   15.7730 C.3    81  ILE81       0.0019
     52  CD1        8.9240   -7.0780   14.1860 C.3    81  ILE81       0.0001
     53  N         13.5350  -10.2290   15.6810 N.3    83  ASP83      -0.1239
     54  CA        13.6430  -11.2530   14.6610 C.3    83  ASP83       0.1674
     55  C         15.0740  -11.8000   14.6300 C.2    83  ASP83       0.2266
     56  O         15.9950  -11.2050   15.2110 O.2    83  ASP83      -0.2867
     57  CB        13.1490  -10.7770   13.2770 C.3    83  ASP83       0.1410
     58  CG        14.0950   -9.8120   12.6050 C.2    83  ASP83       0.3668
     59  OD1       15.2390  -10.2310   12.2650 O.co2  83  ASP83      -0.2456
     60  OD2       13.6600   -8.6630   12.3370 O.co2  83  ASP83      -0.2456
     61  N         18.6390  -11.7180    8.7080 N.3    86  ILE86      -0.1231
     62  CA        19.9600  -11.3990    8.1550 C.3    86  ILE86       0.1692
     63  C         20.7750  -10.3690    8.9370 C.2    86  ILE86       0.2593
     64  O         22.0230  -10.4300    8.9490 O.2    86  ILE86      -0.2718
     65  CB        19.8240  -10.9290    6.6600 C.3    86  ILE86       0.0266
     66  CG1       21.1700  -10.9980    5.8880 C.3    86  ILE86       0.0019
     67  CG2       19.2360   -9.4850    6.6060 C.3    86  ILE86       0.0020
     68  CD1       21.6590  -12.3880    5.5030 C.3    86  ILE86       0.0001
     69  N         20.0770   -9.3840    9.5050 N.am   87  GLY87      -0.1942
     70  CA        20.6900   -8.3000   10.2550 C.3    87  GLY87       0.2014
     71  C         21.1770   -7.1750    9.3600 C.2    87  GLY87       0.2638
     72  O         21.0180   -7.2120    8.1450 O.2    87  GLY87      -0.2714
     73  N         21.7940   -6.1680    9.9710 N.am   88  MET88      -0.1976
     74  CA        22.3470   -5.0450    9.2340 C.3    88  MET88       0.1605
     75  C         23.8250   -4.7830    9.5600 C.2    88  MET88       0.2287
     76  O         24.2010   -4.7150   10.7460 O.2    88  MET88      -0.2864
     77  CB        21.5050   -3.7760    9.4590 C.3    88  MET88       0.0413
     78  CG        20.1570   -3.8280    8.7870 C.3    88  MET88       0.0598
     79  SD        19.1590   -2.3640    9.0570 S.3    88  MET88      -0.1393
     80  CE        18.7000   -2.6160   10.7250 C.3    88  MET88       0.0692
     81  N         20.4120    2.7010    5.0390 N.3    96  ASN96      -0.1225
     82  CA        18.9810    2.3740    5.0990 C.3    96  ASN96       0.1785
     83  C         18.1660    3.1690    6.0970 C.2    96  ASN96       0.2597
     84  O         16.9830    3.4230    5.8680 O.2    96  ASN96      -0.2718
     85  CB        18.7300    0.8700    5.2800 C.3    96  ASN96       0.1169
     86  CG        18.6950    0.1360    3.9710 C.2    96  ASN96       0.2627
     87  OD1       18.1560    0.6320    2.9820 O.2    96  ASN96      -0.2716
     88  ND2       19.3120   -1.0270    3.9390 N.am   96  ASN96      -0.0877
     89  N         18.7930    3.5670    7.2000 N.am   97  LEU97      -0.1980
     90  CA        18.0810    4.2770    8.2510 C.3    97  LEU97       0.1596
     91  C         18.3660    5.7360    8.5030 C.2    97  LEU97       0.2287
     92  O         18.4530    6.1570    9.6810 O.2    97  LEU97      -0.2864
     93  CB        18.0560    3.5160    9.5870 C.3    97  LEU97       0.0297
     94  CG        17.7360    2.0270    9.6380 C.3    97  LEU97       0.0022
     95  CD1       17.6480    1.6160   11.1030 C.3    97  LEU97       0.0001
     96  CD2       16.4430    1.7260    8.9150 C.3    97  LEU97       0.0001
     97  N          9.4580    2.2880    7.5020 N.3   128  PHE128     -0.1241
     98  CA        10.1060    2.2310    8.8140 C.3   128  PHE128      0.1605
     99  C          9.7140    3.4970    9.6270 C.2   128  PHE128      0.2264
    100  O          9.6450    3.5070   10.8360 O.2   128  PHE128     -0.2867
    101  CB        11.6520    2.1720    8.6100 C.3   128  PHE128      0.0534
    102  CG        12.4410    2.5540    9.8430 C.ar  128  PHE128     -0.0203
    103  CD1       12.3730    1.7710   10.9990 C.ar  128  PHE128     -0.0042
    104  CD2       13.1380    3.7660    9.8970 C.ar  128  PHE128     -0.0042
    105  CE1       13.0540    2.1440   12.1600 C.ar  128  PHE128     -0.0003
    106  CE2       13.7710    4.1820   11.0890 C.ar  128  PHE128     -0.0003
    107  CZ        13.7020    3.3770   12.2200 C.ar  128  PHE128     -0.0000
    108  N         17.1640    0.7290   17.4130 N.3   140  VAL140     -0.1245
    109  CA        17.2990   -0.4260   16.4970 C.3   140  VAL140      0.1561
    110  C         18.6410   -1.1090   16.8210 C.2   140  VAL140      0.2260
    111  O         19.6920   -0.4740   16.7190 O.2   140  VAL140     -0.2867
    112  CB        17.3020    0.0290   14.9910 C.3   140  VAL140      0.0252
    113  CG1       17.5080   -1.1430   14.0700 C.3   140  VAL140      0.0019
    114  CG2       16.0480    0.7720   14.6060 C.3   140  VAL140      0.0019
    115  N         17.7150   -8.3360   13.9960 N.3   174  THR174     -0.1218
    116  CA        17.4650   -6.9500   14.3580 C.3   174  THR174      0.1862
    117  C         16.4420   -6.9280   15.4750 C.2   174  THR174      0.2287
    118  O         15.5460   -7.7830   15.5370 O.2   174  THR174     -0.2866
    119  CB        16.9770   -6.1660   13.1130 C.3   174  THR174      0.1770
    120  OG1       17.9590   -6.2500   12.0730 O.3   174  THR174     -0.2211
    121  CG2       16.6970   -4.7250   13.4090 C.3   174  THR174      0.0375
    122  N         13.9250   -4.0360   17.3730 N.3   176  VAL176     -0.1245
    123  CA        13.4330   -2.6640   17.3330 C.3   176  VAL176      0.1561
    124  C         12.6120   -2.3530   18.6030 C.2   176  VAL176      0.2260
    125  O         11.5830   -2.9760   18.8710 O.2   176  VAL176     -0.2867
    126  CB        12.5970   -2.4050   16.0560 C.3   176  VAL176      0.0252
    127  CG1       12.0330   -0.9820   16.0590 C.3   176  VAL176      0.0019
    128  CG2       13.4210   -2.7010   14.8070 C.3   176  VAL176      0.0019
@<TRIPOS>BOND
     1    44    43    1
     2    43    42    1
     3    42    41    1
     4    41    40    1
     5    29    28   ar
     6    39    38    2
     7    30    28   ar
     8    87    86    2
     9    37    36    1
    10    37    38    1
    11    37    40    1
    12    28    27    1
    13    27    24    1
    14    88    86   am
    15    86    85    1
    16    26    25    2
    17    24    25    1
    18    24    23    1
    19    25    31   am
    20    81    82    1
    21    82    85    1
    22    82    83    1
    23    68    66    1
    24    84    83    2
    25    66    65    1
    26    31    32    1
    27    83    89   am
    28    16    14   am
    29    32    33    1
    30    32    35    1
    31    67    65    1
    32    65    62    1
    33    34    33    2
    34    89    90    1
    35    14    15    2
    36    14    13    1
    37    10     9    1
    38    10    11    1
    39    10    13    1
    40    12    11    2
    41    97    98    1
    42    11    17   am
    43    72    71    2
    44    62    61    1
    45    62    63    1
    46    90    91    1
    47    90    93    1
    48    91    92    2
    49   101    98    1
    50   101   102    1
    51    78    79    1
    52    78    77    1
    53    98    99    1
    54    96    94    1
    55    63    64    2
    56    63    69   am
    57    20    19    2
    58    19    18    1
    59    79    80    1
    60    17    18    1
    61    74    77    1
    62    74    75    1
    63    74    73    1
    64    71    73   am
    65    71    70    1
    66    69    70    1
    67    75    76    2
    68    93    94    1
    69    99   100    2
    70    94    95    1
    71   102   104   ar
    72   102   103   ar
    73    18    21    1
    74   104   106   ar
    75     1     2    1
    76     4     3    2
    77     3     2    1
    78   103   105   ar
    79   106   107   ar
    80    21    22    1
    81     2     5    1
    82   120   119    1
    83   105   107   ar
    84    59    58   ar
    85    60    58   ar
    86    58    57    1
    87     5     6    1
    88   119   121    1
    89   119   116    1
    90    57    54    1
    91     8     6    1
    92     6     7    1
    93   115   116    1
    94   113   112    1
    95    52    50    1
    96   116   117    1
    97   114   112    1
    98    55    54    1
    99    55    56    2
   100    54    53    1
   101   128   126    1
   102   112   109    1
   103   117   118    2
   104    50    49    1
   105    51    49    1
   106   126   127    1
   107   126   123    1
   108    49    46    1
   109   109   110    1
   110   109   108    1
   111   111   110    2
   112   123   122    1
   113   123   124    1
   114    48    47    2
   115    47    46    1
   116    46    45    1
   117   124   125    2
