@<TRIPOS>MOLECULE
tmp/2xjjA00.pdb
 128 117 0 0 0
SMALL
GASTEIGER

@<TRIPOS>ATOM
      1  N         -2.5150    5.1370   -0.1630 N.3    32  LEU32      -0.1245
      2  CA        -2.7480    3.7180   -0.4020 C.3    32  LEU32       0.1561
      3  C         -4.0490    3.4830   -1.1780 C.2    32  LEU32       0.2260
      4  O         -4.0330    2.7400   -2.1470 O.2    32  LEU32      -0.2867
      5  CB        -2.6900    2.9050    0.8870 C.3    32  LEU32       0.0270
      6  CG        -1.2960    2.8280    1.6090 C.3    32  LEU32       0.0019
      7  CD1       -1.4080    2.0650    2.9310 C.3    32  LEU32       0.0001
      8  CD2       -0.2140    2.2290    0.7260 C.3    32  LEU32       0.0001
      9  N         -3.6120    4.3250   -4.8820 N.3    35  ASN35      -0.1225
     10  CA        -2.9720    3.2350   -5.6610 C.3    35  ASN35       0.1785
     11  C         -3.9830    2.1390   -5.9880 C.2    35  ASN35       0.2597
     12  O         -3.9540    1.5880   -7.0870 O.2    35  ASN35      -0.2718
     13  CB        -1.8290    2.6310   -4.8630 C.3    35  ASN35       0.1169
     14  CG        -0.6350    3.5470   -4.9010 C.2    35  ASN35       0.2627
     15  OD1        0.0660    3.5790   -5.8860 O.2    35  ASN35      -0.2716
     16  ND2       -0.4060    4.3140   -3.8510 N.am   35  ASN35      -0.0877
     17  N         -4.8140    1.7610   -5.0000 N.am   36  SER36      -0.1952
     18  CA        -5.8750    0.7610   -5.1970 C.3    36  SER36       0.1924
     19  C         -6.8190    1.2580   -6.3250 C.2    36  SER36       0.2314
     20  O         -7.1840    0.4850   -7.1940 O.2    36  SER36      -0.2863
     21  CB        -6.6880    0.6010   -3.9220 C.3    36  SER36       0.2116
     22  OG        -5.9620   -0.0430   -2.8940 O.3    36  SER36      -0.2180
     23  N         -6.1630    3.2950   -8.8290 N.3    38  ASP38      -0.1225
     24  CA        -5.5310    3.2040  -10.1560 C.3    38  ASP38       0.1805
     25  C         -5.4840    1.7560  -10.6690 C.2    38  ASP38       0.2597
     26  O         -5.6930    1.5340  -11.8580 O.2    38  ASP38      -0.2718
     27  CB        -4.1090    3.8020  -10.1360 C.3    38  ASP38       0.1424
     28  CG        -4.0210    5.3050   -9.8750 C.2    38  ASP38       0.3668
     29  OD1       -5.0810    5.9950   -9.9050 O.co2  38  ASP38      -0.2456
     30  OD2       -2.9360    5.7680   -9.5690 O.co2  38  ASP38      -0.2456
     31  N         -5.2130    0.7720   -9.7670 N.am   39  ALA39      -0.1979
     32  CA        -5.1630   -0.6550  -10.1340 C.3    39  ALA39       0.1597
     33  C         -6.6030   -1.1360  -10.5500 C.2    39  ALA39       0.2287
     34  O         -6.7430   -1.9480  -11.4650 O.2    39  ALA39      -0.2864
     35  CB        -4.6320   -1.4770   -8.9520 C.3    39  ALA39       0.0319
     36  N         -7.3700    0.1850  -13.9620 N.3    42  LYS42      -0.1245
     37  CA        -6.7120   -0.5950  -15.0080 C.3    42  LYS42       0.1561
     38  C         -7.4940   -1.8320  -15.4330 C.2    42  LYS42       0.2260
     39  O         -7.7280   -2.0020  -16.6270 O.2    42  LYS42      -0.2867
     40  CB        -5.2420   -0.9050  -14.7050 C.3    42  LYS42       0.0271
     41  CG        -4.5100   -1.3650  -15.9830 C.3    42  LYS42       0.0035
     42  CD        -3.0920   -0.9560  -16.0320 C.3    42  LYS42       0.0206
     43  CE        -2.3850   -1.5880  -17.2020 C.3    42  LYS42       0.1093
     44  NZ        -0.9160   -1.6200  -16.9810 N.3    42  LYS42      -0.1314
     45  N         -7.8490   -4.6130   -2.1970 N.3    77  ASP77      -0.1239
     46  CA        -8.5930   -4.2120   -3.3790 C.3    77  ASP77       0.1674
     47  C         -8.6710   -5.3880   -4.3270 C.2    77  ASP77       0.2266
     48  O         -7.8880   -6.3460   -4.1830 O.2    77  ASP77      -0.2867
     49  CB        -8.0020   -2.9350   -4.0410 C.3    77  ASP77       0.1410
     50  CG        -6.6360   -3.1660   -4.6730 C.2    77  ASP77       0.3668
     51  OD1       -6.5530   -3.9900   -5.6260 O.co2  77  ASP77      -0.2456
     52  OD2       -5.6450   -2.5590   -4.1880 O.co2  77  ASP77      -0.2456
     53  N         -6.2310   -4.8100  -10.6810 N.3    80  ILE80      -0.1231
     54  CA        -5.5080   -5.6770  -11.6310 C.3    80  ILE80       0.1692
     55  C         -4.4250   -6.5830  -10.9880 C.2    80  ILE80       0.2593
     56  O         -4.0420   -7.6200  -11.5680 O.2    80  ILE80      -0.2718
     57  CB        -4.9770   -4.8340  -12.8180 C.3    80  ILE80       0.0266
     58  CG1       -4.6680   -5.7400  -14.0590 C.3    80  ILE80       0.0019
     59  CG2       -3.7720   -3.9070  -12.3910 C.3    80  ILE80       0.0020
     60  CD1       -4.3660   -4.9920  -15.4290 C.3    80  ILE80       0.0001
     61  N         -3.8960   -6.1390   -9.8470 N.am   81  GLY81      -0.1942
     62  CA        -2.8360   -6.8500   -9.1480 C.3    81  GLY81       0.2014
     63  C         -1.4930   -6.6510   -9.8540 C.2    81  GLY81       0.2638
     64  O         -1.3760   -5.8770  -10.8210 O.2    81  GLY81      -0.2714
     65  N         -0.4900   -7.3690   -9.3820 N.am   82  MET82      -0.1976
     66  CA         0.8680   -7.2120   -9.9180 C.3    82  MET82       0.1605
     67  C          1.5010   -8.5500  -10.2230 C.2    82  MET82       0.2287
     68  O          1.4010   -9.4670   -9.4220 O.2    82  MET82      -0.2864
     69  CB         1.7620   -6.4740   -8.8910 C.3    82  MET82       0.0413
     70  CG         1.4690   -4.9910   -8.8170 C.3    82  MET82       0.0598
     71  SD         2.4470   -4.1770   -7.5350 S.3    82  MET82      -0.1393
     72  CE         1.5050   -4.7720   -5.9950 C.3    82  MET82       0.0692
     73  N          6.1920   -6.8250  -12.0400 N.3    86  ASP86      -0.1239
     74  CA         5.5210   -5.5760  -11.6170 C.3    86  ASP86       0.1674
     75  C          5.8820   -5.2280  -10.1850 C.2    86  ASP86       0.2266
     76  O          6.2610   -4.0950   -9.9000 O.2    86  ASP86      -0.2867
     77  CB         3.9820   -5.6720  -11.7640 C.3    86  ASP86       0.1410
     78  CG         3.4600   -5.7410  -13.1910 C.2    86  ASP86       0.3668
     79  OD1        4.2440   -5.4180  -14.1370 O.co2  86  ASP86      -0.2456
     80  OD2        2.2820   -6.1510  -13.3780 O.co2  86  ASP86      -0.2456
     81  N          8.1540   -2.0620   -9.6810 N.3    90  ASN90      -0.1225
     82  CA         7.3600   -0.9360   -9.1670 C.3    90  ASN90       0.1785
     83  C          7.3860   -0.7070   -7.6570 C.2    90  ASN90       0.2597
     84  O          6.9970    0.3690   -7.2190 O.2    90  ASN90      -0.2718
     85  CB         5.9230   -0.9820   -9.7180 C.3    90  ASN90       0.1169
     86  CG         5.8630   -0.9970  -11.2220 C.2    90  ASN90       0.2627
     87  OD1        6.4420   -0.1510  -11.9030 O.2    90  ASN90      -0.2716
     88  ND2        5.1170   -1.9260  -11.7800 N.am   90  ASN90      -0.0877
     89  N          7.8530   -1.6890   -6.8750 N.am   91  LEU91      -0.1980
     90  CA         7.9210   -1.5620   -5.4230 C.3    91  LEU91       0.1596
     91  C          9.3520   -1.4700   -4.8500 C.2    91  LEU91       0.2287
     92  O          9.6310   -2.0170   -3.7820 O.2    91  LEU91      -0.2864
     93  CB         7.1190   -2.6640   -4.7210 C.3    91  LEU91       0.0297
     94  CG         5.7100   -2.2920   -4.3170 C.3    91  LEU91       0.0022
     95  CD1        4.7670   -2.3680   -5.5370 C.3    91  LEU91       0.0001
     96  CD2        5.2100   -3.2170   -3.2490 C.3    91  LEU91       0.0001
     97  N          3.4320    5.6320   -2.0520 N.3   122  PHE122     -0.1241
     98  CA         3.4240    4.3480   -1.3330 C.3   122  PHE122      0.1605
     99  C          4.2350    4.4000   -0.0380 C.2   122  PHE122      0.2264
    100  O          3.8420    3.8200    0.9880 O.2   122  PHE122     -0.2867
    101  CB         3.9190    3.1960   -2.2370 C.3   122  PHE122      0.0534
    102  CG         4.2960    1.9120   -1.5080 C.ar  122  PHE122     -0.0203
    103  CD1        3.3290    1.1550   -0.8440 C.ar  122  PHE122     -0.0042
    104  CD2        5.6160    1.4570   -1.4980 C.ar  122  PHE122     -0.0042
    105  CE1        3.6780   -0.0310   -0.1570 C.ar  122  PHE122     -0.0003
    106  CE2        5.9660    0.2690   -0.8280 C.ar  122  PHE122     -0.0003
    107  CZ         5.0000   -0.4590   -0.1510 C.ar  122  PHE122     -0.0000
    108  N          2.9250   -6.7280    1.3080 N.3   134  VAL134     -0.1245
    109  CA         2.0470   -6.5110    0.1670 C.3   134  VAL134      0.1561
    110  C          1.8310   -7.8720   -0.4730 C.2   134  VAL134      0.2260
    111  O          2.7810   -8.4510   -0.9900 O.2   134  VAL134     -0.2867
    112  CB         2.6180   -5.4660   -0.8340 C.3   134  VAL134      0.0252
    113  CG1        1.7150   -5.3540   -2.0890 C.3   134  VAL134      0.0019
    114  CG2        2.7690   -4.0820   -0.1700 C.3   134  VAL134      0.0019
    115  N         -4.6800   -6.6570   -4.7530 N.3   168  THR168     -0.1218
    116  CA        -3.5260   -6.3970   -3.9100 C.3   168  THR168      0.1862
    117  C         -4.0260   -6.1150   -2.5450 C.2   168  THR168      0.2287
    118  O         -5.0490   -5.4460   -2.3740 O.2   168  THR168     -0.2866
    119  CB        -2.6840   -5.2030   -4.4790 C.3   168  THR168      0.1770
    120  OG1       -2.0890   -5.5900   -5.7350 O.3   168  THR168     -0.2211
    121  CG2       -1.5530   -4.7150   -3.4900 C.3   168  THR168      0.0375
    122  N         -2.5350   -4.7270    1.1810 N.3   170  VAL170     -0.1245
    123  CA        -1.4460   -4.0810    1.9120 C.3   170  VAL170      0.1561
    124  C         -1.7050   -4.2930    3.3950 C.2   170  VAL170      0.2260
    125  O         -2.7450   -3.8700    3.8920 O.2   170  VAL170     -0.2867
    126  CB        -1.3290   -2.5960    1.5390 C.3   170  VAL170      0.0252
    127  CG1       -0.1550   -1.9420    2.2680 C.3   170  VAL170      0.0019
    128  CG2       -1.1770   -2.4300    0.0090 C.3   170  VAL170      0.0019
@<TRIPOS>BOND
     1    43    44    1
     2    43    42    1
     3    39    38    2
     4    42    41    1
     5    41    40    1
     6    38    37    1
     7    60    58    1
     8    37    40    1
     9    37    36    1
    10    79    78   ar
    11    58    57    1
    12    80    78   ar
    13    78    77    1
    14    57    59    1
    15    57    54    1
    16    73    74    1
    17    87    86    2
    18    26    25    2
    19    88    86   am
    20    77    74    1
    21    54    55    1
    22    54    53    1
    23    74    75    1
    24    56    55    2
    25    34    33    2
    26    86    85    1
    27    55    61   am
    28    64    63    2
    29    25    24    1
    30    25    31   am
    31    33    32    1
    32    67    66    1
    33    67    68    2
    34    75    76    2
    35    24    27    1
    36    24    23    1
    37    27    28    1
    38    32    31    1
    39    32    35    1
    40    66    65    1
    41    66    69    1
    42    29    28   ar
    43    28    30   ar
    44    63    65   am
    45    63    62    1
    46    61    62    1
    47    85    82    1
    48    81    82    1
    49    82    83    1
    50    69    70    1
    51    70    71    1
    52    83    84    2
    53    83    89   am
    54    71    72    1
    55    20    19    2
    56    12    11    2
    57    89    90    1
    58    19    18    1
    59    11    10    1
    60    11    17   am
    61    15    14    2
    62   120   119    1
    63    10     9    1
    64    10    13    1
    65    51    50   ar
    66    95    94    1
    67    90    91    1
    68    90    93    1
    69    18    17    1
    70    18    21    1
    71    14    13    1
    72    14    16   am
    73    91    92    2
    74   115   116    1
    75    93    94    1
    76    50    52   ar
    77    50    49    1
    78   119   116    1
    79   119   121    1
    80    47    48    2
    81    47    46    1
    82    94    96    1
    83    49    46    1
    84    21    22    1
    85   116   117    1
    86    46    45    1
    87   117   118    2
    88   101   102    1
    89   101    98    1
    90     4     3    2
    91   113   112    1
    92    97    98    1
    93   102   104   ar
    94   102   103   ar
    95   104   106   ar
    96    98    99    1
    97     3     2    1
    98   111   110    2
    99   103   105   ar
   100   112   114    1
   101   112   109    1
   102   106   107   ar
   103   110   109    1
   104     2     1    1
   105     2     5    1
   106   105   107   ar
   107    99   100    2
   108   128   126    1
   109   109   108    1
   110     8     6    1
   111     5     6    1
   112   122   123    1
   113   126   123    1
   114   126   127    1
   115     6     7    1
   116   123   124    1
   117   124   125    2
