@<TRIPOS>MOLECULE
tmp/2xjlA00.pdb
 83 78 0 0 0
SMALL
GASTEIGER

@<TRIPOS>ATOM
      1  N        -24.9580   -9.4630   16.4930 N.3    67  LEU67      -0.1245
      2  CA       -25.2550  -10.2010   17.7310 C.3    67  LEU67       0.1561
      3  C        -25.4450   -9.2970   18.9520 C.2    67  LEU67       0.2260
      4  O        -25.5490   -9.7850   20.0890 O.2    67  LEU67      -0.2867
      5  CB       -24.1670  -11.2540   17.9970 C.3    67  LEU67       0.0270
      6  CG       -23.9260  -12.2850   16.8850 C.3    67  LEU67       0.0019
      7  CD1      -22.7090  -13.1550   17.1820 C.3    67  LEU67       0.0001
      8  CD2      -25.1690  -13.1400   16.6600 C.3    67  LEU67       0.0001
      9  N        -23.6540   -7.0830   20.7010 N.3    69  ARG69      -0.1245
     10  CA       -22.6470   -7.1790   21.7460 C.3    69  ARG69       0.1563
     11  C        -22.0240   -5.8120   21.9660 C.2    69  ARG69       0.2260
     12  O        -22.3100   -4.8620   21.2320 O.2    69  ARG69      -0.2867
     13  CB       -21.5420   -8.1470   21.3360 C.3    69  ARG69       0.0307
     14  CG       -22.0440   -9.4810   20.8000 C.3    69  ARG69       0.0489
     15  CD       -22.9170  -10.2070   21.8050 C.3    69  ARG69       0.2205
     16  NE       -22.1250  -10.7470   22.9020 N.pl3  69  ARG69      -0.0865
     17  CZ       -22.6510  -11.1820   24.0400 C.cat  69  ARG69       0.5346
     18  NH1      -23.9570  -11.1190   24.2170 N.pl3  69  ARG69       0.1354
     19  NH2      -21.8700  -11.6680   24.9930 N.pl3  69  ARG69       0.1354
     20  N        -10.2130   -7.6610   18.8640 N.3    74  PRO74      -0.2102
     21  CA       -10.4950   -8.8650   18.0780 C.3    74  PRO74       0.1504
     22  C        -10.3550  -10.1550   18.8710 C.2    74  PRO74       0.2576
     23  O        -11.0270  -11.1380   18.5490 O.2    74  PRO74      -0.2718
     24  CB        -9.4700   -8.7930   16.9410 C.3    74  PRO74       0.0282
     25  CG        -8.4140   -7.9020   17.4450 C.3    74  PRO74       0.0208
     26  CD        -9.0960   -6.8980   18.2980 C.3    74  PRO74       0.0893
     27  N         -9.5030  -10.1670   19.8940 N.am   75  LYS75      -0.1966
     28  CA        -9.3050  -11.3810   20.6750 C.3    75  LYS75       0.1728
     29  C        -10.1480  -11.4520   21.9420 C.2    75  LYS75       0.2616
     30  O        -10.0740  -12.4460   22.6750 O.2    75  LYS75      -0.2715
     31  CB        -7.8170  -11.5650   20.9960 C.3    75  LYS75       0.0311
     32  CG        -6.9180  -11.6970   19.7440 C.3    75  LYS75       0.0038
     33  CD        -7.3180  -12.8750   18.8160 C.3    75  LYS75       0.0206
     34  CE        -6.8610  -12.6660   17.3750 C.3    75  LYS75       0.1093
     35  NZ        -7.4670  -13.6740   16.4380 N.3    75  LYS75      -0.1314
     36  N        -10.9620  -10.4220   22.1840 N.am   76  ASP76      -0.1957
     37  CA       -11.9010  -10.4260   23.3080 C.3    76  ASP76       0.1840
     38  C        -13.1240  -11.2800   23.0180 C.2    76  ASP76       0.2621
     39  O        -13.6190  -11.3200   21.8870 O.2    76  ASP76      -0.2715
     40  CB       -12.3570   -9.0100   23.6510 C.3    76  ASP76       0.1450
     41  CG       -11.2650   -8.1840   24.2720 C.2    76  ASP76       0.3671
     42  OD1      -10.4380   -8.7510   25.0390 O.co2  76  ASP76      -0.2456
     43  OD2      -11.2400   -6.9650   24.0070 O.co2  76  ASP76      -0.2456
     44  N        -13.6260  -11.9320   24.0640 N.am   77  GLU77      -0.1977
     45  CA       -14.8200  -12.7510   23.9610 C.3    77  GLU77       0.1602
     46  C        -16.0300  -11.8800   23.6540 C.2    77  GLU77       0.2287
     47  O        -16.8610  -12.2440   22.8260 O.2    77  GLU77      -0.2864
     48  CB       -15.0460  -13.5260   25.2550 C.3    77  GLU77       0.0415
     49  CG       -13.9240  -14.4990   25.5880 C.3    77  GLU77       0.1163
     50  CD       -14.1500  -15.2470   26.9000 C.2    77  GLU77       0.3649
     51  OE1      -14.9820  -14.8080   27.7270 O.co2  77  GLU77      -0.2457
     52  OE2      -13.4880  -16.2770   27.1100 O.co2  77  GLU77      -0.2457
     53  N        -17.2070   -8.7850   21.7800 N.3    79  ARG79      -0.1245
     54  CA       -16.8390   -7.8770   20.7020 C.3    79  ARG79       0.1563
     55  C        -17.9280   -7.8490   19.6500 C.2    79  ARG79       0.2260
     56  O        -18.7550   -8.7600   19.5770 O.2    79  ARG79      -0.2867
     57  CB       -15.5380   -8.3330   20.0280 C.3    79  ARG79       0.0307
     58  CG       -15.5820   -9.7600   19.4740 C.3    79  ARG79       0.0489
     59  CD       -14.3860  -10.0620   18.5730 C.3    79  ARG79       0.2205
     60  NE       -14.6540   -9.7310   17.1660 N.pl3  79  ARG79      -0.0865
     61  CZ       -13.8910  -10.0930   16.1400 C.cat  79  ARG79       0.5346
     62  NH1      -12.7750  -10.7910   16.3350 N.pl3  79  ARG79       0.1354
     63  NH2      -14.2400   -9.7540   14.9070 N.pl3  79  ARG79       0.1354
     64  N        -18.8930   -8.1470   15.6770 N.3    81  VAL81      -0.1245
     65  CA       -18.3560   -8.9110   14.5640 C.3    81  VAL81       0.1561
     66  C        -17.3250   -8.0380   13.8310 C.2    81  VAL81       0.2260
     67  O        -16.2680   -8.5290   13.4260 O.2    81  VAL81      -0.2867
     68  CB       -19.4850   -9.4320   13.6070 C.3    81  VAL81       0.0252
     69  CG1      -18.9130   -9.9670   12.2660 C.3    81  VAL81       0.0019
     70  CG2      -20.3320  -10.5260   14.3050 C.3    81  VAL81       0.0019
     71  N        -11.6070  -15.2360   13.5760 N.3   102  SER102     -0.1202
     72  CA       -12.5370  -16.3450   13.7560 C.3   102  SER102      0.2020
     73  C        -14.0030  -15.9060   13.8250 C.2   102  SER102      0.2618
     74  O        -14.9000  -16.7420   13.8310 O.2   102  SER102     -0.2717
     75  CB       -12.2140  -17.1230   15.0350 C.3   102  SER102      0.2103
     76  OG       -10.9800  -17.7900   14.9370 O.3   102  SER102     -0.2182
     77  N        -14.2590  -14.6090   13.9040 N.am  103  VAL103     -0.1979
     78  CA       -15.6260  -14.1320   14.0900 C.3   103  VAL103      0.1595
     79  C        -16.2790  -13.6080   12.7970 C.2   103  VAL103      0.2287
     80  O        -17.4390  -13.8960   12.5170 O.2   103  VAL103     -0.2864
     81  CB       -15.6590  -13.0810   15.2020 C.3   103  VAL103      0.0276
     82  CG1      -17.0410  -12.4270   15.3140 C.3   103  VAL103      0.0022
     83  CG2      -15.2260  -13.7390   16.5220 C.3   103  VAL103      0.0022
@<TRIPOS>BOND
     1    69    68    1
     2    80    79    2
     3    79    78    1
     4    67    66    2
     5    71    72    1
     6    68    70    1
     7    68    65    1
     8    72    73    1
     9    72    75    1
    10    73    74    2
    11    73    77   am
    12    66    65    1
    13    77    78    1
    14    78    81    1
    15    65    64    1
    16    63    61    1
    17    76    75    1
    18    81    82    1
    19    81    83    1
    20    61    62    1
    21    61    60    2
    22    35    34    1
    23     1     2    1
    24     8     6    1
    25     6     7    1
    26     6     5    1
    27    24    25    1
    28    24    21    1
    29    60    59    1
    30    34    33    1
    31    25    26    1
    32     2     5    1
    33     2     3    1
    34    21    20    1
    35    21    22    1
    36    26    20    1
    37    23    22    2
    38    59    58    1
    39    33    32    1
    40    22    27   am
    41     3     4    2
    42    58    57    1
    43    56    55    2
    44    55    54    1
    45    32    31    1
    46    27    28    1
    47    57    54    1
    48    28    31    1
    49    28    29    1
    50     9    10    1
    51    54    53    1
    52    14    13    1
    53    14    15    1
    54    12    11    2
    55    13    10    1
    56    10    11    1
    57    15    16    1
    58    39    38    2
    59    29    36   am
    60    29    30    2
    61    36    37    1
    62    47    46    2
    63    16    17    2
    64    38    37    1
    65    38    44   am
    66    37    40    1
    67    40    41    1
    68    46    45    1
    69    45    44    1
    70    45    48    1
    71    43    41   ar
    72    17    18    1
    73    17    19    1
    74    41    42   ar
    75    48    49    1
    76    49    50    1
    77    50    52   ar
    78    50    51   ar
