@<TRIPOS>MOLECULE
tmp/2xjpA01.pdb
 85 81 0 0 0
SMALL
GASTEIGER

@<TRIPOS>ATOM
      1  N         30.6920   72.1760   25.2640 N.3    63  GLN63      -0.1245
      2  CA        32.0280   72.3240   25.8110 C.3    63  GLN63       0.1566
      3  C         33.0400   71.4850   25.0430 C.2    63  GLN63       0.2260
      4  O         32.9050   70.2590   24.9480 O.2    63  GLN63      -0.2867
      5  CB        32.0440   71.9010   27.2880 C.3    63  GLN63       0.0367
      6  CG        31.0850   72.7550   28.1240 C.3    63  GLN63       0.0905
      7  CD        31.4110   74.2210   28.0820 C.2    63  GLN63       0.2608
      8  OE1       32.5160   74.5880   28.4810 O.2    63  GLN63      -0.2717
      9  NE2       30.5000   75.0510   27.6290 N.am   63  GLN63      -0.0878
     10  N         36.6340   72.2000   25.5230 N.3    65  ASP65      -0.1239
     11  CA        37.8070   72.1590   26.3820 C.3    65  ASP65       0.1674
     12  C         37.3660   71.4620   27.6550 C.2    65  ASP65       0.2266
     13  O         36.5270   72.0070   28.3940 O.2    65  ASP65      -0.2867
     14  CB        38.3040   73.5700   26.6600 C.3    65  ASP65       0.1410
     15  CG        38.7630   74.3090   25.4200 C.2    65  ASP65       0.3668
     16  OD1       39.8230   73.9560   24.8920 O.co2  65  ASP65      -0.2456
     17  OD2       38.1060   75.2740   24.9770 O.co2  65  ASP65      -0.2456
     18  N         39.3880   69.2780   30.0020 N.3    67  SER67      -0.1202
     19  CA        40.2100   68.9200   31.1480 C.3    67  SER67       0.2020
     20  C         39.8270   69.7430   32.3720 C.2    67  SER67       0.2619
     21  O         39.3360   70.8680   32.2890 O.2    67  SER67      -0.2717
     22  CB        41.6810   69.1360   30.8370 C.3    67  SER67       0.2103
     23  OG        42.0940   68.1320   29.9160 O.3    67  SER67      -0.2182
     24  N         40.1080   69.1630   33.5300 N.am   68  ILE68      -0.1965
     25  CA        39.8340   69.8510   34.7980 C.3    68  ILE68       0.1727
     26  C         41.1390   70.1180   35.5000 C.2    68  ILE68       0.2616
     27  O         42.0190   69.2660   35.6200 O.2    68  ILE68      -0.2715
     28  CB        38.9030   69.0020   35.6500 C.3    68  ILE68       0.0290
     29  CG1       37.5870   68.8980   34.8790 C.3    68  ILE68       0.0022
     30  CG2       38.6880   69.6240   37.0800 C.3    68  ILE68       0.0023
     31  CD1       36.7280   67.8150   35.4490 C.3    68  ILE68       0.0001
     32  N         41.2450   71.3450   35.9690 N.am   69  ASP69      -0.1971
     33  CA        42.4130   71.7930   36.7570 C.3    69  ASP69       0.1709
     34  C         41.9270   72.8540   37.7210 C.2    69  ASP69       0.2293
     35  O         42.0400   74.0480   37.4750 O.2    69  ASP69      -0.2864
     36  CB        43.5370   72.3390   35.8710 C.3    69  ASP69       0.1436
     37  CG        44.7350   72.7350   36.6610 C.2    69  ASP69       0.3671
     38  OD1       44.8660   72.3990   37.8160 O.co2  69  ASP69      -0.2456
     39  OD2       45.5660   73.4500   36.0760 O.co2  69  ASP69      -0.2456
     40  N         33.2890   79.3660   39.2600 N.3   111  THR111     -0.1203
     41  CA        32.8880   78.9870   37.9090 C.3   111  THR111      0.1994
     42  C         33.9780   78.2310   37.1350 C.2   111  THR111      0.2618
     43  O         33.8480   78.0370   35.9310 O.2   111  THR111     -0.2717
     44  CB        32.5090   80.2540   37.1150 C.3   111  THR111      0.1784
     45  OG1       33.6490   81.1320   37.1300 O.3   111  THR111     -0.2211
     46  CG2       31.2530   80.9060   37.6400 C.3   111  THR111      0.0376
     47  N         35.0260   77.7870   37.8190 N.am  112  ASP112     -0.1959
     48  CA        36.1500   77.1140   37.1740 C.3   112  ASP112      0.1840
     49  C         35.7270   75.9340   36.2840 C.2   112  ASP112      0.2622
     50  O         36.3800   75.6740   35.2750 O.2   112  ASP112     -0.2715
     51  CB        37.1290   76.6230   38.2300 C.3   112  ASP112      0.1450
     52  CG        38.4490   76.1880   37.6180 C.2   112  ASP112      0.3671
     53  OD1       38.7070   74.9720   37.6850 O.co2 112  ASP112     -0.2456
     54  OD2       39.1080   77.0570   37.0030 O.co2 112  ASP112     -0.2456
     55  N         34.7210   75.1890   36.6990 N.am  113  LEU113     -0.1963
     56  CA        34.2640   74.0290   35.9270 C.3   113  LEU113      0.1728
     57  C         33.2580   74.5100   34.8980 C.2   113  LEU113      0.2616
     58  O         32.0560   74.6210   35.1540 O.2   113  LEU113     -0.2715
     59  CB        33.6770   72.9760   36.8340 C.3   113  LEU113      0.0311
     60  CG        34.5850   72.4910   37.9840 C.3   113  LEU113      0.0022
     61  CD1       33.8240   71.5080   38.8470 C.3   113  LEU113      0.0001
     62  CD2       35.8700   71.8990   37.4940 C.3   113  LEU113      0.0001
     63  N         33.7300   74.7950   33.6860 N.am  114  PHE114     -0.1960
     64  CA        32.8360   75.0140   32.5230 C.3   114  PHE114      0.1771
     65  C         32.0000   76.2870   32.5970 C.2   114  PHE114      0.2620
     66  O         31.0570   76.4330   31.8430 O.2   114  PHE114     -0.2715
     67  CB        32.0000   73.7610   32.2020 C.3   114  PHE114      0.0574
     68  CG        32.8310   72.5290   32.0250 C.ar  114  PHE114     -0.0200
     69  CD1       33.4920   72.3260   30.8470 C.ar  114  PHE114     -0.0042
     70  CD2       32.9690   71.6040   33.0440 C.ar  114  PHE114     -0.0042
     71  CE1       34.2510   71.1920   30.6210 C.ar  114  PHE114     -0.0003
     72  CE2       33.7720   70.5100   32.8680 C.ar  114  PHE114     -0.0003
     73  CZ        34.4090   70.2840   31.6420 C.ar  114  PHE114     -0.0000
     74  N         32.3670   77.2300   33.4660 N.am  115  GLY115     -0.1954
     75  CA        31.6020   78.4380   33.6510 C.3   115  GLY115      0.1869
     76  C         30.3920   78.2820   34.5550 C.2   115  GLY115      0.2309
     77  O         29.6840   79.2610   34.7870 O.2   115  GLY115     -0.2863
     78  N         43.2640   68.2260   26.0760 N.3   232  ASP232     -0.1239
     79  CA        42.4570   69.2670   26.7400 C.3   232  ASP232      0.1674
     80  C         41.3960   69.8820   25.8360 C.2   232  ASP232      0.2266
     81  O         40.2080   69.8330   26.1620 O.2   232  ASP232     -0.2867
     82  CB        43.3610   70.3300   27.3980 C.3   232  ASP232      0.1410
     83  CG        44.5810   69.7330   28.1610 C.2   232  ASP232      0.3668
     84  OD1       44.4480   68.9140   29.1280 O.co2 232  ASP232     -0.2456
     85  OD2       45.7280   70.1370   27.8200 O.co2 232  ASP232     -0.2456
@<TRIPOS>BOND
     1    16    15   ar
     2     4     3    2
     3    17    15   ar
     4     3     2    1
     5     1     2    1
     6    15    14    1
     7    10    11    1
     8     2     5    1
     9    80    81    2
    10    80    79    1
    11    78    79    1
    12    11    14    1
    13    11    12    1
    14    79    82    1
    15     5     6    1
    16    82    83    1
    17     9     7   am
    18    12    13    2
    19    85    83   ar
    20     7     6    1
    21     7     8    2
    22    83    84   ar
    23    23    22    1
    24    18    19    1
    25    71    69   ar
    26    71    73   ar
    27    22    19    1
    28    69    68   ar
    29    19    20    1
    30    73    72   ar
    31    66    65    2
    32    68    67    1
    33    68    70   ar
    34    67    64    1
    35    21    20    2
    36    20    24   am
    37    64    65    1
    38    64    63    1
    39    65    74   am
    40    72    70   ar
    41    74    75    1
    42    24    25    1
    43    75    76    1
    44    63    57   am
    45    76    77    2
    46    25    26    1
    47    25    28    1
    48    29    31    1
    49    29    28    1
    50    57    58    2
    51    57    56    1
    52    50    49    2
    53    26    27    2
    54    26    32   am
    55    28    30    1
    56    36    37    1
    57    36    33    1
    58    56    55    1
    59    56    59    1
    60    43    42    2
    61    32    33    1
    62    39    37   ar
    63    49    55   am
    64    49    48    1
    65    37    38   ar
    66    33    34    1
    67    59    60    1
    68    54    52   ar
    69    44    45    1
    70    44    46    1
    71    44    41    1
    72    42    47   am
    73    42    41    1
    74    48    47    1
    75    48    51    1
    76    35    34    2
    77    62    60    1
    78    52    53   ar
    79    52    51    1
    80    41    40    1
    81    60    61    1
