@<TRIPOS>MOLECULE
tmp/2xjrA00.pdb
 95 90 0 0 0
SMALL
GASTEIGER

@<TRIPOS>ATOM
      1  N         34.3240   66.0390   51.6420 N.3    35  LYS35      -0.1245
      2  CA        35.0870   65.0800   52.4380 C.3    35  LYS35       0.1561
      3  C         34.4910   63.6770   52.5110 C.2    35  LYS35       0.2260
      4  O         34.9200   62.8580   53.3110 O.2    35  LYS35      -0.2867
      5  CB        35.4820   65.6630   53.7840 C.3    35  LYS35       0.0271
      6  CG        36.5400   66.7620   53.6290 C.3    35  LYS35       0.0035
      7  CD        36.8550   67.5460   54.8750 C.3    35  LYS35       0.0206
      8  CE        35.6410   68.2310   55.4360 C.3    35  LYS35       0.1093
      9  NZ        36.0230   69.1960   56.4890 N.3    35  LYS35      -0.1314
     10  N         48.7360   73.1720   43.3930 N.3    84  GLN84      -0.1245
     11  CA        48.9820   72.2560   44.4950 C.3    84  GLN84       0.1566
     12  C         50.4550   72.0560   44.8060 C.2    84  GLN84       0.2260
     13  O         50.8600   71.9380   45.9580 O.2    84  GLN84      -0.2867
     14  CB        48.2610   70.9160   44.2540 C.3    84  GLN84       0.0367
     15  CG        48.2070   70.0620   45.5210 C.3    84  GLN84       0.0905
     16  CD        47.3310   68.8130   45.4230 C.2    84  GLN84       0.2608
     17  OE1       47.1460   68.1080   46.4070 O.2    84  GLN84      -0.2717
     18  NE2       46.8390   68.5130   44.2390 N.am   84  GLN84      -0.0878
     19  N         53.9390   73.7320   53.9360 N.3    89  GLY89      -0.1210
     20  CA        53.7010   74.0350   55.3410 C.3    89  GLY89       0.1956
     21  C         52.2630   73.7740   55.7360 C.2    89  GLY89       0.2611
     22  O         51.6050   72.8360   55.2570 O.2    89  GLY89      -0.2717
     23  N         51.7650   74.5830   56.6630 N.am   90  ASN90      -0.1974
     24  CA        50.4530   74.3780   57.2280 C.3    90  ASN90       0.1688
     25  C         49.5480   75.6150   57.3020 C.2    90  ASN90       0.2292
     26  O         48.9990   75.8960   58.3730 O.2    90  ASN90      -0.2864
     27  CB        50.6060   73.7990   58.6280 C.3    90  ASN90       0.1181
     28  CG        49.4430   72.9330   58.9890 C.2    90  ASN90       0.2629
     29  OD1       48.5270   72.6710   58.2070 O.2    90  ASN90      -0.2716
     30  ND2       49.4720   72.4790   60.2230 N.am   90  ASN90      -0.0877
     31  N         42.0560   74.4670   54.0530 N.3   103  GLN103     -0.1231
     32  CA        42.0070   73.5410   52.9460 C.3   103  GLN103      0.1698
     33  C         40.8330   72.5760   53.0070 C.2   103  GLN103      0.2592
     34  O         40.5920   71.8240   52.0590 O.2   103  GLN103     -0.2718
     35  CB        43.2850   72.6990   52.8500 C.3   103  GLN103      0.0381
     36  CG        44.5440   73.4740   52.5760 C.3   103  GLN103      0.0905
     37  CD        45.7130   72.5340   52.2350 C.2   103  GLN103      0.2608
     38  OE1       45.5580   71.3440   51.9650 O.2   103  GLN103     -0.2717
     39  NE2       46.8910   73.1220   52.1180 N.am  103  GLN103     -0.0878
     40  N         40.0900   72.5710   54.1060 N.am  104  GLY104     -0.1957
     41  CA        39.0560   71.5960   54.3710 C.3   104  GLY104      0.1869
     42  C         37.6110   72.0440   54.2710 C.2   104  GLY104      0.2309
     43  O         36.7410   71.2870   54.6650 O.2   104  GLY104     -0.2863
     44  N         42.3650   63.2590   40.4420 N.3   146  ASP146     -0.1225
     45  CA        42.1270   63.7270   41.8070 C.3   146  ASP146      0.1805
     46  C         40.7030   64.2780   41.8190 C.2   146  ASP146      0.2597
     47  O         40.4800   65.3840   41.2460 O.2   146  ASP146     -0.2718
     48  CB        43.1420   64.8140   42.1890 C.3   146  ASP146      0.1424
     49  CG        42.9200   65.3730   43.5950 C.2   146  ASP146      0.3668
     50  OD1       41.8140   65.2410   44.1250 O.co2 146  ASP146     -0.2456
     51  OD2       43.8350   66.0270   44.1390 O.co2 146  ASP146     -0.2456
     52  N         39.6900   63.5450   42.3130 N.am  147  ASP147     -0.1974
     53  CA        39.8060   62.3370   43.1380 C.3   147  ASP147      0.1709
     54  C         39.4600   61.0330   42.4130 C.2   147  ASP147      0.2293
     55  O         40.1110   60.0160   42.6760 O.2   147  ASP147     -0.2864
     56  CB        38.9240   62.4770   44.3830 C.3   147  ASP147      0.1436
     57  CG        39.5590   63.3470   45.4500 C.2   147  ASP147      0.3671
     58  OD1       40.5480   62.8800   46.0540 O.co2 147  ASP147     -0.2456
     59  OD2       39.0860   64.4750   45.6540 O.co2 147  ASP147     -0.2456
     60  N         38.7690   55.8850   42.4770 N.3   180  LYS180     -0.1245
     61  CA        39.6150   55.9610   43.6730 C.3   180  LYS180      0.1561
     62  C         39.5700   54.6340   44.4070 C.2   180  LYS180      0.2260
     63  O         38.4860   54.2460   44.8400 O.2   180  LYS180     -0.2867
     64  CB        39.0800   57.0360   44.6190 C.3   180  LYS180      0.0271
     65  CG        39.5510   56.9190   46.0670 C.3   180  LYS180      0.0035
     66  CD        39.4230   58.2450   46.8070 C.3   180  LYS180      0.0206
     67  CE        39.9190   58.0210   48.1890 C.3   180  LYS180      0.1093
     68  NZ        40.0300   59.2490   49.0040 N.3   180  LYS180     -0.1314
     69  N         37.3890   66.9690   48.0140 N.3   212  VAL212     -0.1231
     70  CA        37.9780   68.0190   48.8240 C.3   212  VAL212      0.1692
     71  C         39.0600   68.7150   48.0200 C.2   212  VAL212      0.2593
     72  O         39.7110   68.0990   47.1700 O.2   212  VAL212     -0.2718
     73  CB        38.4980   67.4960   50.1580 C.3   212  VAL212      0.0266
     74  CG1       39.6870   66.5950   49.9450 C.3   212  VAL212      0.0020
     75  CG2       38.7550   68.6150   51.1810 C.3   212  VAL212      0.0020
     76  N         39.2870   69.9800   48.3310 N.am  213  SER213     -0.1938
     77  CA        40.3530   70.7940   47.8440 C.3   213  SER213      0.2055
     78  C         40.5980   70.6360   46.3210 C.2   213  SER213      0.2643
     79  O         39.6900   70.8850   45.5380 O.2   213  SER213     -0.2714
     80  CB        41.5930   70.7270   48.7420 C.3   213  SER213      0.2130
     81  OG        42.1900   69.4410   48.7290 O.3   213  SER213     -0.2179
     82  N         41.8280   70.3730   45.9330 N.am  214  TRP214     -0.1973
     83  CA        42.2150   70.3560   44.5100 C.3   214  TRP214      0.1640
     84  C         41.4650   69.3220   43.6950 C.2   214  TRP214      0.2290
     85  O         41.0910   68.2560   44.1830 O.2   214  TRP214     -0.2864
     86  CB        43.7340   70.1480   44.4140 C.3   214  TRP214      0.0576
     87  CG        44.5450   71.3310   44.8440 C.ar  214  TRP214      0.0006
     88  CD1       44.9550   72.3240   44.0180 C.ar  214  TRP214      0.0946
     89  CD2       45.0770   71.6560   46.1460 C.ar  214  TRP214      0.0152
     90  NE1       45.6440   73.2910   44.7070 N.ar  214  TRP214     -0.2442
     91  CE2       45.7520   72.8980   46.0180 C.ar  214  TRP214      0.0810
     92  CE3       45.0190   71.0480   47.4040 C.ar  214  TRP214      0.0012
     93  CZ2       46.3660   73.5170   47.0890 C.ar  214  TRP214      0.0191
     94  CZ3       45.6820   71.6860   48.4650 C.ar  214  TRP214      0.0001
     95  CH2       46.3390   72.8740   48.2710 C.ar  214  TRP214      0.0015
@<TRIPOS>BOND
     1    44    45    1
     2    47    46    2
     3    45    46    1
     4    45    48    1
     5    46    52   am
     6    48    49    1
     7    52    53    1
     8    54    55    2
     9    54    53    1
    10    60    61    1
    11    53    56    1
    12    10    11    1
    13    49    50   ar
    14    49    51   ar
    15    61    62    1
    16    61    64    1
    17    84    85    2
    18    84    83    1
    19    88    90   ar
    20    88    87   ar
    21    18    16   am
    22    14    11    1
    23    14    15    1
    24    56    57    1
    25    62    63    2
    26    86    83    1
    27    86    87    1
    28    11    12    1
    29    83    82    1
    30    64    65    1
    31    90    91   ar
    32    12    13    2
    33    87    89   ar
    34    16    15    1
    35    16    17    2
    36    57    59   ar
    37    57    58   ar
    38    79    78    2
    39    82    78   am
    40    91    89   ar
    41    91    93   ar
    42    65    66    1
    43    89    92   ar
    44    78    77    1
    45    66    67    1
    46    93    95   ar
    47    72    71    2
    48    92    94   ar
    49    77    76    1
    50    77    80    1
    51    69    70    1
    52    71    76   am
    53    71    70    1
    54    67    68    1
    55    95    94   ar
    56    81    80    1
    57    70    73    1
    58    74    73    1
    59    73    75    1
    60     1     2    1
    61    38    37    2
    62    34    33    2
    63    39    37   am
    64    37    36    1
    65     2     3    1
    66     2     5    1
    67     3     4    2
    68    36    35    1
    69    35    32    1
    70    32    33    1
    71    32    31    1
    72    33    40   am
    73     6     5    1
    74     6     7    1
    75    19    20    1
    76    40    41    1
    77    42    41    1
    78    42    43    2
    79     7     8    1
    80    22    21    2
    81    20    21    1
    82     8     9    1
    83    21    23   am
    84    23    24    1
    85    24    25    1
    86    24    27    1
    87    25    26    2
    88    29    28    2
    89    27    28    1
    90    28    30   am
