@<TRIPOS>MOLECULE
tmp/2xjsA00.pdb
 95 91 0 0 0
SMALL
GASTEIGER

@<TRIPOS>ATOM
      1  N         34.2850   66.0970   51.7030 N.3    36  LYS36      -0.1245
      2  CA        35.0670   65.1290   52.4860 C.3    36  LYS36       0.1561
      3  C         34.4900   63.7190   52.5560 C.2    36  LYS36       0.2260
      4  O         34.9180   62.9230   53.3840 O.2    36  LYS36      -0.2867
      5  CB        35.4720   65.7080   53.8510 C.3    36  LYS36       0.0271
      6  CG        36.4560   66.8700   53.7190 C.3    36  LYS36       0.0035
      7  CD        36.8510   67.6410   54.9690 C.3    36  LYS36       0.0206
      8  CE        35.6400   68.3810   55.4970 C.3    36  LYS36       0.1093
      9  NZ        35.9530   69.3350   56.5840 N.3    36  LYS36      -0.1314
     10  N         32.4980   57.8390   45.9920 N.3    41  TYR41      -0.1241
     11  CA        33.1380   57.8250   44.6760 C.3    41  TYR41       0.1605
     12  C         34.0510   56.6400   44.3920 C.2    41  TYR41       0.2264
     13  O         34.6840   56.5890   43.3380 O.2    41  TYR41      -0.2867
     14  CB        33.8710   59.1550   44.4740 C.3    41  TYR41       0.0534
     15  CG        35.0090   59.5420   45.3940 C.ar   41  TYR41      -0.0201
     16  CD1       35.3670   60.8730   45.5380 C.ar   41  TYR41      -0.0009
     17  CD2       35.7300   58.6270   46.1630 C.ar   41  TYR41      -0.0009
     18  CE1       36.4060   61.2630   46.3770 C.ar   41  TYR41       0.0417
     19  CE2       36.7560   59.0010   47.0150 C.ar   41  TYR41       0.0417
     20  CZ        37.1190   60.3390   47.1210 C.ar   41  TYR41       0.1957
     21  OH        38.1520   60.7520   47.9510 O.3    41  TYR41      -0.2866
     22  N         48.6730   73.2300   43.4660 N.3    85  GLN85      -0.1245
     23  CA        48.8800   72.3310   44.5960 C.3    85  GLN85       0.1566
     24  C         50.3660   72.1200   44.8900 C.2    85  GLN85       0.2260
     25  O         50.7850   72.0050   46.0380 O.2    85  GLN85      -0.2867
     26  CB        48.1850   70.9960   44.3580 C.3    85  GLN85       0.0367
     27  CG        48.1440   70.0930   45.6040 C.3    85  GLN85       0.0905
     28  CD        47.2580   68.8390   45.5320 C.2    85  GLN85       0.2608
     29  OE1       47.0680   68.2010   46.5770 O.2    85  GLN85      -0.2717
     30  NE2       46.7580   68.4550   44.3520 N.am   85  GLN85      -0.0878
     31  N         42.0120   74.6100   54.0820 N.3   104  GLN104     -0.1231
     32  CA        41.9510   73.6810   52.9620 C.3   104  GLN104      0.1698
     33  C         40.7630   72.7350   53.0310 C.2   104  GLN104      0.2592
     34  O         40.5130   71.9880   52.0690 O.2   104  GLN104     -0.2718
     35  CB        43.2230   72.8460   52.8710 C.3   104  GLN104      0.0381
     36  CG        44.5040   73.5610   52.6100 C.3   104  GLN104      0.0905
     37  CD        45.6840   72.6290   52.2980 C.2   104  GLN104      0.2608
     38  OE1       45.4950   71.4380   52.0590 O.2   104  GLN104     -0.2717
     39  NE2       46.8760   73.1900   52.2280 N.am  104  GLN104     -0.0878
     40  N         40.0330   72.7140   54.1410 N.am  105  GLY105     -0.1957
     41  CA        38.9990   71.7190   54.4010 C.3   105  GLY105      0.1869
     42  C         37.5590   72.1560   54.2750 C.2   105  GLY105      0.2309
     43  O         36.6880   71.4010   54.7090 O.2   105  GLY105     -0.2863
     44  N         42.3540   63.3360   40.5080 N.3   147  ASP147     -0.1225
     45  CA        42.1040   63.8300   41.8480 C.3   147  ASP147      0.1805
     46  C         40.6640   64.3540   41.8450 C.2   147  ASP147      0.2597
     47  O         40.4430   65.4450   41.3010 O.2   147  ASP147     -0.2718
     48  CB        43.1210   64.8930   42.2600 C.3   147  ASP147      0.1424
     49  CG        42.8980   65.4980   43.6530 C.2   147  ASP147      0.3668
     50  OD1       43.8070   66.1550   44.2110 O.co2 147  ASP147     -0.2456
     51  OD2       41.8120   65.3770   44.2200 O.co2 147  ASP147     -0.2456
     52  N         39.6810   63.6090   42.3820 N.am  148  ASP148     -0.1974
     53  CA        39.7870   62.3750   43.1880 C.3   148  ASP148      0.1709
     54  C         39.4430   61.0710   42.4740 C.2   148  ASP148      0.2293
     55  O         40.1280   60.0760   42.7370 O.2   148  ASP148     -0.2864
     56  CB        38.8910   62.5140   44.4310 C.3   148  ASP148      0.1436
     57  CG        39.5240   63.3830   45.5010 C.2   148  ASP148      0.3671
     58  OD1       40.5580   62.9750   46.1120 O.co2 148  ASP148     -0.2456
     59  OD2       39.0050   64.4950   45.7470 O.co2 148  ASP148     -0.2456
     60  N         38.7740   55.9490   42.5420 N.3   181  LYS181     -0.1245
     61  CA        39.6590   56.0180   43.7100 C.3   181  LYS181      0.1561
     62  C         39.6000   54.6860   44.4550 C.2   181  LYS181      0.2260
     63  O         38.5180   54.3040   44.8900 O.2   181  LYS181     -0.2867
     64  CB        39.2390   57.1790   44.6230 C.3   181  LYS181      0.0271
     65  CG        40.2490   57.4510   45.7470 C.3   181  LYS181      0.0035
     66  CD        41.2760   58.4370   45.2470 C.3   181  LYS181      0.0206
     67  CE        42.6300   58.4190   45.8860 C.3   181  LYS181      0.1093
     68  NZ        43.6680   58.8990   44.9130 N.3   181  LYS181     -0.1314
     69  N         37.3510   67.0290   48.1110 N.3   213  VAL213     -0.1231
     70  CA        37.9280   68.0890   48.9060 C.3   213  VAL213      0.1692
     71  C         39.0190   68.7780   48.0790 C.2   213  VAL213      0.2593
     72  O         39.6900   68.1890   47.2260 O.2   213  VAL213     -0.2718
     73  CB        38.4510   67.5790   50.2430 C.3   213  VAL213      0.0266
     74  CG1       39.6820   66.7240   50.0490 C.3   213  VAL213      0.0020
     75  CG2       38.6790   68.6690   51.2810 C.3   213  VAL213      0.0020
     76  N         39.2220   70.0470   48.4250 N.am  214  SER214     -0.1938
     77  CA        40.2800   70.9030   47.9000 C.3   214  SER214      0.2055
     78  C         40.5370   70.7240   46.3890 C.2   214  SER214      0.2643
     79  O         39.6250   70.9690   45.6010 O.2   214  SER214     -0.2714
     80  CB        41.5320   70.8490   48.7900 C.3   214  SER214      0.2130
     81  OG        42.1470   69.5690   48.7850 O.3   214  SER214     -0.2179
     82  N         41.7690   70.4360   45.9930 N.am  215  TRP215     -0.1973
     83  CA        42.1530   70.4720   44.5850 C.3   215  TRP215      0.1640
     84  C         41.4240   69.4340   43.7480 C.2   215  TRP215      0.2290
     85  O         41.0600   68.3720   44.2560 O.2   215  TRP215     -0.2864
     86  CB        43.6800   70.2640   44.4490 C.3   215  TRP215      0.0576
     87  CG        44.4760   71.4360   44.8930 C.ar  215  TRP215      0.0006
     88  CD1       44.8780   72.4560   44.0900 C.ar  215  TRP215      0.0946
     89  CD2       44.9930   71.7570   46.1950 C.ar  215  TRP215      0.0152
     90  NE1       45.5810   73.3900   44.7940 N.ar  215  TRP215     -0.2442
     91  CE2       45.6880   72.9700   46.0890 C.ar  215  TRP215      0.0810
     92  CE3       44.9500   71.1080   47.4330 C.ar  215  TRP215      0.0012
     93  CZ2       46.3100   73.5760   47.1750 C.ar  215  TRP215      0.0191
     94  CZ3       45.6130   71.7230   48.5330 C.ar  215  TRP215      0.0001
     95  CH2       46.2750   72.9370   48.3610 C.ar  215  TRP215      0.0015
@<TRIPOS>BOND
     1    44    45    1
     2    47    46    2
     3    46    45    1
     4    46    52   am
     5    45    48    1
     6    48    49    1
     7    52    53    1
     8    54    55    2
     9    54    53    1
    10    60    61    1
    11    53    56    1
    12    13    12    2
    13    22    23    1
    14    49    50   ar
    15    49    51   ar
    16    61    62    1
    17    61    64    1
    18    84    85    2
    19    84    83    1
    20    88    90   ar
    21    88    87   ar
    22    30    28   am
    23    26    23    1
    24    26    27    1
    25    12    11    1
    26    56    57    1
    27    86    83    1
    28    86    87    1
    29    62    63    2
    30    14    11    1
    31    14    15    1
    32    83    82    1
    33    23    24    1
    34    64    65    1
    35    11    10    1
    36    90    91   ar
    37    24    25    2
    38    87    89   ar
    39    68    67    1
    40    66    65    1
    41    66    67    1
    42    15    16   ar
    43    15    17   ar
    44    57    59   ar
    45    57    58   ar
    46    28    27    1
    47    28    29    2
    48    16    18   ar
    49    79    78    2
    50    82    78   am
    51    91    89   ar
    52    91    93   ar
    53    17    19   ar
    54    89    92   ar
    55    18    20   ar
    56    78    77    1
    57    19    20   ar
    58    20    21    1
    59    93    95   ar
    60    72    71    2
    61    92    94   ar
    62    77    76    1
    63    77    80    1
    64    71    76   am
    65    71    70    1
    66    69    70    1
    67    95    94   ar
    68    81    80    1
    69    70    73    1
    70    74    73    1
    71    73    75    1
    72     1     2    1
    73    38    37    2
    74    34    33    2
    75    39    37   am
    76    37    36    1
    77     2     3    1
    78     2     5    1
    79     3     4    2
    80    36    35    1
    81    35    32    1
    82    32    33    1
    83    32    31    1
    84    33    40   am
    85     6     5    1
    86     6     7    1
    87    40    41    1
    88    42    41    1
    89    42    43    2
    90     7     8    1
    91     8     9    1
