@<TRIPOS>MOLECULE
tmp/2xjtA00.pdb
 82 78 0 0 0
SMALL
GASTEIGER

@<TRIPOS>ATOM
      1  N         34.1750   66.1290   51.6260 N.3    36  LYS36      -0.1245
      2  CA        34.9780   65.1710   52.4190 C.3    36  LYS36       0.1561
      3  C         34.3810   63.7730   52.5080 C.2    36  LYS36       0.2260
      4  O         34.7860   62.9690   53.3320 O.2    36  LYS36      -0.2867
      5  CB        35.3850   65.7520   53.7760 C.3    36  LYS36       0.0271
      6  CG        36.4060   66.8850   53.6020 C.3    36  LYS36       0.0035
      7  CD        36.7390   67.6720   54.8630 C.3    36  LYS36       0.0206
      8  CE        35.5190   68.3650   55.4070 C.3    36  LYS36       0.1093
      9  NZ        35.8940   69.3470   56.4500 N.3    36  LYS36      -0.1314
     10  N         48.5150   73.2710   43.3620 N.3    85  GLN85      -0.1245
     11  CA        48.7450   72.3660   44.4830 C.3    85  GLN85       0.1566
     12  C         50.2320   72.1680   44.7650 C.2    85  GLN85       0.2260
     13  O         50.6550   72.0410   45.9130 O.2    85  GLN85      -0.2867
     14  CB        48.0190   71.0260   44.2800 C.3    85  GLN85       0.0367
     15  CG        47.9620   70.1370   45.5420 C.3    85  GLN85       0.0905
     16  CD        47.0690   68.8840   45.4250 C.2    85  GLN85       0.2608
     17  OE1       46.5720   68.5340   44.3430 O.2    85  GLN85      -0.2717
     18  NE2       46.8940   68.1870   46.5560 N.am   85  GLN85      -0.0878
     19  N         51.4510   74.7170   56.6460 N.3    91  ASN91      -0.1240
     20  CA        50.1450   74.5200   57.1910 C.3    91  ASN91       0.1653
     21  C         49.2730   75.7730   57.3070 C.2    91  ASN91       0.2266
     22  O         48.7270   76.0510   58.3710 O.2    91  ASN91      -0.2867
     23  CB        50.3440   73.8980   58.5450 C.3    91  ASN91       0.1155
     24  CG        49.1570   73.1820   58.9910 C.2    91  ASN91       0.2627
     25  OD1       48.2330   72.9450   58.2090 O.2    91  ASN91      -0.2716
     26  ND2       49.1510   72.8060   60.2470 N.am   91  ASN91      -0.0877
     27  N         41.9040   74.6380   54.0030 N.3   104  GLN104     -0.1231
     28  CA        41.8180   73.7030   52.8890 C.3   104  GLN104      0.1698
     29  C         40.6400   72.7300   52.9550 C.2   104  GLN104      0.2592
     30  O         40.4230   71.9490   52.0130 O.2   104  GLN104     -0.2718
     31  CB        43.0950   72.8610   52.7720 C.3   104  GLN104      0.0381
     32  CG        44.3710   73.6200   52.5360 C.3   104  GLN104      0.0905
     33  CD        45.5490   72.6940   52.2200 C.2   104  GLN104      0.2608
     34  OE1       45.3980   71.5080   51.9780 O.2   104  GLN104     -0.2717
     35  NE2       46.7300   73.2700   52.1670 N.am  104  GLN104     -0.0878
     36  N         39.9090   72.7270   54.0530 N.am  105  GLY105     -0.1957
     37  CA        38.8950   71.7230   54.3220 C.3   105  GLY105      0.1869
     38  C         37.4520   72.1760   54.2460 C.2   105  GLY105      0.2309
     39  O         36.5790   71.4210   54.6370 O.2   105  GLY105     -0.2863
     40  N         42.2630   63.3780   40.4700 N.3   147  ASP147     -0.1225
     41  CA        41.9970   63.8590   41.8270 C.3   147  ASP147      0.1805
     42  C         40.5620   64.3880   41.8330 C.2   147  ASP147      0.2597
     43  O         40.3470   65.4680   41.2670 O.2   147  ASP147     -0.2718
     44  CB        43.0090   64.9550   42.2320 C.3   147  ASP147      0.1424
     45  CG        42.7660   65.5320   43.6380 C.2   147  ASP147      0.3668
     46  OD1       43.6790   66.2060   44.1710 O.co2 147  ASP147     -0.2456
     47  OD2       41.6640   65.3370   44.1790 O.co2 147  ASP147     -0.2456
     48  N         39.5640   63.6530   42.3450 N.am  148  ASP148     -0.1974
     49  CA        39.6680   62.4330   43.1720 C.3   148  ASP148      0.1709
     50  C         39.3550   61.1070   42.4420 C.2   148  ASP148      0.2293
     51  O         40.0270   60.1020   42.7270 O.2   148  ASP148     -0.2864
     52  CB        38.7990   62.5590   44.4330 C.3   148  ASP148      0.1436
     53  CG        39.4250   63.4650   45.4450 C.2   148  ASP148      0.3671
     54  OD1       40.4130   63.0170   46.0940 O.co2 148  ASP148     -0.2456
     55  OD2       38.9180   64.5780   45.6860 O.co2 148  ASP148     -0.2456
     56  N         37.2190   67.0820   48.0130 N.3   213  VAL213     -0.1231
     57  CA        37.7850   68.1450   48.8050 C.3   213  VAL213      0.1692
     58  C         38.8780   68.8330   48.0130 C.2   213  VAL213      0.2593
     59  O         39.5430   68.2190   47.1740 O.2   213  VAL213     -0.2718
     60  CB        38.2930   67.6080   50.1780 C.3   213  VAL213      0.0266
     61  CG1       39.5050   66.7310   49.9990 C.3   213  VAL213      0.0020
     62  CG2       38.5470   68.7380   51.1660 C.3   213  VAL213      0.0020
     63  N         39.0860   70.0920   48.3250 N.am  214  SER214     -0.1938
     64  CA        40.1690   70.9270   47.8080 C.3   214  SER214      0.2055
     65  C         40.4170   70.7640   46.3050 C.2   214  SER214      0.2643
     66  O         39.5130   71.0180   45.5230 O.2   214  SER214     -0.2714
     67  CB        41.4060   70.8640   48.7160 C.3   214  SER214      0.2130
     68  OG        42.0080   69.5980   48.7240 O.3   214  SER214     -0.2179
     69  N         41.6400   70.4480   45.9250 N.am  215  TRP215     -0.1973
     70  CA        42.0260   70.4800   44.5120 C.3   215  TRP215      0.1640
     71  C         41.2990   69.4390   43.6830 C.2   215  TRP215      0.2290
     72  O         40.9470   68.3670   44.1720 O.2   215  TRP215     -0.2864
     73  CB        43.5510   70.2980   44.3790 C.3   215  TRP215      0.0576
     74  CG        44.3510   71.4760   44.8060 C.ar  215  TRP215      0.0006
     75  CD1       44.7490   72.4830   43.9980 C.ar  215  TRP215      0.0946
     76  CD2       44.8670   71.7850   46.1110 C.ar  215  TRP215      0.0152
     77  NE1       45.4250   73.4410   44.7090 N.ar  215  TRP215     -0.2442
     78  CE2       45.5360   73.0250   46.0080 C.ar  215  TRP215      0.0810
     79  CE3       44.8180   71.1460   47.3620 C.ar  215  TRP215      0.0012
     80  CZ2       46.1600   73.6310   47.0850 C.ar  215  TRP215      0.0191
     81  CZ3       45.4700   71.7830   48.4490 C.ar  215  TRP215      0.0001
     82  CH2       46.1220   72.9930   48.2780 C.ar  215  TRP215      0.0015
@<TRIPOS>BOND
     1    40    41    1
     2    43    42    2
     3    41    42    1
     4    41    44    1
     5    42    48   am
     6    44    45    1
     7    48    49    1
     8    50    51    2
     9    50    49    1
    10    49    52    1
    11    10    11    1
    12    45    46   ar
    13    45    47   ar
    14    71    72    2
    15    71    70    1
    16    75    77   ar
    17    75    74   ar
    18    14    11    1
    19    14    15    1
    20    17    16    2
    21    73    70    1
    22    73    74    1
    23    52    53    1
    24    11    12    1
    25    70    69    1
    26    77    78   ar
    27    12    13    2
    28    74    76   ar
    29    16    15    1
    30    16    18   am
    31    53    55   ar
    32    53    54   ar
    33    66    65    2
    34    69    65   am
    35    78    76   ar
    36    78    80   ar
    37    76    79   ar
    38    65    64    1
    39    80    82   ar
    40    59    58    2
    41    79    81   ar
    42    64    63    1
    43    64    67    1
    44    58    63   am
    45    58    57    1
    46    56    57    1
    47    82    81   ar
    48    67    68    1
    49    57    60    1
    50    61    60    1
    51    60    62    1
    52     1     2    1
    53    34    33    2
    54    30    29    2
    55    35    33   am
    56    33    32    1
    57     2     3    1
    58     2     5    1
    59     3     4    2
    60    32    31    1
    61    31    28    1
    62    28    29    1
    63    28    27    1
    64    29    36   am
    65     6     5    1
    66     6     7    1
    67    36    37    1
    68    38    37    1
    69    38    39    2
    70     7     8    1
    71     8     9    1
    72    19    20    1
    73    20    21    1
    74    20    23    1
    75    21    22    2
    76    25    24    2
    77    23    24    1
    78    24    26   am
