@<TRIPOS>MOLECULE
tmp/2xjxA00.pdb
 128 117 0 0 0
SMALL
GASTEIGER

@<TRIPOS>ATOM
      1  N          5.8870   -1.7440   10.1480 N.3    38  LEU38      -0.1245
      2  CA         6.9730   -2.3640   10.9010 C.3    38  LEU38       0.1561
      3  C          7.0400   -3.8660   10.6000 C.2    38  LEU38       0.2260
      4  O          8.1140   -4.3970   10.3520 O.2    38  LEU38      -0.2867
      5  CB         6.7990   -2.1530   12.4130 C.3    38  LEU38       0.0270
      6  CG         7.1830   -0.7530   12.9140 C.3    38  LEU38       0.0019
      7  CD1        6.5150   -0.5000   14.2290 C.3    38  LEU38       0.0001
      8  CD2        8.6790   -0.6600   13.1660 C.3    38  LEU38       0.0001
      9  N          8.4260   -4.5390    7.1650 N.3    41  ASN41      -0.1225
     10  CA         9.8740   -4.3770    7.1220 C.3    41  ASN41       0.1785
     11  C         10.5480   -5.5950    7.7220 C.2    41  ASN41       0.2597
     12  O         11.5210   -6.0900    7.1630 O.2    41  ASN41      -0.2718
     13  CB        10.3480   -3.0650    7.7900 C.3    41  ASN41       0.1169
     14  CG        10.0720   -1.8310    6.9100 C.2    41  ASN41       0.2627
     15  OD1       10.1180   -1.9210    5.6940 O.2    41  ASN41      -0.2716
     16  ND2       10.0010   -0.6690    7.5240 N.am   41  ASN41      -0.0877
     17  N          9.9630   -6.1310    8.8050 N.am   42  SER42      -0.1952
     18  CA        10.5240   -7.3140    9.4260 C.3    42  SER42       0.1924
     19  C         10.4210   -8.4790    8.4390 C.2    42  SER42       0.2314
     20  O         11.3750   -9.2460    8.2450 O.2    42  SER42      -0.2863
     21  CB         9.7620   -7.6390   10.7010 C.3    42  SER42       0.2116
     22  OG        10.0470   -6.6890   11.7370 O.3    42  SER42      -0.2180
     23  N         10.2380   -8.4700    5.1550 N.3    44  ASP44      -0.1225
     24  CA        11.2430   -8.3270    4.0930 C.3    44  ASP44       0.1805
     25  C         12.6590   -8.7280    4.5510 C.2    44  ASP44       0.2597
     26  O         13.4100   -9.3960    3.8220 O.2    44  ASP44      -0.2718
     27  CB        11.2820   -6.8820    3.6050 C.3    44  ASP44       0.1424
     28  CG        10.0160   -6.4870    2.8860 C.2    44  ASP44       0.3668
     29  OD1        9.2270   -7.3940    2.5760 O.co2  44  ASP44      -0.2456
     30  OD2        9.9260   -5.3160    2.4600 O.co2  44  ASP44      -0.2456
     31  N         13.0070   -8.3360    5.7680 N.am   45  ALA45      -0.1979
     32  CA        14.3470   -8.6660    6.3130 C.3    45  ALA45       0.1597
     33  C         14.4660  -10.1860    6.5350 C.2    45  ALA45       0.2287
     34  O         15.5350  -10.7880    6.3620 O.2    45  ALA45      -0.2864
     35  CB        14.5400   -7.9530    7.6030 C.3    45  ALA45       0.0319
     36  N         14.9400  -11.9570    3.2490 N.3    48  LYS48      -0.1245
     37  CA        16.3300  -11.7930    2.7730 C.3    48  LYS48       0.1561
     38  C         17.3070  -12.8070    3.3810 C.2    48  LYS48       0.2260
     39  O         18.0550  -13.4690    2.6490 O.2    48  LYS48      -0.2867
     40  CB        16.8100  -10.3700    2.9960 C.3    48  LYS48       0.0271
     41  CG        18.0780  -10.0210    2.2260 C.3    48  LYS48       0.0035
     42  CD        17.8740   -9.9470    0.7590 C.3    48  LYS48       0.0206
     43  CE        19.1970   -9.4820    0.1720 C.3    48  LYS48       0.1093
     44  NZ        20.1240  -10.6340   -0.0300 N.3    48  LYS48      -0.1314
     45  N          9.1210   -4.2210   18.5300 N.3    81  ILE81      -0.1245
     46  CA         8.9420   -5.2580   17.5200 C.3    81  ILE81       0.1561
     47  C         10.3350   -5.8330   17.2990 C.2    81  ILE81       0.2260
     48  O         11.2290   -5.1070   16.8920 O.2    81  ILE81      -0.2867
     49  CB         8.3800   -4.6850   16.2010 C.3    81  ILE81       0.0252
     50  CG1        6.9470   -4.1650   16.4300 C.3    81  ILE81       0.0019
     51  CG2        8.3720   -5.7930   15.1470 C.3    81  ILE81       0.0019
     52  CD1        6.8920   -2.7880   17.0350 C.3    81  ILE81       0.0001
     53  N         12.7250   -8.8140   15.2820 N.3    83  ASP83      -0.1239
     54  CA        12.7290   -9.8650   14.2790 C.3    83  ASP83       0.1674
     55  C         14.1380  -10.4060   14.1750 C.2    83  ASP83       0.2266
     56  O         15.0940   -9.7610   14.5930 O.2    83  ASP83      -0.2867
     57  CB        12.2190   -9.3720   12.9040 C.3    83  ASP83       0.1410
     58  CG        13.1680   -8.3730   12.2360 C.2    83  ASP83       0.3668
     59  OD1       14.3120   -8.7570   11.8780 O.co2  83  ASP83      -0.2456
     60  OD2       12.7730   -7.2030   12.0960 O.co2  83  ASP83      -0.2456
     61  N         17.7140  -10.3240    8.3730 N.3    86  ILE86      -0.1231
     62  CA        19.0780  -10.1070    7.9680 C.3    86  ILE86       0.1692
     63  C         19.8010   -8.9620    8.6910 C.2    86  ILE86       0.2593
     64  O         21.0220   -8.9180    8.7370 O.2    86  ILE86      -0.2718
     65  CB        19.1510   -9.9460    6.4320 C.3    86  ILE86       0.0266
     66  CG1       20.5980  -10.0590    5.9810 C.3    86  ILE86       0.0019
     67  CG2       18.5140   -8.5940    6.0390 C.3    86  ILE86       0.0020
     68  CD1       20.7460  -10.7270    4.6670 C.3    86  ILE86       0.0001
     69  N         19.0590   -8.0420    9.2960 N.am   87  GLY87      -0.1942
     70  CA        19.6700   -6.9530   10.0260 C.3    87  GLY87       0.2014
     71  C         20.2350   -5.9130    9.0610 C.2    87  GLY87       0.2638
     72  O         20.1790   -6.0790    7.8400 O.2    87  GLY87      -0.2714
     73  N         20.8170   -4.8600    9.6130 N.am   88  MET88      -0.1976
     74  CA        21.3690   -3.8140    8.7610 C.3    88  MET88       0.1605
     75  C         22.8160   -3.5570    9.1590 C.2    88  MET88       0.2287
     76  O         23.1480   -3.5690   10.3440 O.2    88  MET88      -0.2864
     77  CB        20.5450   -2.5290    9.0230 C.3    88  MET88       0.0413
     78  CG        19.2210   -2.5270    8.2730 C.3    88  MET88       0.0598
     79  SD        18.1820   -1.1040    8.6990 S.3    88  MET88      -0.1393
     80  CE        17.7550   -1.5870   10.4060 C.3    88  MET88       0.0692
     81  N         19.2360    4.1110    4.9390 N.3    96  ASN96      -0.1225
     82  CA        17.7970    3.8520    5.0030 C.3    96  ASN96       0.1785
     83  C         17.0610    4.6880    6.0210 C.2    96  ASN96       0.2597
     84  O         15.8480    4.8820    5.9040 O.2    96  ASN96      -0.2718
     85  CB        17.5330    2.3930    5.3310 C.3    96  ASN96       0.1169
     86  CG        17.6530    1.5070    4.1330 C.2    96  ASN96       0.2627
     87  OD1       17.4290    1.9460    3.0120 O.2    96  ASN96      -0.2716
     88  ND2       18.0110    0.2400    4.3580 N.am   96  ASN96      -0.0877
     89  N         17.7770    5.1070    7.0540 N.am   97  LEU97      -0.1980
     90  CA        17.1440    5.8120    8.1520 C.3    97  LEU97       0.1596
     91  C         17.4650    7.2710    8.2800 C.2    97  LEU97       0.2287
     92  O         17.5070    7.8140    9.3930 O.2    97  LEU97      -0.2864
     93  CB        17.3290    5.0390    9.4700 C.3    97  LEU97       0.0297
     94  CG        16.6160    3.6780    9.4910 C.3    97  LEU97       0.0022
     95  CD1       16.5920    3.0590   10.8930 C.3    97  LEU97       0.0001
     96  CD2       15.1880    3.6980    8.8870 C.3    97  LEU97       0.0001
     97  N          8.7600    3.5650    7.2520 N.3   128  PHE128     -0.1241
     98  CA         9.3480    3.5310    8.6130 C.3   128  PHE128      0.1605
     99  C          8.8740    4.7340    9.4610 C.2   128  PHE128      0.2264
    100  O          8.5940    4.6060   10.6460 O.2   128  PHE128     -0.2867
    101  CB        10.8810    3.5740    8.4900 C.3   128  PHE128      0.0534
    102  CG        11.5520    3.9060    9.7790 C.ar  128  PHE128     -0.0203
    103  CD1       11.4870    3.0050   10.8430 C.ar  128  PHE128     -0.0042
    104  CD2       12.1000    5.1570    9.9890 C.ar  128  PHE128     -0.0042
    105  CE1       12.0260    3.3400   12.0800 C.ar  128  PHE128     -0.0003
    106  CE2       12.6710    5.4790   11.2120 C.ar  128  PHE128     -0.0003
    107  CZ        12.6070    4.5830   12.2560 C.ar  128  PHE128     -0.0000
    108  N         16.1950    1.9580   17.0560 N.3   140  VAL140     -0.1245
    109  CA        16.3030    0.7930   16.1830 C.3   140  VAL140      0.1561
    110  C         17.6740    0.1620   16.5080 C.2   140  VAL140      0.2260
    111  O         18.7140    0.7750   16.2580 O.2   140  VAL140     -0.2867
    112  CB        16.2400    1.2040   14.7160 C.3   140  VAL140      0.0252
    113  CG1       16.5260    0.0260   13.7810 C.3   140  VAL140      0.0019
    114  CG2       14.8950    1.9350   14.3890 C.3   140  VAL140      0.0019
    115  N         16.7590   -7.1130   13.7090 N.3   174  THR174     -0.1218
    116  CA        16.4730   -5.7400   14.1000 C.3   174  THR174      0.1862
    117  C         15.4080   -5.7490   15.1940 C.2   174  THR174      0.2287
    118  O         14.4650   -6.5730   15.1730 O.2   174  THR174     -0.2866
    119  CB        16.0320   -4.9810   12.8270 C.3   174  THR174      0.1770
    120  OG1       17.1600   -4.8970   11.9410 O.3   174  THR174     -0.2211
    121  CG2       15.4220   -3.5780   13.1240 C.3   174  THR174      0.0375
    122  N         12.8680   -2.7900   16.9410 N.3   176  VAL176     -0.1245
    123  CA        12.3890   -1.4020   16.9120 C.3   176  VAL176      0.1561
    124  C         11.6340   -1.1270   18.2210 C.2   176  VAL176      0.2260
    125  O         10.6500   -1.7980   18.5220 O.2   176  VAL176     -0.2867
    126  CB        11.4920   -1.1030   15.6940 C.3   176  VAL176      0.0252
    127  CG1       11.1500    0.3950   15.6610 C.3   176  VAL176      0.0019
    128  CG2       12.2440   -1.4740   14.4190 C.3   176  VAL176      0.0019
@<TRIPOS>BOND
     1    44    43    1
     2    43    42    1
     3    42    41    1
     4    41    40    1
     5    30    28   ar
     6    29    28   ar
     7    39    38    2
     8    37    40    1
     9    37    36    1
    10    37    38    1
    11    28    27    1
    12    87    86    2
    13    27    24    1
    14    26    25    2
    15    24    25    1
    16    24    23    1
    17    86    88   am
    18    86    85    1
    19    25    31   am
    20    68    66    1
    21    81    82    1
    22    82    85    1
    23    82    83    1
    24    15    14    2
    25    31    32    1
    26    84    83    2
    27    66    65    1
    28    83    89   am
    29    67    65    1
    30    32    33    1
    31    32    35    1
    32    34    33    2
    33    65    62    1
    34    14    16   am
    35    14    13    1
    36    89    90    1
    37    10     9    1
    38    10    11    1
    39    10    13    1
    40    12    11    2
    41    97    98    1
    42    11    17   am
    43    72    71    2
    44    62    61    1
    45    62    63    1
    46    90    91    1
    47    90    93    1
    48    20    19    2
    49    78    79    1
    50    78    77    1
    51    91    92    2
    52    19    18    1
    53   101    98    1
    54   101   102    1
    55    98    99    1
    56    63    64    2
    57    63    69   am
    58    79    80    1
    59    74    77    1
    60    74    75    1
    61    74    73    1
    62    17    18    1
    63    96    94    1
    64    71    73   am
    65    71    70    1
    66    75    76    2
    67    69    70    1
    68    18    21    1
    69    99   100    2
    70    93    94    1
    71    94    95    1
    72   102   104   ar
    73   102   103   ar
    74   104   106   ar
    75     1     2    1
    76     4     3    2
    77     3     2    1
    78    21    22    1
    79   103   105   ar
    80     2     5    1
    81   106   107   ar
    82    59    58   ar
    83   120   119    1
    84   105   107   ar
    85    60    58   ar
    86    58    57    1
    87     5     6    1
    88   119   121    1
    89   119   116    1
    90    57    54    1
    91     6     8    1
    92     6     7    1
    93   115   116    1
    94   113   112    1
    95   116   117    1
    96    55    54    1
    97    55    56    2
    98    54    53    1
    99   114   112    1
   100   128   126    1
   101   112   109    1
   102    51    49    1
   103   118   117    2
   104   127   126    1
   105   126   123    1
   106   109   110    1
   107   109   108    1
   108    49    50    1
   109    49    46    1
   110   111   110    2
   111    50    52    1
   112    48    47    2
   113   123   122    1
   114   123   124    1
   115    47    46    1
   116    46    45    1
   117   124   125    2
