@<TRIPOS>MOLECULE
tmp/2xk1D00.pdb
 106 98 0 0 0
SMALL
GASTEIGER

@<TRIPOS>ATOM
      1  N        -56.2710   39.0560   14.1170 N.3    48  ALA48      -0.1231
      2  CA       -55.7770   40.2270   13.3920 C.3    48  ALA48       0.1694
      3  C        -55.7480   39.9130   11.8870 C.2    48  ALA48       0.2592
      4  O        -56.7680   39.4910   11.3360 O.2    48  ALA48      -0.2718
      5  CB       -54.4190   40.6740   13.9140 C.3    48  ALA48       0.0304
      6  N        -54.6000   40.0660   11.2280 N.am   49  SER49      -0.1952
      7  CA       -54.5530   39.8830    9.7720 C.3    49  SER49       0.1924
      8  C        -54.7580   38.4580    9.2600 C.2    49  SER49       0.2314
      9  O        -55.0560   38.2700    8.0870 O.2    49  SER49      -0.2863
     10  CB       -53.2830   40.4810    9.1780 C.3    49  SER49       0.2116
     11  OG       -53.4760   41.8520    8.8880 O.3    49  SER49      -0.2180
     12  N        -57.5590   37.6250    6.9390 N.3    52  LYS52      -0.1245
     13  CA       -57.4170   37.7580    5.4840 C.3    52  LYS52       0.1561
     14  C        -57.3750   36.4180    4.7520 C.2    52  LYS52       0.2260
     15  O        -57.8430   36.3220    3.6160 O.2    52  LYS52      -0.2867
     16  CB       -56.1980   38.6100    5.1280 C.3    52  LYS52       0.0271
     17  CG       -56.3740   40.0740    5.4780 C.3    52  LYS52       0.0035
     18  CD       -55.1650   40.8960    5.0930 C.3    52  LYS52       0.0206
     19  CE       -55.3970   42.3680    5.3860 C.3    52  LYS52       0.1093
     20  NZ       -55.4710   42.6490    6.8500 N.3    52  LYS52      -0.1314
     21  N        -56.8260   55.6080   14.8330 N.3   142  ASP142     -0.1239
     22  CA       -56.0730   54.9320   13.7720 C.3   142  ASP142      0.1674
     23  C        -56.3480   55.5520   12.4120 C.2   142  ASP142      0.2266
     24  O        -55.5750   55.3760   11.4750 O.2   142  ASP142     -0.2867
     25  CB       -56.4530   53.4550   13.6820 C.3   142  ASP142      0.1410
     26  CG       -56.1760   52.6890   14.9520 C.2   142  ASP142      0.3668
     27  OD1      -55.5980   53.2530   15.9070 O.co2 142  ASP142     -0.2456
     28  OD2      -56.5510   51.5010   14.9890 O.co2 142  ASP142     -0.2456
     29  N        -53.4990   51.5580    6.7210 N.3   147  TYR147     -0.1241
     30  CA       -54.3190   50.3940    7.0360 C.3   147  TYR147      0.1605
     31  C        -55.7600   50.7440    7.4280 C.2   147  TYR147      0.2264
     32  O        -56.6000   49.8550    7.5780 O.2   147  TYR147     -0.2867
     33  CB       -53.6590   49.6140    8.1780 C.3   147  TYR147      0.0534
     34  CG       -53.5070   50.4100    9.4650 C.ar  147  TYR147     -0.0201
     35  CD1      -54.5450   50.4820   10.3930 C.ar  147  TYR147     -0.0009
     36  CD2      -52.3270   51.0970    9.7470 C.ar  147  TYR147     -0.0009
     37  CE1      -54.4120   51.2160   11.5690 C.ar  147  TYR147      0.0417
     38  CE2      -52.1820   51.8320   10.9210 C.ar  147  TYR147      0.0417
     39  CZ       -53.2270   51.8880   11.8290 C.ar  147  TYR147      0.1957
     40  OH       -53.0880   52.6110   12.9960 O.3   147  TYR147     -0.2866
     41  N        -48.4710   41.8030    1.6420 N.3   297  PHE297     -0.1227
     42  CA       -48.3540   42.9700    2.5120 C.3   297  PHE297      0.1736
     43  C        -49.6070   43.2560    3.3650 C.2   297  PHE297      0.2596
     44  O        -49.8140   44.3970    3.8050 O.2   297  PHE297     -0.2718
     45  CB       -47.9860   44.2090    1.6750 C.3   297  PHE297      0.0547
     46  CG       -46.8530   43.9820    0.7100 C.ar  297  PHE297     -0.0202
     47  CD1      -45.5330   44.1850    1.1050 C.ar  297  PHE297     -0.0042
     48  CD2      -47.1070   43.5800   -0.6000 C.ar  297  PHE297     -0.0042
     49  CE1      -44.4830   43.9770    0.2100 C.ar  297  PHE297     -0.0003
     50  CE2      -46.0700   43.3710   -1.4970 C.ar  297  PHE297     -0.0003
     51  CZ       -44.7570   43.5720   -1.0960 C.ar  297  PHE297     -0.0000
     52  N        -50.4280   42.2290    3.6050 N.am  298  SER298     -0.1952
     53  CA       -51.6620   42.3830    4.3860 C.3   298  SER298      0.1924
     54  C        -52.3430   43.7260    4.1340 C.2   298  SER298      0.2314
     55  O        -52.4330   44.5660    5.0370 O.2   298  SER298     -0.2863
     56  CB       -51.3910   42.2170    5.8870 C.3   298  SER298      0.2116
     57  OG       -51.3710   40.8520    6.2640 O.3   298  SER298     -0.2180
     58  N        -55.1430   46.0260    4.1130 N.3   300  ASN300     -0.1240
     59  CA       -56.4380   46.1680    4.7730 C.3   300  ASN300      0.1653
     60  C        -57.5280   46.6260    3.8250 C.2   300  ASN300      0.2266
     61  O        -58.5940   46.0150    3.7550 O.2   300  ASN300     -0.2867
     62  CB       -56.3340   47.1460    5.9320 C.3   300  ASN300      0.1155
     63  CG       -55.8830   46.4890    7.2030 C.2   300  ASN300      0.2627
     64  OD1      -55.6540   45.2810    7.2500 O.2   300  ASN300     -0.2716
     65  ND2      -55.7570   47.2810    8.2530 N.am  300  ASN300     -0.0877
     66  N        -59.4510   41.6930    9.3180 N.3   348  GLY348     -0.1210
     67  CA       -59.0330   41.2450   10.6430 C.3   348  GLY348      0.1956
     68  C        -58.7380   42.4210   11.5550 C.2   348  GLY348      0.2611
     69  O        -58.5660   42.2490   12.7630 O.2   348  GLY348     -0.2717
     70  N        -58.6990   43.6170   10.9650 N.am  349  LEU349     -0.1979
     71  CA       -58.4790   44.8760   11.6780 C.3   349  LEU349      0.1596
     72  C        -59.4920   45.1030   12.8020 C.2   349  LEU349      0.2287
     73  O        -59.1880   45.8030   13.7770 O.2   349  LEU349     -0.2864
     74  CB       -58.5010   46.0540   10.6950 C.3   349  LEU349      0.0297
     75  CG       -57.8750   47.4290   10.9860 C.3   349  LEU349      0.0022
     76  CD1      -58.8680   48.4080   11.5480 C.3   349  LEU349      0.0001
     77  CD2      -56.6590   47.3520   11.8840 C.3   349  LEU349      0.0001
     78  N        -44.2370   40.5360    4.4450 N.3   393  THR393     -0.1218
     79  CA       -44.0180   40.9420    5.8240 C.3   393  THR393      0.1862
     80  C        -43.1190   39.9400    6.5410 C.2   393  THR393      0.2287
     81  O        -42.4970   40.2740    7.5570 O.2   393  THR393     -0.2866
     82  CB       -45.3480   41.0730    6.5840 C.3   393  THR393      0.1770
     83  OG1      -46.0310   39.8110    6.5800 O.3   393  THR393     -0.2211
     84  CG2      -46.2380   42.1310    5.9300 C.3   393  THR393      0.0375
     85  N        -49.2190   36.2480    8.3580 N.3   411  THR411     -0.1218
     86  CA       -49.0400   36.8720    9.6780 C.3   411  THR411      0.1862
     87  C        -50.2030   37.7660   10.0880 C.2   411  THR411      0.2287
     88  O        -50.8330   38.4070    9.2450 O.2   411  THR411     -0.2866
     89  CB       -47.7690   37.7500    9.7460 C.3   411  THR411      0.1770
     90  OG1      -48.0200   39.0150    9.1120 O.3   411  THR411     -0.2211
     91  CG2      -46.5930   37.0610    9.0860 C.3   411  THR411      0.0375
     92  N        -51.0140   40.8260   13.0770 N.3   413  THR413     -0.1203
     93  CA       -50.3950   41.6930   14.0790 C.3   413  THR413      0.1994
     94  C        -51.1930   42.9510   14.4640 C.2   413  THR413      0.2617
     95  O        -51.6020   43.7450   13.6050 O.2   413  THR413     -0.2717
     96  CB       -48.9630   42.1190   13.6550 C.3   413  THR413      0.1784
     97  OG1      -48.2510   40.9910   13.1270 O.3   413  THR413     -0.2211
     98  CG2      -48.1970   42.7000   14.8410 C.3   413  THR413      0.0376
     99  N        -51.4040   43.0920   15.7750 N.am  414  MET414     -0.1979
    100  CA       -51.7410   44.3590   16.4520 C.3   414  MET414      0.1605
    101  C        -51.6240   44.1470   17.9570 C.2   414  MET414      0.2287
    102  O        -51.3620   43.0260   18.4000 O.2   414  MET414     -0.2864
    103  CB       -53.1260   44.8900   16.0730 C.3   414  MET414      0.0413
    104  CG       -54.2430   43.8820   16.1450 C.3   414  MET414      0.0598
    105  SD       -55.8100   44.6790   15.7780 S.3   414  MET414     -0.1393
    106  CE       -56.8620   43.2490   15.5520 C.3   414  MET414      0.0692
@<TRIPOS>BOND
     1    50    51   ar
     2    50    48   ar
     3    51    49   ar
     4    48    46   ar
     5    49    47   ar
     6    46    47   ar
     7    46    45    1
     8    41    42    1
     9    45    42    1
    10    42    43    1
    11    43    52   am
    12    43    44    2
    13    52    53    1
    14    15    14    2
    15    61    60    2
    16    60    59    1
    17    58    59    1
    18    54    53    1
    19    54    55    2
    20    53    56    1
    21    78    79    1
    22    14    13    1
    23    59    62    1
    24    18    19    1
    25    18    17    1
    26    16    17    1
    27    16    13    1
    28    19    20    1
    29    13    12    1
    30    79    80    1
    31    79    82    1
    32    56    57    1
    33    84    82    1
    34    62    63    1
    35    80    81    2
    36    83    82    1
    37    29    30    1
    38    30    31    1
    39    30    33    1
    40    63    64    2
    41    63    65   am
    42    31    32    2
    43     9     8    2
    44    33    34    1
    45    85    86    1
    46    11    10    1
    47    91    89    1
    48    90    89    1
    49    10     7    1
    50    88    87    2
    51     8     7    1
    52    66    67    1
    53    34    36   ar
    54    34    35   ar
    55    86    89    1
    56    86    87    1
    57    36    38   ar
    58     7     6    1
    59    35    37   ar
    60    67    68    1
    61    74    75    1
    62    74    71    1
    63    38    39   ar
    64    70    68   am
    65    70    71    1
    66    75    76    1
    67    75    77    1
    68     6     3   am
    69     4     3    2
    70    24    23    2
    71    68    69    2
    72    37    39   ar
    73    71    72    1
    74    39    40    1
    75     3     2    1
    76    23    22    1
    77    72    73    2
    78    92    93    1
    79    97    96    1
    80     2     5    1
    81     2     1    1
    82    95    94    2
    83    96    93    1
    84    96    98    1
    85    25    22    1
    86    25    26    1
    87    22    21    1
    88    93    94    1
    89    94    99   am
    90    26    28   ar
    91    26    27   ar
    92   106   105    1
    93    99   100    1
    94   105   104    1
    95   103   104    1
    96   103   100    1
    97   100   101    1
    98   101   102    2
