@<TRIPOS>MOLECULE
tmp/2xk3A00.pdb
 161 155 0 0 0
SMALL
GASTEIGER

@<TRIPOS>ATOM
      1  N         37.6160    4.2210  -20.5120 N.3    10  TYR10      -0.1241
      2  CA        37.8890    5.6250  -20.2190 C.3    10  TYR10       0.1605
      3  C         36.7730    6.2600  -19.4080 C.2    10  TYR10       0.2264
      4  O         35.6820    5.7040  -19.2590 O.2    10  TYR10      -0.2867
      5  CB        38.1330    6.4490  -21.4880 C.3    10  TYR10       0.0534
      6  CG        36.9910    6.4340  -22.4810 C.ar   10  TYR10      -0.0201
      7  CD1       35.9520    7.3520  -22.4000 C.ar   10  TYR10      -0.0009
      8  CD2       36.9640    5.5060  -23.5090 C.ar   10  TYR10      -0.0009
      9  CE1       34.9060    7.3430  -23.3300 C.ar   10  TYR10       0.0417
     10  CE2       35.9310    5.4820  -24.4260 C.ar   10  TYR10       0.0417
     11  CZ        34.9100    6.3960  -24.3320 C.ar   10  TYR10       0.1957
     12  OH        33.8960    6.3530  -25.2560 O.3    10  TYR10      -0.2866
     13  N         33.9310    8.9670  -18.5550 N.3    12  ILE12      -0.1245
     14  CA        32.9380    9.7820  -19.2410 C.3    12  ILE12       0.1561
     15  C         32.8130   11.1450  -18.5730 C.2    12  ILE12       0.2260
     16  O         33.1780   12.1650  -19.1570 O.2    12  ILE12      -0.2867
     17  CB        31.5680    9.0990  -19.2550 C.3    12  ILE12       0.0252
     18  CG1       31.6010    7.8820  -20.1660 C.3    12  ILE12       0.0019
     19  CG2       30.4920   10.0700  -19.7360 C.3    12  ILE12       0.0019
     20  CD1       30.5630    6.8350  -19.7970 C.3    12  ILE12       0.0001
     21  N         32.0990    8.5820  -13.4950 N.3    16  CYS16      -0.1235
     22  CA        31.4330    7.6470  -14.3900 C.3    16  CYS16       0.1677
     23  C         32.3950    7.1900  -15.4790 C.2    16  CYS16       0.2270
     24  O         33.1470    7.9870  -16.0470 O.2    16  CYS16      -0.2867
     25  CB        30.1730    8.2700  -15.0050 C.3    16  CYS16       0.0956
     26  SG        28.6440    8.0720  -14.0190 S.3    16  CYS16      -0.0801
     27  N         28.7920    0.7260  -18.4900 N.3    29  VAL29      -0.1245
     28  CA        29.1040    1.9490  -17.7790 C.3    29  VAL29       0.1561
     29  C         29.0990    1.5650  -16.3180 C.2    29  VAL29       0.2260
     30  O         28.3610    0.6580  -15.9190 O.2    29  VAL29      -0.2867
     31  CB        28.0950    3.0800  -18.0500 C.3    29  VAL29       0.0252
     32  CG1       28.4070    4.2910  -17.1840 C.3    29  VAL29       0.0019
     33  CG2       28.0980    3.4560  -19.5240 C.3    29  VAL29       0.0019
     34  N         29.4020    3.6610  -12.2370 N.3    31  LYS31      -0.1245
     35  CA        29.5500    4.8770  -11.4600 C.3    31  LYS31       0.1561
     36  C         30.3240    4.5430  -10.1800 C.2    31  LYS31       0.2260
     37  O         29.9680    3.6100   -9.4580 O.2    31  LYS31      -0.2867
     38  CB        28.1610    5.4310  -11.1450 C.3    31  LYS31       0.0271
     39  CG        28.1270    6.7030  -10.3390 C.3    31  LYS31       0.0035
     40  CD        26.6940    7.2330  -10.2560 C.3    31  LYS31       0.0206
     41  CE        25.7320    6.1630   -9.7270 C.3    31  LYS31       0.1093
     42  NZ        24.2910    6.5610   -9.7890 N.3    31  LYS31      -0.1314
     43  N         17.0590    3.7460  -17.3910 N.3    62  VAL62      -0.1245
     44  CA        18.4200    3.2230  -17.4780 C.3    62  VAL62       0.1561
     45  C         18.5140    1.9410  -16.6490 C.2    62  VAL62       0.2260
     46  O         18.1480    1.9170  -15.4740 O.2    62  VAL62      -0.2867
     47  CB        19.4800    4.2520  -17.0230 C.3    62  VAL62       0.0252
     48  CG1       20.8600    3.5950  -16.8900 C.3    62  VAL62       0.0019
     49  CG2       19.5400    5.4240  -17.9930 C.3    62  VAL62       0.0019
     50  N         20.1330   -0.9320  -14.5070 N.3    64  TYR64      -0.1241
     51  CA        21.2560   -1.2700  -13.6380 C.3    64  TYR64       0.1605
     52  C         21.4700   -2.7850  -13.5830 C.2    64  TYR64       0.2264
     53  O         20.5170   -3.5640  -13.6020 O.2    64  TYR64      -0.2867
     54  CB        21.0740   -0.6380  -12.2570 C.3    64  TYR64       0.0534
     55  CG        20.8620    0.8550  -12.3880 C.ar   64  TYR64      -0.0201
     56  CD1       21.9300    1.7450  -12.3220 C.ar   64  TYR64      -0.0009
     57  CD2       19.5980    1.3690  -12.6480 C.ar   64  TYR64      -0.0009
     58  CE1       21.7330    3.1110  -12.4760 C.ar   64  TYR64       0.0417
     59  CE2       19.3940    2.7170  -12.8010 C.ar   64  TYR64       0.0417
     60  CZ        20.4580    3.5910  -12.7160 C.ar   64  TYR64       0.1957
     61  OH        20.2330    4.9450  -12.8800 O.3    64  TYR64      -0.2866
     62  N         25.9350   -0.2540  -15.0650 N.3    80  MET80      -0.1230
     63  CA        24.7120   -0.0260  -15.7860 C.3    80  MET80       0.1702
     64  C         24.9170   -0.0690  -17.2860 C.2    80  MET80       0.2592
     65  O         26.0340   -0.2130  -17.7900 O.2    80  MET80      -0.2718
     66  CB        24.0730    1.3060  -15.3490 C.3    80  MET80       0.0401
     67  CG        24.9400    2.5440  -15.5670 C.3    80  MET80       0.0596
     68  SD        24.3430    4.0200  -14.7060 S.3    80  MET80      -0.1393
     69  CE        25.0230    3.8070  -13.0720 C.3    80  MET80       0.0692
     70  N         23.7890    0.0370  -17.9690 N.am   81  GLU81      -0.1966
     71  CA        23.6830    0.2420  -19.3950 C.3    81  GLU81       0.1733
     72  C         24.5300    1.4130  -19.8740 C.2    81  GLU81       0.2616
     73  O         24.6040    2.4510  -19.2140 O.2    81  GLU81      -0.2715
     74  CB        22.2300    0.6240  -19.6430 C.3    81  GLU81       0.0429
     75  CG        21.6230    0.1330  -20.8920 C.3    81  GLU81       0.1163
     76  CD        20.2360    0.7030  -21.0700 C.2    81  GLU81       0.3649
     77  OE1       19.8890    1.0130  -22.2200 O.co2  81  GLU81      -0.2457
     78  OE2       19.5110    0.8600  -20.0580 O.co2  81  GLU81      -0.2457
     79  N         25.1220    1.2600  -21.0510 N.am   82  TYR82      -0.1960
     80  CA        25.7660    2.3640  -21.7570 C.3    82  TYR82       0.1771
     81  C         24.7510    3.0170  -22.6860 C.2    82  TYR82       0.2620
     82  O         24.1010    2.3400  -23.4870 O.2    82  TYR82      -0.2715
     83  CB        26.9350    1.8290  -22.5760 C.3    82  TYR82       0.0574
     84  CG        27.6370    2.8580  -23.4150 C.ar   82  TYR82      -0.0198
     85  CD1       28.1710    4.0030  -22.8360 C.ar   82  TYR82      -0.0009
     86  CD2       27.7800    2.6830  -24.7900 C.ar   82  TYR82      -0.0009
     87  CE1       28.8080    4.9490  -23.5980 C.ar   82  TYR82       0.0417
     88  CE2       28.4130    3.6310  -25.5610 C.ar   82  TYR82       0.0417
     89  CZ        28.9370    4.7580  -24.9580 C.ar   82  TYR82       0.1957
     90  OH        29.5920    5.7080  -25.7130 O.3    82  TYR82      -0.2866
     91  N         24.6040    4.3310  -22.5730 N.am   83  CYS83      -0.1954
     92  CA        23.6810    5.0610  -23.4330 C.3    83  CYS83       0.1843
     93  C         24.4790    5.9210  -24.3950 C.2    83  CYS83       0.2625
     94  O         24.8460    7.0480  -24.0760 O.2    83  CYS83      -0.2714
     95  CB        22.7510    5.9130  -22.5930 C.3    83  CYS83       0.0997
     96  SG        21.6730    4.9610  -21.4950 S.3    83  CYS83      -0.0797
     97  N         24.7630    5.3830  -25.5750 N.am   84  GLU84      -0.1963
     98  CA        25.7880    5.9880  -26.4140 C.3    84  GLU84       0.1733
     99  C         25.4940    7.4170  -26.8820 C.2    84  GLU84       0.2617
    100  O         26.3980    8.1120  -27.3300 O.2    84  GLU84      -0.2715
    101  CB        26.1350    5.0850  -27.5930 C.3    84  GLU84       0.0429
    102  CG        25.1130    5.0630  -28.7160 C.3    84  GLU84       0.1163
    103  CD        25.7300    4.5540  -30.0000 C.2    84  GLU84       0.3649
    104  OE1       25.8280    5.3390  -30.9690 O.co2  84  GLU84      -0.2457
    105  OE2       26.1470    3.3770  -30.0270 O.co2  84  GLU84      -0.2457
    106  N         24.2370    7.8510  -26.7870 N.am   85  GLY85      -0.1940
    107  CA        23.8550    9.1710  -27.2630 C.3    85  GLY85       0.2014
    108  C         24.1060   10.2680  -26.2390 C.2    85  GLY85       0.2639
    109  O         23.9450   11.4510  -26.5370 O.2    85  GLY85      -0.2714
    110  N         24.4910    9.8830  -25.0250 N.am   86  GLY86      -0.1939
    111  CA        24.7330   10.8620  -23.9730 C.3    86  GLY86       0.2014
    112  C         23.4070   11.3720  -23.4240 C.2    86  GLY86       0.2638
    113  O         22.3740   10.7430  -23.6360 O.2    86  GLY86      -0.2714
    114  N         23.4510   12.5080  -22.7260 N.am   87  ASP87      -0.1971
    115  CA        22.3150   13.0750  -22.0160 C.3    87  ASP87       0.1709
    116  C         21.6470   14.1260  -22.8650 C.2    87  ASP87       0.2293
    117  O         22.2160   14.5790  -23.8600 O.2    87  ASP87      -0.2864
    118  CB        22.7840   13.7290  -20.7220 C.3    87  ASP87       0.1436
    119  CG        23.7030   14.9020  -20.9740 C.2    87  ASP87       0.3671
    120  OD1       24.8460   14.6920  -21.4220 O.co2  87  ASP87      -0.2456
    121  OD2       23.2770   16.0460  -20.7480 O.co2  87  ASP87      -0.2456
    122  N         23.1310   18.0030  -23.1520 N.3    90  SER90      -0.1217
    123  CA        24.1610   18.2710  -24.1470 C.3    90  SER90       0.1889
    124  C         23.5550   18.4300  -25.5220 C.2    90  SER90       0.2288
    125  O         24.0570   19.1800  -26.3550 O.2    90  SER90      -0.2866
    126  CB        25.1840   17.1340  -24.1620 C.3    90  SER90       0.2089
    127  OG        25.7420   16.9640  -22.8700 O.3    90  SER90      -0.2183
    128  N         18.6580   10.1420  -20.9360 N.3   134  PHE134     -0.1241
    129  CA        19.7200    9.5990  -21.7660 C.3   134  PHE134      0.1605
    130  C         19.2310    8.9410  -23.0460 C.2   134  PHE134      0.2264
    131  O         18.1100    8.4450  -23.1190 O.2   134  PHE134     -0.2867
    132  CB        20.5940    8.6590  -20.9350 C.3   134  PHE134      0.0534
    133  CG        21.1200    9.3040  -19.6960 C.ar  134  PHE134     -0.0203
    134  CD1       20.3970    9.2540  -18.5160 C.ar  134  PHE134     -0.0042
    135  CD2       22.3100   10.0250  -19.7260 C.ar  134  PHE134     -0.0042
    136  CE1       20.8660    9.8860  -17.3800 C.ar  134  PHE134     -0.0003
    137  CE2       22.7890   10.6560  -18.5980 C.ar  134  PHE134     -0.0003
    138  CZ        22.0770   10.5860  -17.4210 C.ar  134  PHE134     -0.0000
    139  N         17.1750    8.4600  -16.0020 N.3   144  GLY144     -0.1210
    140  CA        18.1940    8.0800  -15.0340 C.3   144  GLY144      0.1956
    141  C         17.7720    8.2760  -13.5840 C.2   144  GLY144      0.2612
    142  O         16.6210    8.6250  -13.3050 O.2   144  GLY144     -0.2717
    143  N         18.7040    8.0680  -12.6530 N.am  145  ASP145     -0.1959
    144  CA        18.3460    7.8980  -11.2410 C.3   145  ASP145      0.1840
    145  C         18.5420    9.1220  -10.3640 C.2   145  ASP145      0.2622
    146  O         18.1290    9.1220   -9.2020 O.2   145  ASP145     -0.2715
    147  CB        19.1130    6.7120  -10.6260 C.3   145  ASP145      0.1450
    148  CG        20.5940    7.0230  -10.3740 C.2   145  ASP145      0.3671
    149  OD1       20.9840    8.2090  -10.4110 O.co2 145  ASP145     -0.2456
    150  OD2       21.3750    6.0750  -10.1300 O.co2 145  ASP145     -0.2456
    151  N         19.1730   10.1570  -10.9110 N.am  146  PHE146     -0.1974
    152  CA        19.6670   11.2520  -10.0830 C.3   146  PHE146      0.1639
    153  C         19.0120   12.6020  -10.3630 C.2   146  PHE146      0.2290
    154  O         19.5850   13.4450  -11.0550 O.2   146  PHE146     -0.2864
    155  CB        21.1950   11.3590  -10.2010 C.3   146  PHE146      0.0560
    156  CG        21.6870   11.6170  -11.6040 C.ar  146  PHE146     -0.0200
    157  CD1       21.3080   10.7970  -12.6570 C.ar  146  PHE146     -0.0042
    158  CD2       22.5480   12.6710  -11.8650 C.ar  146  PHE146     -0.0042
    159  CE1       21.7700   11.0320  -13.9430 C.ar  146  PHE146     -0.0003
    160  CE2       23.0130   12.9100  -13.1480 C.ar  146  PHE146     -0.0003
    161  CZ        22.6240   12.0890  -14.1870 C.ar  146  PHE146     -0.0000
@<TRIPOS>BOND
     1   104   103   ar
     2   105   103   ar
     3   103   102    1
     4   102   101    1
     5   101    98    1
     6   100    99    2
     7   107   106    1
     8   107   108    1
     9    99   106   am
    10    99    98    1
    11   109   108    2
    12    98    97    1
    13   125   124    2
    14   108   110   am
    15    90    89    1
    16    97    93   am
    17    88    89   ar
    18    88    86   ar
    19   124   123    1
    20    12    11    1
    21   110   111    1
    22    89    87   ar
    23    86    84   ar
    24    10    11   ar
    25    10     8   ar
    26    93    94    2
    27    93    92    1
    28    11     9   ar
    29   126   123    1
    30   126   127    1
    31   123   122    1
    32   111   112    1
    33   117   116    2
    34   113   112    2
    35    87    85   ar
    36     8     6   ar
    37    82    81    2
    38    92    95    1
    39    92    91    1
    40   112   114   am
    41    84    85   ar
    42    84    83    1
    43     9     7   ar
    44   131   130    2
    45   130   129    1
    46   116   115    1
    47   114   115    1
    48    81    91   am
    49    81    80    1
    50    95    96    1
    51    83    80    1
    52     6     7   ar
    53     6     5    1
    54    77    76   ar
    55   115   118    1
    56   129   128    1
    57   129   132    1
    58    80    79    1
    59     5     2    1
    60   120   119   ar
    61    76    75    1
    62    76    78   ar
    63    79    72   am
    64   119   121   ar
    65   119   118    1
    66   132   133    1
    67    75    74    1
    68     1     2    1
    69     2     3    1
    70    18    20    1
    71    18    17    1
    72    72    71    1
    73    72    73    2
    74    19    17    1
    75   135   133   ar
    76   135   137   ar
    77   133   134   ar
    78    74    71    1
    79    33    31    1
    80     3     4    2
    81    71    70    1
    82    17    14    1
    83    14    15    1
    84    14    13    1
    85    16    15    2
    86   137   138   ar
    87   134   136   ar
    88    27    28    1
    89    31    28    1
    90    31    32    1
    91    49    47    1
    92    70    64   am
    93    65    64    2
    94    28    29    1
    95    44    43    1
    96    44    47    1
    97    44    45    1
    98   138   136   ar
    99    64    63    1
   100    47    48    1
   101    45    46    2
   102    29    30    2
   103    24    23    2
   104   139   140    1
   105    63    66    1
   106    63    62    1
   107    67    66    1
   108    67    68    1
   109    23    22    1
   110   140   141    1
   111    25    22    1
   112    25    26    1
   113    68    69    1
   114    50    51    1
   115    22    21    1
   116   161   159   ar
   117   161   160   ar
   118   159   157   ar
   119    51    52    1
   120    51    54    1
   121    53    52    2
   122   141   142    2
   123   141   143   am
   124   160   158   ar
   125    61    60    1
   126    59    60   ar
   127    59    57   ar
   128    60    58   ar
   129   157   156   ar
   130   143   144    1
   131    57    55   ar
   132    58    56   ar
   133    55    56   ar
   134    55    54    1
   135    34    35    1
   136   158   156   ar
   137   156   155    1
   138    35    38    1
   139    35    36    1
   140   144   147    1
   141   144   145    1
   142    38    39    1
   143   154   153    2
   144   151   145   am
   145   151   152    1
   146   147   148    1
   147   149   148   ar
   148   148   150   ar
   149   145   146    2
   150   153   152    1
   151    39    40    1
   152    40    41    1
   153   155   152    1
   154    36    37    2
   155    42    41    1
