@<TRIPOS>MOLECULE
tmp/2xk6A00.pdb
 158 150 0 0 0
SMALL
GASTEIGER

@<TRIPOS>ATOM
      1  N         37.7800    4.4950  -20.6240 N.3     9  TYR9       -0.1241
      2  CA        38.1120    5.8790  -20.2940 C.3     9  TYR9        0.1605
      3  C         36.9980    6.5550  -19.5020 C.2     9  TYR9        0.2264
      4  O         35.8670    6.0780  -19.4580 O.2     9  TYR9       -0.2867
      5  CB        38.4300    6.6930  -21.5550 C.3     9  TYR9        0.0534
      6  CG        37.3500    6.6360  -22.6090 C.ar    9  TYR9       -0.0201
      7  CD1       36.2860    7.5300  -22.5940 C.ar    9  TYR9       -0.0009
      8  CD2       37.3900    5.6800  -23.6150 C.ar    9  TYR9       -0.0009
      9  CE1       35.2890    7.4730  -23.5600 C.ar    9  TYR9        0.0417
     10  CE2       36.4030    5.6160  -24.5810 C.ar    9  TYR9        0.0417
     11  CZ        35.3580    6.5120  -24.5490 C.ar    9  TYR9        0.1957
     12  OH        34.3820    6.4380  -25.5120 O.3     9  TYR9       -0.2866
     13  N         34.2040    9.2400  -18.6780 N.3    11  ILE11      -0.1245
     14  CA        33.2440   10.0990  -19.3500 C.3    11  ILE11       0.1561
     15  C         33.0290   11.3430  -18.5030 C.2    11  ILE11       0.2260
     16  O         33.4540   12.4390  -18.8680 O.2    11  ILE11      -0.2867
     17  CB        31.8890    9.4020  -19.5030 C.3    11  ILE11       0.0252
     18  CG1       32.0060    8.1990  -20.4310 C.3    11  ILE11       0.0019
     19  CG2       30.8520   10.3740  -20.0330 C.3    11  ILE11       0.0019
     20  CD1       30.8070    7.2920  -20.3620 C.3    11  ILE11       0.0001
     21  N         32.1520    8.8390  -13.6390 N.3    14  CYS14      -0.1235
     22  CA        31.5610    7.8220  -14.5070 C.3    14  CYS14       0.1677
     23  C         32.5660    7.3600  -15.5570 C.2    14  CYS14       0.2270
     24  O         33.2890    8.1720  -16.1360 O.2    14  CYS14      -0.2867
     25  CB        30.3060    8.3580  -15.2090 C.3    14  CYS14       0.0956
     26  SG        28.7480    8.1380  -14.3020 S.3    14  CYS14      -0.0801
     27  N         28.8870    1.1310  -18.5070 N.3    27  VAL27      -0.1245
     28  CA        29.5610    2.1600  -17.7360 C.3    27  VAL27       0.1561
     29  C         29.4140    1.8360  -16.2600 C.2    27  VAL27       0.2260
     30  O         28.5520    1.0510  -15.8700 O.2    27  VAL27      -0.2867
     31  CB        29.0340    3.5880  -18.0350 C.3    27  VAL27       0.0252
     32  CG1       28.4720    3.6710  -19.4450 C.3    27  VAL27       0.0019
     33  CG2       28.0020    4.0150  -17.0110 C.3    27  VAL27       0.0019
     34  N         29.5480    3.9380  -12.2750 N.3    29  LYS29      -0.1245
     35  CA        29.6520    5.1560  -11.5010 C.3    29  LYS29       0.1561
     36  C         30.4410    4.8400  -10.2280 C.2    29  LYS29       0.2260
     37  O         30.1070    3.9060   -9.4950 O.2    29  LYS29      -0.2867
     38  CB        28.2430    5.6600  -11.1760 C.3    29  LYS29       0.0271
     39  CG        28.1720    6.9550  -10.3940 C.3    29  LYS29       0.0035
     40  CD        26.7450    7.5150  -10.4040 C.3    29  LYS29       0.0206
     41  CE        25.7220    6.4650   -9.9700 C.3    29  LYS29       0.1093
     42  NZ        24.3220    6.9840   -9.9270 N.3    29  LYS29      -0.1314
     43  N         17.2440    4.0300  -17.4530 N.3    60  VAL60      -0.1245
     44  CA        18.5960    3.4750  -17.5110 C.3    60  VAL60       0.1561
     45  C         18.6720    2.1860  -16.6770 C.2    60  VAL60       0.2260
     46  O         18.3210    2.1810  -15.5030 O.2    60  VAL60      -0.2867
     47  CB        19.6710    4.4720  -17.0440 C.3    60  VAL60       0.0252
     48  CG1       21.0420    3.8070  -17.0580 C.3    60  VAL60       0.0019
     49  CG2       19.6760    5.7280  -17.9220 C.3    60  VAL60       0.0019
     50  N         20.2050   -0.7080  -14.4670 N.3    62  TYR62      -0.1241
     51  CA        21.3110   -0.9480  -13.5460 C.3    62  TYR62       0.1605
     52  C         21.5650   -2.4450  -13.3760 C.2    62  TYR62       0.2264
     53  O         20.7010   -3.1830  -12.9050 O.2    62  TYR62      -0.2867
     54  CB        21.0540   -0.2570  -12.2060 C.3    62  TYR62       0.0534
     55  CG        20.8610    1.2380  -12.3630 C.ar   62  TYR62      -0.0201
     56  CD1       21.9500    2.1010  -12.3900 C.ar   62  TYR62      -0.0009
     57  CD2       19.5900    1.7830  -12.5120 C.ar   62  TYR62      -0.0009
     58  CE1       21.7780    3.4660  -12.5460 C.ar   62  TYR62       0.0417
     59  CE2       19.4090    3.1460  -12.6680 C.ar   62  TYR62       0.0417
     60  CZ        20.5060    3.9830  -12.6850 C.ar   62  TYR62       0.1957
     61  OH        20.3260    5.3400  -12.8410 O.3    62  TYR62      -0.2866
     62  N         26.1680   -0.0790  -15.0690 N.3    78  MET78      -0.1230
     63  CA        24.9340    0.1850  -15.7850 C.3    78  MET78       0.1702
     64  C         25.0980    0.1980  -17.3010 C.2    78  MET78       0.2592
     65  O         26.2050    0.1480  -17.8290 O.2    78  MET78      -0.2718
     66  CB        24.3100    1.5030  -15.2990 C.3    78  MET78       0.0401
     67  CG        25.0490    2.7500  -15.7340 C.3    78  MET78       0.0596
     68  SD        24.5540    4.2240  -14.8050 S.3    78  MET78      -0.1393
     69  CE        25.2210    3.8720  -13.1810 C.3    78  MET78       0.0692
     70  N         23.9560    0.2420  -17.9740 N.am   79  GLU79      -0.1966
     71  CA        23.8320    0.3900  -19.4140 C.3    79  GLU79       0.1733
     72  C         24.6510    1.5750  -19.9280 C.2    79  GLU79       0.2616
     73  O         24.7090    2.6190  -19.2760 O.2    79  GLU79      -0.2715
     74  CB        22.3490    0.6560  -19.6920 C.3    79  GLU79       0.0429
     75  CG        21.8980    0.5600  -21.1140 C.3    79  GLU79       0.1163
     76  CD        20.4310    0.9620  -21.2820 C.2    79  GLU79       0.3649
     77  OE1       20.0070    1.1270  -22.4420 O.co2  79  GLU79      -0.2457
     78  OE2       19.7100    1.1150  -20.2650 O.co2  79  GLU79      -0.2457
     79  N         25.2540    1.4270  -21.1050 N.am   80  TYR80      -0.1960
     80  CA        25.9320    2.5450  -21.7800 C.3    80  TYR80       0.1771
     81  C         25.0040    3.2340  -22.7800 C.2    80  TYR80       0.2620
     82  O         24.4270    2.5790  -23.6450 O.2    80  TYR80      -0.2715
     83  CB        27.1980    2.0510  -22.4940 C.3    80  TYR80       0.0574
     84  CG        27.8910    3.0810  -23.3680 C.ar   80  TYR80      -0.0198
     85  CD1       28.5090    4.1970  -22.8100 C.ar   80  TYR80      -0.0009
     86  CD2       27.9500    2.9240  -24.7480 C.ar   80  TYR80      -0.0009
     87  CE1       29.1520    5.1360  -23.6030 C.ar   80  TYR80       0.0417
     88  CE2       28.5980    3.8630  -25.5540 C.ar   80  TYR80       0.0417
     89  CZ        29.1950    4.9620  -24.9740 C.ar   80  TYR80       0.1957
     90  OH        29.8350    5.8920  -25.7610 O.3    80  TYR80      -0.2866
     91  N         24.8670    4.5540  -22.6620 N.am   81  CYS81      -0.1954
     92  CA        24.0240    5.3300  -23.5660 C.3    81  CYS81       0.1843
     93  C         24.8800    6.2150  -24.4690 C.2    81  CYS81       0.2625
     94  O         25.2590    7.3250  -24.0820 O.2    81  CYS81      -0.2714
     95  CB        23.0390    6.1850  -22.7680 C.3    81  CYS81       0.0997
     96  SG        21.9650    5.2300  -21.6630 S.3    81  CYS81      -0.0797
     97  N         25.1800    5.7220  -25.6710 N.am   82  GLU82      -0.1963
     98  CA        26.1820    6.3560  -26.5300 C.3    82  GLU82       0.1733
     99  C         25.8320    7.7840  -26.9670 C.2    82  GLU82       0.2617
    100  O         26.7140    8.5560  -27.3260 O.2    82  GLU82      -0.2715
    101  CB        26.4710    5.4940  -27.7620 C.3    82  GLU82       0.0429
    102  CG        25.4220    5.6040  -28.8550 C.3    82  GLU82       0.1163
    103  CD        25.8710    4.9590  -30.1520 C.2    82  GLU82       0.3649
    104  OE1       25.8710    5.6490  -31.1920 O.co2  82  GLU82      -0.2457
    105  OE2       26.2290    3.7650  -30.1310 O.co2  82  GLU82      -0.2457
    106  N         24.5520    8.1350  -26.9450 N.am   83  GLY83      -0.1940
    107  CA        24.1460    9.4600  -27.3710 C.3    83  GLY83       0.2014
    108  C         24.3450   10.5110  -26.2960 C.2    83  GLY83       0.2639
    109  O         24.1350   11.6940  -26.5300 O.2    83  GLY83      -0.2714
    110  N         24.7420   10.0830  -25.1030 N.am   84  GLY84      -0.1939
    111  CA        24.9600   11.0180  -24.0100 C.3    84  GLY84       0.2014
    112  C         23.6680   11.6140  -23.4620 C.2    84  GLY84       0.2638
    113  O         22.5810   11.0660  -23.6700 O.2    84  GLY84      -0.2714
    114  N         23.7840   12.7300  -22.7500 N.am   85  ASP85      -0.1971
    115  CA        22.6360   13.3250  -22.0770 C.3    85  ASP85       0.1709
    116  C         21.9190   14.3440  -22.9520 C.2    85  ASP85       0.2293
    117  O         22.4680   14.8270  -23.9350 O.2    85  ASP85      -0.2864
    118  CB        23.0550   13.9770  -20.7570 C.3    85  ASP85       0.1436
    119  CG        23.9870   15.1540  -20.9620 C.2    85  ASP85       0.3671
    120  OD1       25.1720   14.9320  -21.2880 O.co2  85  ASP85      -0.2456
    121  OD2       23.5340   16.3040  -20.8060 O.co2  85  ASP85      -0.2456
    122  N         23.3030   18.1750  -23.2080 N.3    88  SER88      -0.1217
    123  CA        24.3600   18.4450  -24.1750 C.3    88  SER88       0.1889
    124  C         23.7850   18.6280  -25.5650 C.2    88  SER88       0.2288
    125  O         24.2860   19.4220  -26.3550 O.2    88  SER88      -0.2866
    126  CB        25.3830   17.3090  -24.1780 C.3    88  SER88       0.2089
    127  OG        25.8350   17.0590  -22.8600 O.3    88  SER88      -0.2183
    128  N         19.3320   14.5730  -16.8310 N.3   130  ASN130     -0.1240
    129  CA        19.0150   13.2400  -16.3320 C.3   130  ASN130      0.1653
    130  C         18.3170   12.3950  -17.3910 C.2   130  ASN130      0.2266
    131  O         17.7010   11.3680  -17.0910 O.2   130  ASN130     -0.2867
    132  CB        18.1650   13.3270  -15.0590 C.3   130  ASN130      0.1155
    133  CG        18.0580   11.9960  -14.3350 C.2   130  ASN130      0.2627
    134  OD1       18.9850   11.1800  -14.3680 O.2   130  ASN130     -0.2716
    135  ND2       16.9270   11.7730  -13.6700 N.am  130  ASN130     -0.0877
    136  N         18.9280   10.3870  -21.0530 N.3   132  PHE132     -0.1241
    137  CA        20.0140    9.8590  -21.8680 C.3   132  PHE132      0.1605
    138  C         19.5290    9.2070  -23.1490 C.2   132  PHE132      0.2264
    139  O         18.3930    8.7370  -23.2270 O.2   132  PHE132     -0.2867
    140  CB        20.8750    8.9190  -21.0290 C.3   132  PHE132      0.0534
    141  CG        21.3540    9.5580  -19.7600 C.ar  132  PHE132     -0.0203
    142  CD1       20.5720    9.5270  -18.6190 C.ar  132  PHE132     -0.0042
    143  CD2       22.5520   10.2520  -19.7280 C.ar  132  PHE132     -0.0042
    144  CE1       20.9920   10.1470  -17.4620 C.ar  132  PHE132     -0.0003
    145  CE2       22.9790   10.8700  -18.5730 C.ar  132  PHE132     -0.0003
    146  CZ        22.2000   10.8220  -17.4400 C.ar  132  PHE132     -0.0000
    147  N         17.4260    8.6380  -16.2480 N.3   142  GLY142     -0.1210
    148  CA        18.4000    8.1950  -15.2680 C.3   142  GLY142      0.1956
    149  C         18.0300    8.6210  -13.8600 C.2   142  GLY142      0.2611
    150  O         16.8930    9.0080  -13.5900 O.2   142  GLY142     -0.2717
    151  N         18.9950    8.5450  -12.9530 N.am  143  ASP143     -0.1973
    152  CA        18.7760    8.9890  -11.5850 C.3   143  ASP143      0.1709
    153  C         19.7270   10.1270  -11.2360 C.2   143  ASP143      0.2293
    154  O         19.3440   11.2970  -11.2580 O.2   143  ASP143     -0.2864
    155  CB        18.9630    7.8320  -10.6080 C.3   143  ASP143      0.1436
    156  CG        18.6770    8.2330   -9.1790 C.2   143  ASP143      0.3671
    157  OD1       18.9360    7.4190   -8.2680 O.co2 143  ASP143     -0.2456
    158  OD2       18.1930    9.3650   -8.9670 O.co2 143  ASP143     -0.2456
@<TRIPOS>BOND
     1   104   103   ar
     2   103   105   ar
     3   103   102    1
     4   102   101    1
     5   101    98    1
     6   107   106    1
     7   107   108    1
     8   100    99    2
     9    99   106   am
    10    99    98    1
    11    98    97    1
    12   109   108    2
    13   125   124    2
    14   108   110   am
    15    90    89    1
    16    97    93   am
    17   124   123    1
    18    88    89   ar
    19    88    86   ar
    20    12    11    1
    21   110   111    1
    22    89    87   ar
    23    86    84   ar
    24    10    11   ar
    25    10     8   ar
    26    11     9   ar
    27    93    94    2
    28    93    92    1
    29   126   123    1
    30   126   127    1
    31   123   122    1
    32   111   112    1
    33   117   116    2
    34   113   112    2
    35    82    81    2
    36     8     6   ar
    37    87    85   ar
    38    92    95    1
    39    92    91    1
    40     9     7   ar
    41   112   114   am
    42    84    85   ar
    43    84    83    1
    44   139   138    2
    45   138   137    1
    46   116   115    1
    47    81    91   am
    48    81    80    1
    49    95    96    1
    50   114   115    1
    51     6     7   ar
    52     6     5    1
    53    83    80    1
    54    77    76   ar
    55   115   118    1
    56   137   136    1
    57   137   140    1
    58    80    79    1
    59     5     2    1
    60   120   119   ar
    61    76    75    1
    62    76    78   ar
    63    75    74    1
    64    79    72   am
    65   140   141    1
    66   119   121   ar
    67   119   118    1
    68     1     2    1
    69    18    20    1
    70    18    17    1
    71     2     3    1
    72    19    17    1
    73    72    71    1
    74    72    73    2
    75   141   143   ar
    76   141   142   ar
    77   143   145   ar
    78    74    71    1
    79    17    14    1
    80     3     4    2
    81    32    31    1
    82    71    70    1
    83    14    13    1
    84    14    15    1
    85    16    15    2
    86   142   144   ar
    87   145   146   ar
    88    27    28    1
    89    31    28    1
    90    31    33    1
    91    70    64   am
    92    49    47    1
    93    65    64    2
    94    28    29    1
    95    44    43    1
    96    44    47    1
    97    44    45    1
    98   144   146   ar
    99   130   131    2
   100   130   129    1
   101    64    63    1
   102    48    47    1
   103   128   129    1
   104    45    46    2
   105   129   132    1
   106    29    30    2
   107   147   148    1
   108    24    23    2
   109    63    66    1
   110    63    62    1
   111    67    66    1
   112    67    68    1
   113    23    22    1
   114   148   149    1
   115    25    22    1
   116    25    26    1
   117   132   133    1
   118    68    69    1
   119    22    21    1
   120    50    51    1
   121   134   133    2
   122   133   135   am
   123   149   150    2
   124   149   151   am
   125    51    52    1
   126    51    54    1
   127    52    53    2
   128   151   152    1
   129    61    60    1
   130    60    59   ar
   131    60    58   ar
   132    59    57   ar
   133    58    56   ar
   134    57    55   ar
   135    56    55   ar
   136    55    54    1
   137    34    35    1
   138   152   153    1
   139   152   155    1
   140    35    38    1
   141    35    36    1
   142   154   153    2
   143    38    39    1
   144   155   156    1
   145    40    39    1
   146    40    41    1
   147    36    37    2
   148    41    42    1
   149   156   158   ar
   150   156   157   ar
