@<TRIPOS>MOLECULE
tmp/2xk7A00.pdb
 151 142 0 0 0
SMALL
GASTEIGER

@<TRIPOS>ATOM
      1  N        -37.6140   25.3560  -20.4000 N.3    10  TYR10      -0.1241
      2  CA       -37.9500   23.9680  -20.0880 C.3    10  TYR10       0.1605
      3  C        -36.8190   23.2780  -19.3220 C.2    10  TYR10       0.2264
      4  O        -35.7010   23.7850  -19.2320 O.2    10  TYR10      -0.2867
      5  CB       -38.2550   23.1820  -21.3650 C.3    10  TYR10       0.0534
      6  CG       -37.1030   23.1890  -22.3370 C.ar   10  TYR10      -0.0201
      7  CD1      -36.0980   22.2340  -22.2620 C.ar   10  TYR10      -0.0009
      8  CD2      -37.0070   24.1670  -23.3110 C.ar   10  TYR10      -0.0009
      9  CE1      -35.0300   22.2500  -23.1420 C.ar   10  TYR10       0.0417
     10  CE2      -35.9480   24.1920  -24.1970 C.ar   10  TYR10       0.0417
     11  CZ       -34.9640   23.2330  -24.1070 C.ar   10  TYR10       0.1957
     12  OH       -33.9130   23.2710  -24.9870 O.3    10  TYR10      -0.2866
     13  N        -34.0250   20.5620  -18.6310 N.3    12  ILE12      -0.1231
     14  CA       -33.0620   19.7220  -19.3260 C.3    12  ILE12       0.1692
     15  C        -32.9130   18.3940  -18.5890 C.2    12  ILE12       0.2592
     16  O        -32.9820   17.3280  -19.1970 O.2    12  ILE12      -0.2718
     17  CB       -31.6840   20.4080  -19.4240 C.3    12  ILE12       0.0266
     18  CG1      -31.7700   21.6500  -20.3100 C.3    12  ILE12       0.0019
     19  CG2      -30.6360   19.4420  -19.9740 C.3    12  ILE12       0.0020
     20  CD1      -30.5640   22.5560  -20.2000 C.3    12  ILE12       0.0001
     21  N        -32.7250   18.4700  -17.2730 N.am   13  GLY13      -0.1957
     22  CA       -32.5570   17.2910  -16.4460 C.3    13  GLY13       0.1869
     23  C        -32.9770   17.5190  -15.0070 C.2    13  GLY13       0.2309
     24  O        -33.2630   18.6480  -14.5990 O.2    13  GLY13      -0.2863
     25  N        -32.1360   21.0210  -13.4950 N.3    17  CYS17      -0.1235
     26  CA       -31.3580   21.8540  -14.4060 C.3    17  CYS17       0.1677
     27  C        -32.3060   22.3730  -15.4820 C.2    17  CYS17       0.2270
     28  O        -33.0020   21.5910  -16.1360 O.2    17  CYS17      -0.2867
     29  CB       -30.2160   21.0510  -15.0410 C.3    17  CYS17       0.0956
     30  SG       -29.3070   21.9520  -16.3330 S.3    17  CYS17      -0.0801
     31  N        -28.5590   28.6750  -18.3040 N.3    30  VAL30      -0.1245
     32  CA       -29.2310   27.6430  -17.5320 C.3    30  VAL30       0.1561
     33  C        -29.1380   27.9850  -16.0540 C.2    30  VAL30       0.2260
     34  O        -28.2850   28.7700  -15.6410 O.2    30  VAL30      -0.2867
     35  CB       -28.6620   26.2120  -17.7570 C.3    30  VAL30       0.0252
     36  CG1      -28.4140   25.9290  -19.2330 C.3    30  VAL30       0.0019
     37  CG2      -27.4260   26.0040  -16.9390 C.3    30  VAL30       0.0019
     38  N        -29.2350   25.8090  -12.1330 N.3    32  LYS32      -0.1245
     39  CA       -29.3990   24.6140  -11.3350 C.3    32  LYS32       0.1561
     40  C        -30.2440   24.9760  -10.1120 C.2    32  LYS32       0.2260
     41  O        -29.9240   25.9160   -9.3780 O.2    32  LYS32      -0.2867
     42  CB       -28.0280   24.1000  -10.9030 C.3    32  LYS32       0.0271
     43  CG       -28.0630   22.7930  -10.1370 C.3    32  LYS32       0.0035
     44  CD       -26.7730   22.6150   -9.3490 C.3    32  LYS32       0.0206
     45  CE       -25.5620   23.0090  -10.1820 C.3    32  LYS32       0.1093
     46  NZ       -24.3480   23.2310   -9.3420 N.3    32  LYS32      -0.1314
     47  N        -17.0060   25.7210  -17.1810 N.3    63  VAL63      -0.1245
     48  CA       -18.3710   26.2210  -17.2900 C.3    63  VAL63       0.1561
     49  C        -18.4810   27.5260  -16.4980 C.2    63  VAL63       0.2260
     50  O        -18.1040   27.5880  -15.3280 O.2    63  VAL63      -0.2867
     51  CB       -19.4110   25.2210  -16.7720 C.3    63  VAL63       0.0252
     52  CG1      -20.7770   25.8950  -16.6840 C.3    63  VAL63       0.0019
     53  CG2      -19.4650   23.9900  -17.6660 C.3    63  VAL63       0.0019
     54  N        -25.7740   30.0430  -14.9740 N.3    81  MET81      -0.1230
     55  CA       -24.5150   29.7660  -15.6550 C.3    81  MET81       0.1702
     56  C        -24.7160   29.6780  -17.1570 C.2    81  MET81       0.2592
     57  O        -25.8510   29.6690  -17.6360 O.2    81  MET81      -0.2718
     58  CB       -23.9340   28.4580  -15.1340 C.3    81  MET81       0.0401
     59  CG       -24.7510   27.2470  -15.5050 C.3    81  MET81       0.0596
     60  SD       -24.2470   25.7510  -14.6370 S.3    81  MET81      -0.1393
     61  CE       -25.0290   25.9730  -13.0360 C.3    81  MET81       0.0692
     62  N        -23.6190   29.6030  -17.9040 N.am   82  GLU82      -0.1966
     63  CA       -23.7230   29.5230  -19.3590 C.3    82  GLU82       0.1733
     64  C        -24.4110   28.2320  -19.7890 C.2    82  GLU82       0.2616
     65  O        -24.3700   27.2220  -19.0800 O.2    82  GLU82      -0.2715
     66  CB       -22.3470   29.6190  -20.0300 C.3    82  GLU82       0.0429
     67  CG       -21.4440   28.4050  -19.8150 C.3    82  GLU82       0.1163
     68  CD       -20.0610   28.5970  -20.4550 C.2    82  GLU82       0.3649
     69  OE1      -19.9840   28.6790  -21.7010 O.co2  82  GLU82      -0.2457
     70  OE2      -19.0600   28.6840  -19.7140 O.co2  82  GLU82      -0.2457
     71  N        -25.0350   28.2800  -20.9620 N.am   83  TYR83      -0.1960
     72  CA       -25.6730   27.1150  -21.5610 C.3    83  TYR83       0.1771
     73  C        -24.6990   26.4570  -22.5190 C.2    83  TYR83       0.2620
     74  O        -24.0870   27.1290  -23.3480 O.2    83  TYR83      -0.2715
     75  CB       -26.9220   27.5540  -22.3250 C.3    83  TYR83       0.0574
     76  CG       -27.5870   26.4870  -23.1740 C.ar   83  TYR83      -0.0198
     77  CD1      -28.0380   25.2910  -22.6080 C.ar   83  TYR83      -0.0009
     78  CD2      -27.8090   26.6940  -24.5360 C.ar   83  TYR83      -0.0009
     79  CE1      -28.6690   24.3260  -23.3790 C.ar   83  TYR83       0.0417
     80  CE2      -28.4480   25.7310  -25.3140 C.ar   83  TYR83       0.0417
     81  CZ       -28.8770   24.5530  -24.7300 C.ar   83  TYR83       0.1957
     82  OH       -29.5000   23.5870  -25.4970 O.3    83  TYR83      -0.2866
     83  N        -24.5630   25.1430  -22.4050 N.am   84  CYS84      -0.1954
     84  CA       -23.6930   24.3880  -23.2880 C.3    84  CYS84       0.1843
     85  C        -24.5340   23.5470  -24.2260 C.2    84  CYS84       0.2625
     86  O        -24.9440   22.4310  -23.8870 O.2    84  CYS84      -0.2714
     87  CB       -22.7420   23.5170  -22.4720 C.3    84  CYS84       0.0997
     88  SG       -21.6310   24.4910  -21.4050 S.3    84  CYS84      -0.0797
     89  N        -24.7990   24.0950  -25.4080 N.am   85  GLU85      -0.1977
     90  CA       -25.8070   23.5170  -26.2870 C.3    85  GLU85       0.1602
     91  C        -25.4800   22.0890  -26.7380 C.2    85  GLU85       0.2287
     92  O        -26.3680   21.3540  -27.1630 O.2    85  GLU85      -0.2864
     93  CB       -26.0390   24.4230  -27.5010 C.3    85  GLU85       0.0415
     94  CG       -25.0740   24.1660  -28.6310 C.3    85  GLU85       0.1163
     95  CD       -25.5320   24.7970  -29.9230 C.2    85  GLU85       0.3649
     96  OE1      -25.5890   24.0770  -30.9390 O.co2  85  GLU85      -0.2457
     97  OE2      -25.8460   26.0050  -29.9160 O.co2  85  GLU85      -0.2457
     98  N        -24.3380   19.6540  -24.8620 N.3    87  GLY87      -0.1210
     99  CA       -24.5770   18.6480  -23.8380 C.3    87  GLY87       0.1956
    100  C        -23.2840   18.0960  -23.2550 C.2    87  GLY87       0.2611
    101  O        -22.2480   18.7650  -23.2830 O.2    87  GLY87      -0.2717
    102  N        -23.3300   16.8780  -22.7240 N.am   88  ASP88      -0.1973
    103  CA       -22.1590   16.3310  -22.0410 C.3    88  ASP88       0.1709
    104  C        -21.4740   15.2210  -22.8310 C.2    88  ASP88       0.2293
    105  O        -22.0510   14.6730  -23.7680 O.2    88  ASP88      -0.2864
    106  CB       -22.4830   15.9090  -20.5980 C.3    88  ASP88       0.1436
    107  CG       -23.4260   14.7160  -20.5240 C.2    88  ASP88       0.3671
    108  OD1      -23.8740   14.2230  -21.5730 O.co2  88  ASP88      -0.2456
    109  OD2      -23.7220   14.2700  -19.4000 O.co2  88  ASP88      -0.2456
    110  N        -23.0050   11.6050  -23.1260 N.3    91  SER91      -0.1217
    111  CA       -24.0320   11.3660  -24.1360 C.3    91  SER91       0.1889
    112  C        -23.4220   11.2030  -25.5240 C.2    91  SER91       0.2288
    113  O        -23.9400   10.4650  -26.3570 O.2    91  SER91      -0.2866
    114  CB       -25.0750   12.4880  -24.1330 C.3    91  SER91       0.2089
    115  OG       -25.6360   12.6610  -22.8380 O.3    91  SER91      -0.2183
    116  N        -19.4740   12.6750  -17.8430 N.3   132  ALA132     -0.1231
    117  CA       -20.6850   13.3770  -17.4290 C.3   132  ALA132      0.1694
    118  C        -20.4220   14.8050  -16.9340 C.2   132  ALA132      0.2592
    119  O        -21.3460   15.6080  -16.8320 O.2   132  ALA132     -0.2718
    120  CB       -21.4480   12.5550  -16.3630 C.3   132  ALA132      0.0304
    121  N        -19.1650   15.1200  -16.6290 N.am  133  ASN133     -0.1974
    122  CA       -18.8170   16.4400  -16.1110 C.3   133  ASN133      0.1688
    123  C        -18.0870   17.3050  -17.1480 C.2   133  ASN133      0.2292
    124  O        -17.5050   18.3390  -16.8110 O.2   133  ASN133     -0.2864
    125  CB       -17.9610   16.3150  -14.8480 C.3   133  ASN133      0.1181
    126  CG       -17.8080   17.6420  -14.1150 C.2   133  ASN133      0.2629
    127  OD1      -18.7210   18.4730  -14.1140 O.2   133  ASN133     -0.2716
    128  ND2      -16.6520   17.8460  -13.4890 N.am  133  ASN133     -0.0877
    129  N        -18.6490   19.3300  -20.7970 N.3   135  PHE135     -0.1241
    130  CA       -19.7150   19.8690  -21.6310 C.3   135  PHE135      0.1605
    131  C        -19.1910   20.5380  -22.9050 C.2   135  PHE135      0.2264
    132  O        -18.0420   20.9670  -22.9650 O.2   135  PHE135     -0.2867
    133  CB       -20.5840   20.8040  -20.7860 C.3   135  PHE135      0.0534
    134  CG       -21.1510   20.1150  -19.5710 C.ar  135  PHE135     -0.0203
    135  CD1      -22.3570   19.4470  -19.6420 C.ar  135  PHE135     -0.0042
    136  CD2      -20.4320   20.0630  -18.3890 C.ar  135  PHE135     -0.0042
    137  CE1      -22.8670   18.7760  -18.5390 C.ar  135  PHE135     -0.0003
    138  CE2      -20.9310   19.3880  -17.2780 C.ar  135  PHE135     -0.0003
    139  CZ       -22.1510   18.7380  -17.3600 C.ar  135  PHE135     -0.0000
    140  N        -17.2340   21.0290  -15.9720 N.3   145  GLY145     -0.1210
    141  CA       -18.2340   21.4460  -14.9970 C.3   145  GLY145      0.1956
    142  C        -17.8360   20.9920  -13.6010 C.2   145  GLY145      0.2611
    143  O        -16.6520   20.8160  -13.3180 O.2   145  GLY145     -0.2717
    144  N        -18.8160   20.7950  -12.7230 N.am  146  ASP146     -0.1973
    145  CA       -18.5340   20.2250  -11.4020 C.3   146  ASP146      0.1709
    146  C        -19.6000   19.2240  -10.9660 C.2   146  ASP146      0.2293
    147  O        -19.2820   18.1030  -10.5680 O.2   146  ASP146     -0.2864
    148  CB       -18.3660   21.3230  -10.3530 C.3   146  ASP146      0.1436
    149  CG       -19.5730   22.2310  -10.2650 C.2   146  ASP146      0.3671
    150  OD1      -20.6990   21.7180  -10.0770 O.co2 146  ASP146     -0.2456
    151  OD2      -19.3960   23.4620  -10.3780 O.co2 146  ASP146     -0.2456
@<TRIPOS>BOND
     1    96    95   ar
     2    95    97   ar
     3    95    94    1
     4    94    93    1
     5    93    90    1
     6    92    91    2
     7    91    90    1
     8   113   112    2
     9    90    89    1
    10   112   111    1
    11    82    81    1
    12    89    85   am
    13    80    81   ar
    14    80    78   ar
    15    12    11    1
    16    98    99    1
    17    81    79   ar
    18    78    76   ar
    19    85    86    2
    20    85    84    1
    21    10    11   ar
    22    10     8   ar
    23   111   114    1
    24   111   110    1
    25   114   115    1
    26    11     9   ar
    27    99   100    1
    28   105   104    2
    29    79    77   ar
    30    74    73    2
    31     8     6   ar
    32    84    87    1
    33    84    83    1
    34   101   100    2
    35   100   102   am
    36    76    77   ar
    37    76    75    1
    38     9     7   ar
    39   132   131    2
    40   131   130    1
    41   104   103    1
    42   102   103    1
    43    73    83   am
    44    73    72    1
    45    87    88    1
    46     6     7   ar
    47     6     5    1
    48    75    72    1
    49   103   106    1
    50    69    68   ar
    51   130   129    1
    52   130   133    1
    53   108   107   ar
    54    72    71    1
    55     5     2    1
    56    71    64   am
    57   133   134    1
    58   106   107    1
    59   107   109   ar
    60    68    67    1
    61    68    70   ar
    62     1     2    1
    63    18    20    1
    64    18    17    1
    65     2     3    1
    66    66    67    1
    67    66    63    1
    68    19    17    1
    69    64    63    1
    70    64    65    2
    71   135   134   ar
    72   135   137   ar
    73   134   136   ar
    74    17    14    1
    75    63    62    1
    76    14    13    1
    77    14    15    1
    78     3     4    2
    79    36    35    1
    80    16    15    2
    81    15    21   am
    82   137   139   ar
    83   136   138   ar
    84    31    32    1
    85    62    56   am
    86   116   117    1
    87    35    32    1
    88    35    37    1
    89    53    51    1
    90    57    56    2
    91    32    33    1
    92   117   118    1
    93   117   120    1
    94   139   138   ar
    95    48    47    1
    96    48    51    1
    97    48    49    1
    98    21    22    1
    99    56    55    1
   100   123   124    2
   101   123   122    1
   102   118   119    2
   103   118   121   am
   104    51    52    1
   105   121   122    1
   106    49    50    2
   107    22    23    1
   108    30    29    1
   109    28    27    2
   110   122   125    1
   111    33    34    2
   112   140   141    1
   113    55    58    1
   114    55    54    1
   115    59    58    1
   116    59    60    1
   117    27    26    1
   118    29    26    1
   119    23    24    2
   120   141   142    1
   121   125   126    1
   122    60    61    1
   123    26    25    1
   124   126   127    2
   125   126   128   am
   126   142   143    2
   127   142   144   am
   128   144   145    1
   129    38    39    1
   130   145   146    1
   131   145   148    1
   132    39    42    1
   133    39    40    1
   134   146   147    2
   135    42    43    1
   136   151   149   ar
   137   148   149    1
   138   149   150   ar
   139    45    44    1
   140    45    46    1
   141    43    44    1
   142    40    41    2
