@<TRIPOS>MOLECULE
tmp/2xk8A00.pdb
 165 159 0 0 0
SMALL
GASTEIGER

@<TRIPOS>ATOM
      1  N         37.0990    4.5310  -20.0240 N.3    10  TYR10      -0.1241
      2  CA        37.4230    5.9260  -19.7320 C.3    10  TYR10       0.1605
      3  C         36.2900    6.6240  -18.9920 C.2    10  TYR10       0.2264
      4  O         35.1700    6.1270  -18.9270 O.2    10  TYR10      -0.2867
      5  CB        37.7350    6.6860  -21.0170 C.3    10  TYR10       0.0534
      6  CG        36.6070    6.6170  -22.0020 C.ar   10  TYR10      -0.0201
      7  CD1       35.6120    7.5820  -22.0180 C.ar   10  TYR10      -0.0009
      8  CD2       36.5170    5.5610  -22.9000 C.ar   10  TYR10      -0.0009
      9  CE1       34.5570    7.5060  -22.9130 C.ar   10  TYR10       0.0417
     10  CE2       35.4710    5.4790  -23.8010 C.ar   10  TYR10       0.0417
     11  CZ        34.5000    6.4510  -23.8030 C.ar   10  TYR10       0.1957
     12  OH        33.4690    6.3590  -24.7020 O.3    10  TYR10      -0.2866
     13  N         33.4640    9.3280  -18.2480 N.3    12  ILE12      -0.1231
     14  CA        32.4750   10.1280  -18.9560 C.3    12  ILE12       0.1692
     15  C         32.3000   11.4900  -18.2880 C.2    12  ILE12       0.2592
     16  O         32.4080   12.5200  -18.9450 O.2    12  ILE12      -0.2718
     17  CB        31.1280    9.3920  -19.0380 C.3    12  ILE12       0.0266
     18  CG1       31.2570    8.1850  -19.9770 C.3    12  ILE12       0.0019
     19  CG2       30.0330   10.3270  -19.5230 C.3    12  ILE12       0.0020
     20  CD1       30.0760    7.2220  -19.9280 C.3    12  ILE12       0.0001
     21  N         32.0490   11.4880  -16.9800 N.am   13  GLY13      -0.1957
     22  CA        31.8870   12.7210  -16.2260 C.3    13  GLY13       0.1869
     23  C         32.2820   12.5980  -14.7630 C.2    13  GLY13       0.2309
     24  O         32.5840   11.5080  -14.2770 O.2    13  GLY13      -0.2863
     25  N         31.5590    9.0060  -13.1390 N.3    16  CYS16      -0.1235
     26  CA        30.8310    8.0940  -14.0120 C.3    16  CYS16       0.1677
     27  C         31.7570    7.6130  -15.1270 C.2    16  CYS16       0.2270
     28  O         32.4140    8.4180  -15.7890 O.2    16  CYS16      -0.2867
     29  CB        29.6010    8.7980  -14.6010 C.3    16  CYS16       0.0956
     30  SG        28.8540    7.9570  -16.0120 S.3    16  CYS16      -0.0801
     31  N         28.0700    1.2760  -17.9060 N.3    29  VAL29      -0.1245
     32  CA        28.7510    2.3340  -17.1910 C.3    29  VAL29       0.1561
     33  C         28.6230    2.0550  -15.7100 C.2    29  VAL29       0.2260
     34  O         27.7490    1.3040  -15.2850 O.2    29  VAL29      -0.2867
     35  CB        28.1980    3.7490  -17.4980 C.3    29  VAL29       0.0252
     36  CG1       27.6890    3.8450  -18.9200 C.3    29  VAL29       0.0019
     37  CG2       27.1410    4.1380  -16.4970 C.3    29  VAL29       0.0019
     38  N         28.7780    4.2510  -11.8060 N.3    31  LYS31      -0.1245
     39  CA        28.9010    5.4980  -11.0810 C.3    31  LYS31       0.1561
     40  C         29.6090    5.1850   -9.7700 C.2    31  LYS31       0.2260
     41  O         29.2460    4.2280   -9.0770 O.2    31  LYS31      -0.2867
     42  CB        27.5120    6.0980  -10.8320 C.3    31  LYS31       0.0271
     43  CG        27.4980    7.2520   -9.8470 C.3    31  LYS31       0.0035
     44  CD        26.1560    7.9700   -9.8470 C.3    31  LYS31       0.0206
     45  CE        25.0170    7.0590   -9.4110 C.3    31  LYS31       0.1093
     46  NZ        23.7420    7.8200   -9.2300 N.3    31  LYS31      -0.1314
     47  N         16.5320    4.0680  -16.9820 N.3    62  VAL62      -0.1245
     48  CA        17.8900    3.5440  -17.0790 C.3    62  VAL62       0.1561
     49  C         17.9810    2.2860  -16.2280 C.2    62  VAL62       0.2260
     50  O         17.5970    2.2920  -15.0620 O.2    62  VAL62      -0.2867
     51  CB        18.9610    4.5790  -16.6690 C.3    62  VAL62       0.0252
     52  CG1       20.3470    3.9190  -16.6070 C.3    62  VAL62       0.0019
     53  CG2       18.9720    5.7600  -17.6450 C.3    62  VAL62       0.0019
     54  N         19.4800   -0.5510  -13.9760 N.3    64  TYR64      -0.1241
     55  CA        20.5740   -0.7680  -13.0380 C.3    64  TYR64       0.1605
     56  C         20.8430   -2.2600  -12.8700 C.2    64  TYR64       0.2264
     57  O         19.9520   -3.0240  -12.5070 O.2    64  TYR64      -0.2867
     58  CB        20.2850   -0.0740  -11.7090 C.3    64  TYR64       0.0534
     59  CG        20.1420    1.4250  -11.8840 C.ar   64  TYR64      -0.0201
     60  CD1       21.2550    2.2530  -11.8760 C.ar   64  TYR64      -0.0009
     61  CD2       18.8960    2.0050  -12.0940 C.ar   64  TYR64      -0.0009
     62  CE1       21.1330    3.6200  -12.0520 C.ar   64  TYR64       0.0417
     63  CE2       18.7640    3.3690  -12.2710 C.ar   64  TYR64       0.0417
     64  CZ        19.8880    4.1710  -12.2510 C.ar   64  TYR64       0.1957
     65  OH        19.7630    5.5300  -12.4260 O.3    64  TYR64      -0.2866
     66  N         25.3020    0.2460  -14.5330 N.3    80  MET80      -0.1230
     67  CA        24.0640    0.4830  -15.2500 C.3    80  MET80       0.1702
     68  C         24.2530    0.3920  -16.7490 C.2    80  MET80       0.2592
     69  O         25.3700    0.3100  -17.2590 O.2    80  MET80      -0.2718
     70  CB        23.4860    1.8480  -14.8760 C.3    80  MET80       0.0401
     71  CG        24.3210    3.0090  -15.3740 C.3    80  MET80       0.0596
     72  SD        23.8300    4.5970  -14.6840 S.3    80  MET80      -0.1393
     73  CE        24.5680    4.5130  -13.0550 C.3    80  MET80       0.0692
     74  N         23.1250    0.4100  -17.4360 N.am   81  GLU81      -0.1966
     75  CA        23.0510    0.4650  -18.8710 C.3    81  GLU81       0.1733
     76  C         23.8730    1.6440  -19.4080 C.2    81  GLU81       0.2616
     77  O         23.8810    2.7180  -18.8050 O.2    81  GLU81      -0.2715
     78  CB        21.5660    0.6890  -19.1690 C.3    81  GLU81       0.0429
     79  CG        21.1500    0.6740  -20.5810 C.3    81  GLU81       0.1163
     80  CD        19.6750    1.0280  -20.7390 C.2    81  GLU81       0.3649
     81  OE1       19.2640    1.1900  -21.8970 O.co2  81  GLU81      -0.2457
     82  OE2       18.9370    1.1470  -19.7220 O.co2  81  GLU81      -0.2457
     83  N         24.5320    1.4570  -20.5540 N.am   82  TYR82      -0.1960
     84  CA        25.1700    2.5780  -21.2680 C.3    82  TYR82       0.1771
     85  C         24.2410    3.1910  -22.3160 C.2    82  TYR82       0.2620
     86  O         23.6850    2.4830  -23.1550 O.2    82  TYR82      -0.2715
     87  CB        26.4660    2.1140  -21.9410 C.3    82  TYR82       0.0574
     88  CG        27.1280    3.1250  -22.8590 C.ar   82  TYR82      -0.0198
     89  CD1       27.5830    4.3550  -22.3710 C.ar   82  TYR82      -0.0009
     90  CD2       27.3330    2.8400  -24.2120 C.ar   82  TYR82      -0.0009
     91  CE1       28.2130    5.2730  -23.2040 C.ar   82  TYR82       0.0417
     92  CE2       27.9700    3.7630  -25.0570 C.ar   82  TYR82       0.0417
     93  CZ        28.4050    4.9710  -24.5420 C.ar   82  TYR82       0.1957
     94  OH        29.0350    5.8850  -25.3620 O.3    82  TYR82      -0.2866
     95  N         24.0870    4.5120  -22.2600 N.am   83  CYS83      -0.1954
     96  CA        23.2410    5.2400  -23.1940 C.3    83  CYS83       0.1843
     97  C         24.1050    6.0650  -24.1370 C.2    83  CYS83       0.2625
     98  O         24.5240    7.1850  -23.8140 O.2    83  CYS83      -0.2714
     99  CB        22.2460    6.1310  -22.4340 C.3    83  CYS83       0.0997
    100  SG        21.1630    5.1980  -21.2880 S.3    83  CYS83      -0.0797
    101  N         24.3760    5.5040  -25.3080 N.am   84  GLU84      -0.1963
    102  CA        25.3860    6.0690  -26.1980 C.3    84  GLU84       0.1733
    103  C         25.0530    7.4650  -26.7250 C.2    84  GLU84       0.2617
    104  O         25.9460    8.1840  -27.1870 O.2    84  GLU84      -0.2715
    105  CB        25.6370    5.1340  -27.3770 C.3    84  GLU84       0.0429
    106  CG        24.5840    5.2930  -28.4510 C.3    84  GLU84       0.1163
    107  CD        25.0080    4.7140  -29.7770 C.2    84  GLU84       0.3649
    108  OE1       24.9080    5.4300  -30.7950 O.co2  84  GLU84      -0.2457
    109  OE2       25.4260    3.5460  -29.8010 O.co2  84  GLU84      -0.2457
    110  N         23.7770    7.8510  -26.6700 N.am   85  GLY85      -0.1940
    111  CA        23.3710    9.1460  -27.1870 C.3    85  GLY85       0.2014
    112  C         23.5740   10.2780  -26.1950 C.2    85  GLY85       0.2639
    113  O         23.3440   11.4380  -26.5200 O.2    85  GLY85      -0.2714
    114  N         23.9900    9.9400  -24.9770 N.am   86  GLY86      -0.1939
    115  CA        24.2500   10.9380  -23.9450 C.3    86  GLY86       0.2014
    116  C         22.9680   11.5180  -23.3610 C.2    86  GLY86       0.2638
    117  O         21.9160   10.8950  -23.4470 O.2    86  GLY86      -0.2714
    118  N         23.0390   12.7180  -22.7890 N.am   87  ASP87      -0.1971
    119  CA        21.8740   13.2970  -22.1100 C.3    87  ASP87       0.1709
    120  C         21.1900   14.3860  -22.9320 C.2    87  ASP87       0.2293
    121  O         21.7460   14.8610  -23.9080 O.2    87  ASP87      -0.2864
    122  CB        22.2410   13.7970  -20.7120 C.3    87  ASP87       0.1436
    123  CG        23.1510   15.0180  -20.7340 C.2    87  ASP87       0.3671
    124  OD1       23.6480   15.4020  -21.8070 O.co2  87  ASP87      -0.2456
    125  OD2       23.3690   15.5930  -19.6540 O.co2  87  ASP87      -0.2456
    126  N         22.8420   18.0000  -23.3280 N.3    90  SER90      -0.1217
    127  CA        23.8300   18.1780  -24.3900 C.3    90  SER90       0.1889
    128  C         23.1600   18.3590  -25.7410 C.2    90  SER90       0.2288
    129  O         23.6280   19.1270  -26.5800 O.2    90  SER90      -0.2866
    130  CB        24.7930   16.9890  -24.4360 C.3    90  SER90       0.2089
    131  OG        25.4580   16.8430  -23.1940 O.3    90  SER90      -0.2183
    132  N         18.2920   10.4060  -20.8280 N.3   134  PHE134     -0.1241
    133  CA        19.3320    9.8350  -21.6590 C.3   134  PHE134      0.1605
    134  C         18.7690    9.1710  -22.9150 C.2   134  PHE134      0.2264
    135  O         17.6090    8.7430  -22.9480 O.2   134  PHE134     -0.2867
    136  CB        20.1740    8.8580  -20.8220 C.3   134  PHE134      0.0534
    137  CG        20.8110    9.5070  -19.6170 C.ar  134  PHE134     -0.0203
    138  CD1       20.1320    9.5780  -18.4120 C.ar  134  PHE134     -0.0042
    139  CD2       22.0680   10.0810  -19.7030 C.ar  134  PHE134     -0.0042
    140  CE1       20.6970   10.1970  -17.3130 C.ar  134  PHE134     -0.0003
    141  CE2       22.6460   10.6960  -18.6050 C.ar  134  PHE134     -0.0003
    142  CZ        21.9620   10.7600  -17.4130 C.ar  134  PHE134     -0.0000
    143  N         16.7900    8.7930  -15.9700 N.3   144  GLY144     -0.1210
    144  CA        17.8420    8.3360  -15.0860 C.3   144  GLY144      0.1956
    145  C         17.6370    8.8070  -13.6600 C.2   144  GLY144      0.2612
    146  O         16.5020    8.9850  -13.2120 O.2   144  GLY144     -0.2717
    147  N         18.7390    9.0140  -12.9450 N.am  145  ASP145     -0.1959
    148  CA        18.6620    9.4360  -11.5530 C.3   145  ASP145      0.1840
    149  C         20.0070    9.9360  -11.0340 C.2   145  ASP145      0.2622
    150  O         20.7520    9.1890  -10.3990 O.2   145  ASP145     -0.2715
    151  CB        18.1670    8.2810  -10.6820 C.3   145  ASP145      0.1450
    152  CG        17.6640    8.7450   -9.3340 C.2   145  ASP145      0.3671
    153  OD1       16.6640    9.4920   -9.3040 O.co2 145  ASP145     -0.2456
    154  OD2       18.2640    8.3590   -8.3080 O.co2 145  ASP145     -0.2456
    155  N         20.3100   11.2020  -11.3030 N.am  146  PHE146     -0.1974
    156  CA        21.5340   11.8170  -10.8010 C.3   146  PHE146      0.1639
    157  C         21.4820   11.9890   -9.2850 C.2   146  PHE146      0.2290
    158  O         20.9730   11.1270   -8.5660 O.2   146  PHE146     -0.2864
    159  CB        21.7740   13.1680  -11.4780 C.3   146  PHE146      0.0560
    160  CG        22.7620   13.1140  -12.6090 C.ar  146  PHE146     -0.0200
    161  CD1       22.4170   12.5450  -13.8220 C.ar  146  PHE146     -0.0042
    162  CD2       24.0360   13.6390  -12.4590 C.ar  146  PHE146     -0.0042
    163  CE1       23.3260   12.4950  -14.8640 C.ar  146  PHE146     -0.0003
    164  CE2       24.9490   13.5930  -13.4980 C.ar  146  PHE146     -0.0003
    165  CZ        24.5930   13.0200  -14.7020 C.ar  146  PHE146     -0.0000
@<TRIPOS>BOND
     1   108   107   ar
     2   109   107   ar
     3   107   106    1
     4   106   105    1
     5   105   102    1
     6   104   103    2
     7   111   110    1
     8   111   112    1
     9   103   110   am
    10   103   102    1
    11   129   128    2
    12   113   112    2
    13   102   101    1
    14   112   114   am
    15   128   127    1
    16    94    93    1
    17   101    97   am
    18    92    93   ar
    19    92    90   ar
    20   114   115    1
    21    12    11    1
    22    93    91   ar
    23   130   127    1
    24   130   131    1
    25   127   126    1
    26    90    88   ar
    27    97    98    2
    28    97    96    1
    29   115   116    1
    30   121   120    2
    31    11    10   ar
    32    11     9   ar
    33    10     8   ar
    34   117   116    2
    35   116   118   am
    36    91    89   ar
    37    96    99    1
    38    96    95    1
    39    86    85    2
    40   135   134    2
    41   120   119    1
    42   134   133    1
    43     9     7   ar
    44     8     6   ar
    45    88    89   ar
    46    88    87    1
    47   118   119    1
    48    99   100    1
    49    85    95   am
    50    85    84    1
    51   119   122    1
    52     7     6   ar
    53     6     5    1
    54    87    84    1
    55    81    80   ar
    56   124   123   ar
    57   133   132    1
    58   133   136    1
    59    84    83    1
    60     5     2    1
    61   136   137    1
    62    80    79    1
    63    80    82   ar
    64   123   122    1
    65   123   125   ar
    66    79    78    1
    67    83    76   am
    68     1     2    1
    69    18    20    1
    70    18    17    1
    71     2     3    1
    72   139   137   ar
    73   139   141   ar
    74   137   138   ar
    75    19    17    1
    76    76    75    1
    77    76    77    2
    78    78    75    1
    79    17    14    1
    80     3     4    2
    81    14    15    1
    82    14    13    1
    83    16    15    2
    84    36    35    1
    85    75    74    1
    86   141   142   ar
    87   138   140   ar
    88    15    21   am
    89    31    32    1
    90    53    51    1
    91    35    32    1
    92    35    37    1
    93    74    68   am
    94   142   140   ar
    95    69    68    2
    96    32    33    1
    97    48    47    1
    98    48    51    1
    99    48    49    1
   100    21    22    1
   101    68    67    1
   102    51    52    1
   103    49    50    2
   104    22    23    1
   105    30    29    1
   106   143   144    1
   107    28    27    2
   108    33    34    2
   109    71    70    1
   110    71    72    1
   111    67    70    1
   112    67    66    1
   113    27    26    1
   114   144   145    1
   115   163   165   ar
   116   163   161   ar
   117    23    24    2
   118   165   164   ar
   119    72    73    1
   120    29    26    1
   121    26    25    1
   122    54    55    1
   123   161   160   ar
   124   145   146    2
   125   145   147   am
   126   164   162   ar
   127    55    56    1
   128    55    58    1
   129   147   148    1
   130    56    57    2
   131   160   162   ar
   132   160   159    1
   133    65    64    1
   134    63    64   ar
   135    63    61   ar
   136    64    62   ar
   137    61    59   ar
   138    62    60   ar
   139    59    60   ar
   140    59    58    1
   141    38    39    1
   142   148   149    1
   143   148   151    1
   144   159   156    1
   145   155   149   am
   146   155   156    1
   147    39    42    1
   148    39    40    1
   149   149   150    2
   150    42    43    1
   151   156   157    1
   152   151   152    1
   153    44    43    1
   154    44    45    1
   155    40    41    2
   156    45    46    1
   157   152   153   ar
   158   152   154   ar
   159   157   158    2
