@<TRIPOS>MOLECULE
tmp/2xk9A00.pdb
 196 178 0 0 0
SMALL
GASTEIGER

@<TRIPOS>ATOM
      1  N        -50.5750   22.8020   -7.0190 N.3    16  LEU16      -0.1231
      2  CA       -49.5020   22.2630   -6.1890 C.3    16  LEU16       0.1693
      3  C        -48.1840   22.3540   -6.9520 C.2    16  LEU16       0.2592
      4  O        -47.1550   22.6300   -6.3720 O.2    16  LEU16      -0.2718
      5  CB       -49.8090   20.8040   -5.7830 C.3    16  LEU16       0.0284
      6  CG       -51.0530   20.5330   -4.9170 C.3    16  LEU16       0.0019
      7  CD1      -51.4410   19.0440   -4.9040 C.3    16  LEU16       0.0001
      8  CD2      -50.8490   21.0220   -3.5020 C.3    16  LEU16       0.0001
      9  N        -48.2360   22.1110   -8.2550 N.am   17  GLY17      -0.1957
     10  CA       -47.0610   22.1460   -9.1270 C.3    17  GLY17       0.1869
     11  C        -47.4120   22.5340  -10.5620 C.2    17  GLY17       0.2309
     12  O        -48.5730   22.4390  -10.9870 O.2    17  GLY17      -0.2863
     13  N        -50.2350   20.2000  -11.7640 N.3    23  VAL23      -0.1245
     14  CA       -50.8280   19.3350  -10.7410 C.3    23  VAL23       0.1561
     15  C        -51.6970   20.1600   -9.8000 C.2    23  VAL23       0.2260
     16  O        -51.2310   21.1710   -9.2850 O.2    23  VAL23      -0.2867
     17  CB       -49.7590   18.6090   -9.9060 C.3    23  VAL23       0.0252
     18  CG1      -50.4170   17.7840   -8.8520 C.3    23  VAL23       0.0019
     19  CG2      -48.8960   17.7150  -10.7720 C.3    23  VAL23       0.0019
     20  N        -54.6890   14.3910   -5.7020 N.3    36  ALA36      -0.1245
     21  CA       -53.9020   15.2430   -6.5570 C.3    36  ALA36       0.1562
     22  C        -54.3800   14.9210   -7.9530 C.2    36  ALA36       0.2260
     23  O        -54.6790   13.7470   -8.2400 O.2    36  ALA36      -0.2867
     24  CB       -52.4500   14.9070   -6.4240 C.3    36  ALA36       0.0290
     25  N        -53.2520   15.3470  -11.9360 N.3    38  LYS38      -0.1245
     26  CA       -52.2460   15.7320  -12.9000 C.3    38  LYS38       0.1561
     27  C        -52.9760   16.0290  -14.1800 C.2    38  LYS38       0.2260
     28  O        -53.6990   15.1760  -14.6830 O.2    38  LYS38      -0.2867
     29  CB       -51.2590   14.5770  -13.1110 C.3    38  LYS38       0.0271
     30  CG       -50.2520   14.7890  -14.2240 C.3    38  LYS38       0.0035
     31  CD       -49.3000   15.9260  -13.9370 C.3    38  LYS38       0.0206
     32  CE       -48.1490   15.9320  -14.9500 C.3    38  LYS38       0.1093
     33  NZ       -47.3550   17.1950  -14.8630 N.3    38  LYS38      -0.1314
     34  N        -52.5210   16.9620  -18.1420 N.3    40  ILE40      -0.1245
     35  CA       -51.5640   16.9100  -19.2370 C.3    40  ILE40       0.1561
     36  C        -52.2540   17.4350  -20.4900 C.2    40  ILE40       0.2260
     37  O        -53.2870   16.9080  -20.9000 O.2    40  ILE40      -0.2867
     38  CB       -51.0710   15.4800  -19.5050 C.3    40  ILE40       0.0252
     39  CG1      -50.2980   14.9390  -18.3050 C.3    40  ILE40       0.0019
     40  CG2      -50.1740   15.4380  -20.7610 C.3    40  ILE40       0.0019
     41  CD1      -50.1330   13.4130  -18.3390 C.3    40  ILE40       0.0001
     42  N        -50.4990    8.1970  -23.6170 N.3    44  VAL44      -0.1245
     43  CA       -50.8820    8.5360  -22.2530 C.3    44  VAL44       0.1561
     44  C        -51.8370    7.4560  -21.7570 C.2    44  VAL44       0.2260
     45  O        -51.7610    7.0350  -20.6080 O.2    44  VAL44      -0.2867
     46  CB       -51.4700    9.9550  -22.1200 C.3    44  VAL44       0.0252
     47  CG1      -51.9350   10.2150  -20.6820 C.3    44  VAL44       0.0019
     48  CG2      -50.4300   10.9770  -22.5040 C.3    44  VAL44       0.0019
     49  N        -49.5760    4.7610  -20.8000 N.3    47  GLU47      -0.1245
     50  CA       -49.0320    5.0680  -19.4820 C.3    47  GLU47       0.1567
     51  C        -50.0510    4.7120  -18.3820 C.2    47  GLU47       0.2260
     52  O        -49.6980    4.1510  -17.3460 O.2    47  GLU47      -0.2867
     53  CB       -48.6080    6.5400  -19.4190 C.3    47  GLU47       0.0388
     54  CG       -48.1040    6.9750  -18.0650 C.3    47  GLU47       0.1160
     55  CD       -47.7450    8.4550  -17.9810 C.2    47  GLU47       0.3649
     56  OE1      -47.3780    8.8910  -16.8720 O.co2  47  GLU47      -0.2457
     57  OE2      -47.8190    9.1870  -19.0010 O.co2  47  GLU47      -0.2457
     58  N        -49.6180    1.9080  -15.5430 N.3    51  LEU51      -0.1245
     59  CA       -49.8190    2.2270  -14.1420 C.3    51  LEU51       0.1561
     60  C        -51.0180    1.5600  -13.4530 C.2    51  LEU51       0.2260
     61  O        -51.0360    1.4890  -12.2290 O.2    51  LEU51      -0.2867
     62  CB       -49.8870    3.7290  -13.9550 C.3    51  LEU51       0.0270
     63  CG       -48.5100    4.3770  -14.0210 C.3    51  LEU51       0.0019
     64  CD1      -48.6510    5.8640  -13.7150 C.3    51  LEU51       0.0001
     65  CD2      -47.4780    3.6590  -13.0600 C.3    51  LEU51       0.0001
     66  N        -46.3450    5.2390   -7.7870 N.3    60  ILE60      -0.1245
     67  CA       -47.6160    5.9710   -7.7890 C.3    60  ILE60       0.1561
     68  C        -48.7700    5.0800   -8.2740 C.2    60  ILE60       0.2260
     69  O        -48.5860    4.3300   -9.2190 O.2    60  ILE60      -0.2867
     70  CB       -47.4160    7.2660   -8.6690 C.3    60  ILE60       0.0252
     71  CG1      -48.1470    8.4500   -8.0750 C.3    60  ILE60       0.0019
     72  CG2      -47.7610    7.0550  -10.1770 C.3    60  ILE60       0.0019
     73  CD1      -47.5780    8.9160   -6.7790 C.3    60  ILE60       0.0001
     74  N        -52.8560    5.0670   -9.8110 N.3    62  ILE62      -0.1245
     75  CA       -53.9000    5.8620  -10.4440 C.3    62  ILE62       0.1561
     76  C        -55.2130    5.5160   -9.7550 C.2    62  ILE62       0.2260
     77  O        -55.5290    4.3590   -9.6320 O.2    62  ILE62      -0.2867
     78  CB       -54.0350    5.5620  -11.9690 C.3    62  ILE62       0.0252
     79  CG1      -52.6800    5.6860  -12.6730 C.3    62  ILE62       0.0019
     80  CG2      -55.0710    6.4930  -12.6620 C.3    62  ILE62       0.0019
     81  CD1      -51.7570    6.8110  -12.1310 C.3    62  ILE62       0.0001
     82  N        -55.4230   12.8810  -14.5970 N.3    73  ILE73      -0.1245
     83  CA       -55.0760   11.6400  -13.9240 C.3    73  ILE73       0.1561
     84  C        -55.1770   11.9110  -12.4400 C.2    73  ILE73       0.2260
     85  O        -54.4710   12.7580  -11.9330 O.2    73  ILE73      -0.2867
     86  CB       -53.6170   11.2250  -14.2210 C.3    73  ILE73       0.0252
     87  CG1      -53.3830   11.0870  -15.7200 C.3    73  ILE73       0.0019
     88  CG2      -53.2520    9.9510  -13.4930 C.3    73  ILE73       0.0019
     89  CD1      -51.9070   11.1650  -16.0930 C.3    73  ILE73       0.0001
     90  N        -54.6120   10.9280   -8.5780 N.3    75  LEU75      -0.1231
     91  CA       -53.8040   10.0670   -7.7460 C.3    75  LEU75       0.1693
     92  C        -53.7890   10.4450   -6.2890 C.2    75  LEU75       0.2592
     93  O        -54.3440   11.4650   -5.8910 O.2    75  LEU75      -0.2718
     94  CB       -52.3830    9.9770   -8.2980 C.3    75  LEU75       0.0284
     95  CG       -51.5740   11.2230   -8.6250 C.3    75  LEU75       0.0019
     96  CD1      -50.0970   10.8930   -8.4370 C.3    75  LEU75       0.0001
     97  CD2      -51.8070   11.6700  -10.0440 C.3    75  LEU75       0.0001
     98  N        -53.1590    9.5860   -5.4910 N.am   76  GLU76      -0.1966
     99  CA       -52.9780    9.8510   -4.0720 C.3    76  GLU76       0.1733
    100  C        -52.1370   11.1090   -3.8870 C.2    76  GLU76       0.2616
    101  O        -51.2240   11.3910   -4.6700 O.2    76  GLU76      -0.2715
    102  CB       -52.3740    8.6270   -3.3230 C.3    76  GLU76       0.0429
    103  CG       -50.9260    8.1510   -3.7610 C.3    76  GLU76       0.1163
    104  CD       -50.9220    6.9400   -4.7480 C.2    76  GLU76       0.3649
    105  OE1      -51.9620    6.7370   -5.4380 O.co2  76  GLU76      -0.2457
    106  OE2      -49.8910    6.1980   -4.8200 O.co2  76  GLU76      -0.2457
    107  N        -52.4850   11.8810   -2.8680 N.am   77  LEU77      -0.1963
    108  CA       -51.7910   13.1090   -2.5570 C.3    77  LEU77       0.1728
    109  C        -50.4310   12.7800   -1.9180 C.2    77  LEU77       0.2616
    110  O        -50.3410   11.9080   -1.0610 O.2    77  LEU77      -0.2715
    111  CB       -52.6460   13.9510   -1.6090 C.3    77  LEU77       0.0311
    112  CG       -52.2420   15.3980   -1.4060 C.3    77  LEU77       0.0022
    113  CD1      -52.4920   16.1720   -2.6710 C.3    77  LEU77       0.0001
    114  CD2      -53.0030   16.0180   -0.2240 C.3    77  LEU77       0.0001
    115  N        -49.3780   13.4620   -2.3600 N.am   78  MET78      -0.1963
    116  CA       -48.0430   13.2990   -1.8000 C.3    78  MET78       0.1736
    117  C        -47.6270   14.6530   -1.2390 C.2    78  MET78       0.2616
    118  O        -46.9590   15.4240   -1.9010 O.2    78  MET78      -0.2715
    119  CB       -47.0510   12.7880   -2.8670 C.3    78  MET78       0.0427
    120  CG       -47.3490   11.3480   -3.3510 C.3    78  MET78       0.0599
    121  SD       -47.1980   10.0490   -2.0760 S.3    78  MET78      -0.1393
    122  CE       -45.3990    9.8960   -2.0020 C.3    78  MET78       0.0692
    123  N        -48.0300   14.9080    0.0000 N.am   79  GLU79      -0.1977
    124  CA       -47.9180   16.2310    0.6390 C.3    79  GLU79       0.1602
    125  C        -46.4850   16.7640    0.7100 C.2    79  GLU79       0.2287
    126  O        -46.2800   17.9730    0.7960 O.2    79  GLU79      -0.2864
    127  CB       -48.5520   16.2070    2.0530 C.3    79  GLU79       0.0415
    128  CG       -50.1150   16.1520    2.0450 C.3    79  GLU79       0.1163
    129  CD       -50.7380   15.9900    3.4540 C.2    79  GLU79       0.3649
    130  OE1      -50.1560   15.2280    4.2750 O.co2  79  GLU79      -0.2457
    131  OE2      -51.8030   16.6210    3.7430 O.co2  79  GLU79      -0.2457
    132  N        -44.2600   16.7740   -1.6560 N.3    81  GLY81      -0.1210
    133  CA       -43.7760   17.3630   -2.9070 C.3    81  GLY81       0.1956
    134  C        -42.6990   16.5250   -3.5850 C.2    81  GLY81       0.2611
    135  O        -42.5100   15.3510   -3.2540 O.2    81  GLY81      -0.2717
    136  N        -42.0000   17.1520   -4.5310 N.am   82  GLU82      -0.1979
    137  CA       -40.9510   16.5140   -5.3250 C.3    82  GLU82       0.1602
    138  C        -39.6580   16.4740   -4.5450 C.2    82  GLU82       0.2287
    139  O        -39.3920   17.3840   -3.7850 O.2    82  GLU82      -0.2864
    140  CB       -40.7050   17.2950   -6.6220 C.3    82  GLU82       0.0415
    141  CG       -41.9550   17.5380   -7.4800 C.3    82  GLU82       0.1163
    142  CD       -41.6780   18.3260   -8.7830 C.2    82  GLU82       0.3649
    143  OE1      -42.5600   18.2820   -9.6840 O.co2  82  GLU82      -0.2457
    144  OE2      -40.6010   18.9920   -8.9180 O.co2  82  GLU82      -0.2457
    145  N        -37.0870   19.6040   -4.8820 N.3    85  ASP85      -0.1239
    146  CA       -37.0810   20.7700   -3.9920 C.3    85  ASP85       0.1674
    147  C        -36.2040   20.6080   -2.7650 C.2    85  ASP85       0.2266
    148  O        -35.7720   21.5950   -2.1900 O.2    85  ASP85      -0.2867
    149  CB       -38.5010   21.1100   -3.5850 C.3    85  ASP85       0.1410
    150  CG       -39.3470   21.5480   -4.7790 C.2    85  ASP85       0.3668
    151  OD1      -38.7930   22.2800   -5.6400 O.co2  85  ASP85      -0.2456
    152  OD2      -40.5420   21.1600   -4.8670 O.co2  85  ASP85      -0.2456
    153  N        -37.2890   15.3680  -10.0450 N.3   125  GLU125     -0.1231
    154  CA       -38.6450   15.8610  -10.3340 C.3   125  GLU125      0.1699
    155  C        -39.7100   14.7410  -10.3140 C.2   125  GLU125      0.2592
    156  O        -40.8980   15.0320  -10.0520 O.2   125  GLU125     -0.2718
    157  CB       -38.7100   16.5870  -11.6910 C.3   125  GLU125      0.0402
    158  CG       -37.7390   17.7880  -11.8420 C.3   125  GLU125      0.1161
    159  CD       -36.2890   17.4040  -12.2360 C.2   125  GLU125      0.3649
    160  OE1      -35.7140   16.4400  -11.6570 O.co2 125  GLU125     -0.2457
    161  OE2      -35.7160   18.1060  -13.1140 O.co2 125  GLU125     -0.2457
    162  N        -39.2870   13.4890  -10.5710 N.am  126  ASN126     -0.1974
    163  CA       -40.1980   12.3540  -10.7020 C.3   126  ASN126      0.1688
    164  C        -40.2250   11.4370   -9.4890 C.2   126  ASN126      0.2292
    165  O        -40.7470   10.3030   -9.5350 O.2   126  ASN126     -0.2864
    166  CB       -39.8520   11.5800  -11.9770 C.3   126  ASN126      0.1181
    167  CG       -40.2480   12.3390  -13.2240 C.2   126  ASN126      0.2629
    168  OD1      -41.0910   13.2150  -13.1470 O.2   126  ASN126     -0.2716
    169  ND2      -39.6690   11.9970  -14.3790 N.am  126  ASN126     -0.0877
    170  N        -41.5740   11.5050   -5.5850 N.3   128  LEU128     -0.1245
    171  CA       -42.4780   12.2490   -4.7130 C.3   128  LEU128      0.1561
    172  C        -42.3710   11.7800   -3.2700 C.2   128  LEU128      0.2260
    173  O        -42.1760   10.5920   -3.0280 O.2   128  LEU128     -0.2867
    174  CB       -43.9330   12.1130   -5.1770 C.3   128  LEU128      0.0270
    175  CG       -44.2580   12.5280   -6.6010 C.3   128  LEU128      0.0019
    176  CD1      -45.7390   12.2250   -6.9220 C.3   128  LEU128      0.0001
    177  CD2      -43.9150   13.9780   -6.8410 C.3   128  LEU128      0.0001
    178  N        -42.9790    8.4760   -9.9680 N.3   141  THR141     -0.1203
    179  CA       -44.0310    8.8930  -10.8570 C.3   141  THR141      0.1994
    180  C        -43.5500    9.1630  -12.2900 C.2   141  THR141      0.2617
    181  O        -42.3620    9.0950  -12.5980 O.2   141  THR141     -0.2717
    182  CB       -44.6940   10.1810  -10.3100 C.3   141  THR141      0.1784
    183  OG1      -45.8680   10.4520  -11.0750 O.3   141  THR141     -0.2211
    184  CG2      -43.7530   11.3900  -10.3950 C.3   141  THR141      0.0376
    185  N        -44.5100    9.4740  -13.1560 N.am  142  ASP142     -0.1973
    186  CA       -44.2640    9.9060  -14.5660 C.3   142  ASP142      0.1709
    187  C        -43.7000    8.8260  -15.4800 C.2   142  ASP142      0.2293
    188  O        -42.4940    8.7550  -15.7230 O.2   142  ASP142     -0.2864
    189  CB       -43.3570   11.1400  -14.6730 C.3   142  ASP142      0.1436
    190  CG       -43.2220   11.6250  -16.1250 C.2   142  ASP142      0.3671
    191  OD1      -43.9140   11.0710  -17.0400 O.co2 142  ASP142     -0.2456
    192  OD2      -42.4240   12.5510  -16.3550 O.co2 142  ASP142     -0.2456
    193  N        -44.4250    8.5680  -18.7080 N.3   144  GLY144     -0.1225
    194  CA       -44.5920    9.0240  -20.0930 C.3   144  GLY144      0.1811
    195  C        -43.5310    8.6040  -21.1040 C.2   144  GLY144      0.2280
    196  O        -43.7920    8.6300  -22.2900 O.2   144  GLY144     -0.2866
@<TRIPOS>BOND
     1    42    43    1
     2    48    46    1
     3   196   195    2
     4    43    46    1
     5    43    44    1
     6    46    47    1
     7    44    45    2
     8   195   194    1
     9    37    36    2
    10    49    50    1
    11    40    38    1
    12    36    35    1
    13   194   193    1
    14    38    35    1
    15    38    39    1
    16    50    53    1
    17    50    51    1
    18    53    54    1
    19    35    34    1
    20    57    55   ar
    21    51    52    2
    22    41    39    1
    23    54    55    1
    24    55    56   ar
    25   191   190   ar
    26   192   190   ar
    27   190   189    1
    28    89    87    1
    29   188   187    2
    30    87    86    1
    31    58    59    1
    32   187   186    1
    33    32    33    1
    34    32    31    1
    35    28    27    2
    36   189   186    1
    37    82    83    1
    38   186   185    1
    39   169   167   am
    40    30    31    1
    41    30    29    1
    42    86    83    1
    43    86    88    1
    44    27    26    1
    45    59    62    1
    46    59    60    1
    47    63    62    1
    48    63    64    1
    49    63    65    1
    50    83    84    1
    51    60    61    2
    52   167   168    2
    53   167   166    1
    54   185   180   am
    55   161   159   ar
    56    29    26    1
    57    26    25    1
    58    79    81    1
    59    79    78    1
    60    80    78    1
    61   181   180    2
    62    84    85    2
    63   180   179    1
    64   159   158    1
    65   159   160   ar
    66   166   163    1
    67    78    75    1
    68   158   157    1
    69    13    14    1
    70   157   154    1
    71   183   182    1
    72    12    11    2
    73   179   182    1
    74   179   178    1
    75    19    17    1
    76    14    17    1
    77    14    15    1
    78   163   162    1
    79   163   164    1
    80   162   155   am
    81    11    10    1
    82    75    74    1
    83    75    76    1
    84   184   182    1
    85   154   155    1
    86   154   153    1
    87   155   156    2
    88    72    70    1
    89    97    95    1
    90    17    18    1
    91    15    16    2
    92    76    77    2
    93   143   142   ar
    94   165   164    2
    95    69    68    2
    96    10     9    1
    97   144   142   ar
    98   142   141    1
    99    70    71    1
   100    70    67    1
   101    95    96    1
   102    95    94    1
   103    90    91    1
   104    94    91    1
   105    68    67    1
   106     9     3   am
   107    23    22    2
   108    71    73    1
   109    22    21    1
   110    67    66    1
   111    91    92    1
   112   141   140    1
   113     1     2    1
   114     3     4    2
   115     3     2    1
   116   176   175    1
   117   177   175    1
   118   140   137    1
   119   175   174    1
   120    21    24    1
   121    21    20    1
   122    92    93    2
   123    92    98   am
   124     2     5    1
   125     5     6    1
   126   151   150   ar
   127   170   171    1
   128    98    99    1
   129   105   104   ar
   130   137   138    1
   131   137   136    1
   132   174   171    1
   133     6     7    1
   134     6     8    1
   135   145   146    1
   136   152   150   ar
   137   106   104   ar
   138   150   149    1
   139   104   103    1
   140   171   172    1
   141   101   100    2
   142   138   139    2
   143   136   134   am
   144    99   100    1
   145    99   102    1
   146   146   149    1
   147   146   147    1
   148   100   107   am
   149   103   102    1
   150   134   135    2
   151   134   133    1
   152   120   119    1
   153   120   121    1
   154   172   173    2
   155   133   132    1
   156   107   108    1
   157   119   116    1
   158   147   148    2
   159   113   112    1
   160   108   109    1
   161   108   111    1
   162   115   109   am
   163   115   116    1
   164   121   122    1
   165   109   110    2
   166   118   117    2
   167   116   117    1
   168   111   112    1
   169   112   114    1
   170   117   123   am
   171   123   124    1
   172   124   125    1
   173   124   127    1
   174   125   126    2
   175   128   127    1
   176   128   129    1
   177   129   131   ar
   178   129   130   ar
