@<TRIPOS>MOLECULE
tmp/2xkaF00.pdb
 177 166 0 0 0
SMALL
GASTEIGER

@<TRIPOS>ATOM
      1  N         28.9160  -37.8210  219.0880 N.3    31  GLY31      -0.1210
      2  CA        29.9570  -38.3210  218.1970 C.3    31  GLY31       0.1956
      3  C         29.9320  -39.8140  218.2590 C.2    31  GLY31       0.2612
      4  O         29.2430  -40.3630  219.1060 O.2    31  GLY31      -0.2717
      5  N         30.6650  -40.5080  217.3990 N.am   32  GLN32      -0.1965
      6  CA        30.5870  -41.9710  217.4670 C.3    32  GLN32       0.1733
      7  C         31.1760  -42.6170  218.7230 C.2    32  GLN32       0.2616
      8  O         30.5430  -43.5180  219.2640 O.2    32  GLN32      -0.2715
      9  CB        31.1390  -42.6600  216.2380 C.3    32  GLN32       0.0408
     10  CG        30.8200  -44.1330  216.3050 C.3    32  GLN32       0.0908
     11  CD        30.7080  -44.7910  214.9770 C.2    32  GLN32       0.2608
     12  OE1       31.3460  -44.3960  214.0060 O.2    32  GLN32      -0.2717
     13  NE2       29.9090  -45.8390  214.9260 N.am   32  GLN32      -0.0878
     14  N         32.3590  -42.1970  219.1890 N.am   33  LYS33      -0.1977
     15  CA        32.9020  -42.7450  220.4560 C.3    33  LYS33       0.1596
     16  C         31.8590  -42.6350  221.5510 C.2    33  LYS33       0.2287
     17  O         31.5510  -43.6020  222.2300 O.2    33  LYS33      -0.2864
     18  CB        34.1630  -42.0080  220.9120 C.3    33  LYS33       0.0298
     19  CG        34.8280  -42.5900  222.1600 C.3    33  LYS33       0.0038
     20  CD        34.3780  -41.9490  223.4600 C.3    33  LYS33       0.0206
     21  CE        35.3610  -42.2700  224.6080 C.3    33  LYS33       0.1093
     22  NZ        35.2260  -41.4610  225.8930 N.3    33  LYS33      -0.1314
     23  N         29.0010  -45.0570  221.1850 N.3    36  LYS36      -0.1245
     24  CA        29.3230  -46.4170  221.5590 C.3    36  LYS36       0.1561
     25  C         29.3670  -46.6230  223.0730 C.2    36  LYS36       0.2260
     26  O         28.8730  -47.6320  223.5610 O.2    36  LYS36      -0.2867
     27  CB        30.6300  -46.8360  220.9180 C.3    36  LYS36       0.0271
     28  CG        30.5180  -46.9620  219.4210 C.3    36  LYS36       0.0035
     29  CD        31.7060  -47.6850  218.8220 C.3    36  LYS36       0.0206
     30  CE        32.8490  -46.7390  218.5160 C.3    36  LYS36       0.1093
     31  NZ        34.0960  -47.4870  218.2420 N.3    36  LYS36      -0.1314
     32  N         26.2910  -37.3380  211.7620 N.3    61  ALA61      -0.1245
     33  CA        26.3430  -38.4110  210.8070 C.3    61  ALA61       0.1562
     34  C         25.3190  -39.4610  211.2260 C.2    61  ALA61       0.2260
     35  O         25.5620  -40.2450  212.1390 O.2    61  ALA61      -0.2867
     36  CB        27.7510  -38.9970  210.7480 C.3    61  ALA61       0.0290
     37  N         26.5610  -43.0870  212.0000 N.3    64  ASP64      -0.1239
     38  CA        27.3630  -43.6000  213.1110 C.3    64  ASP64       0.1674
     39  C         26.4650  -44.3810  214.0560 C.2    64  ASP64       0.2266
     40  O         26.9430  -45.1760  214.8620 O.2    64  ASP64      -0.2867
     41  CB        28.0300  -42.4690  213.8920 C.3    64  ASP64       0.1410
     42  CG        29.0180  -41.7030  213.0800 C.2    64  ASP64       0.3668
     43  OD1       29.2140  -42.0360  211.9080 O.co2  64  ASP64      -0.2456
     44  OD2       29.6030  -40.7460  213.6070 O.co2  64  ASP64      -0.2456
     45  N         27.3940  -34.5900  208.4340 N.3    84  GLY84      -0.1210
     46  CA        28.5110  -34.6970  209.3610 C.3    84  GLY84       0.1956
     47  C         29.2800  -33.3950  209.3350 C.2    84  GLY84       0.2612
     48  O         29.2840  -32.7150  208.3200 O.2    84  GLY84      -0.2717
     49  N         29.8890  -33.0170  210.4580 N.am   85  ALA85      -0.1965
     50  CA        30.9560  -32.0030  210.4580 C.3    85  ALA85       0.1728
     51  C         32.1660  -32.8000  210.0550 C.2    85  ALA85       0.2616
     52  O         32.1670  -34.0120  210.2440 O.2    85  ALA85      -0.2715
     53  CB        31.1520  -31.4090  211.8160 C.3    85  ALA85       0.0334
     54  N         33.1930  -32.1850  209.4970 N.am   86  ALA86      -0.1963
     55  CA        34.2000  -33.0040  208.8110 C.3    86  ALA86       0.1728
     56  C         35.5270  -33.0260  209.5460 C.2    86  ALA86       0.2616
     57  O         36.5640  -32.6560  208.9800 O.2    86  ALA86      -0.2715
     58  CB        34.3810  -32.5210  207.3780 C.3    86  ALA86       0.0334
     59  N         35.4790  -33.4770  210.7980 N.am   87  ARG87      -0.1977
     60  CA        36.6290  -33.4400  211.6980 C.3    87  ARG87       0.1597
     61  C         36.9040  -31.9640  212.0590 C.2    87  ARG87       0.2287
     62  O         38.0480  -31.5790  212.3260 O.2    87  ARG87      -0.2864
     63  CB        37.8610  -34.1520  211.0690 C.3    87  ARG87       0.0334
     64  CG        39.1270  -34.2670  211.9200 C.3    87  ARG87       0.0492
     65  CD        39.0150  -35.3900  212.8920 C.3    87  ARG87       0.2205
     66  NE        39.1660  -36.7110  212.2710 N.pl3  87  ARG87      -0.0865
     67  CZ        38.8870  -37.8870  212.8690 C.cat  87  ARG87       0.5346
     68  NH1       39.0730  -39.0230  212.2050 N.pl3  87  ARG87       0.1354
     69  NH2       38.4150  -37.9530  214.1240 N.pl3  87  ARG87       0.1354
     70  N         34.4650  -38.3040  222.4450 N.3   136  GLY136     -0.1210
     71  CA        35.8110  -38.6400  222.0100 C.3   136  GLY136      0.1956
     72  C         36.4740  -37.3890  221.4860 C.2   136  GLY136      0.2611
     73  O         36.1880  -36.9640  220.3820 O.2   136  GLY136     -0.2717
     74  N         37.3480  -36.7780  222.2760 N.am  137  ALA137     -0.1979
     75  CA        38.0160  -35.5420  221.8500 C.3   137  ALA137      0.1597
     76  C         38.8370  -35.8050  220.6010 C.2   137  ALA137      0.2287
     77  O         39.5250  -36.8070  220.5120 O.2   137  ALA137     -0.2864
     78  CB        38.9100  -34.9990  222.9440 C.3   137  ALA137      0.0319
     79  N         37.4500  -35.5290  217.1740 N.3   139  GLY139     -0.1210
     80  CA        36.5490  -35.5040  216.0330 C.3   139  GLY139      0.1956
     81  C         35.8400  -34.1750  215.9460 C.2   139  GLY139      0.2612
     82  O         36.0630  -33.2980  216.7820 O.2   139  GLY139     -0.2717
     83  N         34.9980  -34.0150  214.9330 N.am  140  GLY140     -0.1942
     84  CA        34.1880  -32.8160  214.8080 C.3   140  GLY140      0.2014
     85  C         33.0230  -32.8520  215.7660 C.2   140  GLY140      0.2639
     86  O         32.9570  -32.0800  216.7120 O.2   140  GLY140     -0.2714
     87  N         32.1140  -33.7880  215.5070 N.am  141  VAL141     -0.1963
     88  CA        30.8370  -33.8820  216.2200 C.3   141  VAL141      0.1727
     89  C         31.0340  -33.9790  217.7230 C.2   141  VAL141      0.2616
     90  O         30.3780  -33.2580  218.4750 O.2   141  VAL141     -0.2715
     91  CB        30.0120  -35.0740  215.7380 C.3   141  VAL141      0.0290
     92  CG1       28.7580  -35.2290  216.5660 C.3   141  VAL141      0.0023
     93  CG2       29.6480  -34.9000  214.3030 C.3   141  VAL141      0.0023
     94  N         31.9400  -34.8540  218.1560 N.am  142  GLY142     -0.1955
     95  CA        32.1990  -35.0560  219.5820 C.3   142  GLY142      0.1869
     96  C         32.7790  -33.8320  220.2480 C.2   142  GLY142      0.2309
     97  O         32.2220  -33.3100  221.2090 O.2   142  GLY142     -0.2863
     98  N         37.5980  -38.6920  226.1480 N.3   167  SER167     -0.1217
     99  CA        38.7010  -39.5450  225.7330 C.3   167  SER167      0.1889
    100  C         39.6910  -38.7120  224.9160 C.2   167  SER167      0.2288
    101  O         39.2950  -37.9400  224.0480 O.2   167  SER167     -0.2866
    102  CB        38.1250  -40.7130  224.9310 C.3   167  SER167      0.2089
    103  OG        38.8990  -41.0960  223.8290 O.3   167  SER167     -0.2183
    104  N         42.7360  -38.0790  222.1880 N.3   169  PRO169     -0.2102
    105  CA        43.0340  -38.6880  220.9060 C.3   169  PRO169      0.1504
    106  C         44.4280  -39.2830  220.7940 C.2   169  PRO169      0.2576
    107  O         45.3540  -38.8360  221.4630 O.2   169  PRO169     -0.2718
    108  CB        42.9090  -37.5180  219.9420 C.3   169  PRO169      0.0282
    109  CG        43.3320  -36.3750  220.7270 C.3   169  PRO169      0.0208
    110  CD        42.8840  -36.6200  222.1270 C.3   169  PRO169      0.0893
    111  N         44.5600  -40.2700  219.9140 N.am  170  SER170     -0.1953
    112  CA        45.7960  -41.0470  219.8010 C.3   170  SER170      0.1924
    113  C         46.9450  -40.2740  219.1620 C.2   170  SER170      0.2314
    114  O         47.9330  -39.9860  219.8400 O.2   170  SER170     -0.2863
    115  CB        45.5760  -42.3570  219.0490 C.3   170  SER170      0.2116
    116  OG        46.6920  -43.2090  219.2420 O.3   170  SER170     -0.2180
    117  N         43.3410  -33.7140  215.0900 N.3   175  GLU175     -0.1245
    118  CA        42.6530  -34.2150  216.2730 C.3   175  GLU175      0.1567
    119  C         43.2520  -33.6460  217.5590 C.2   175  GLU175      0.2260
    120  O         42.5160  -33.3420  218.4930 O.2   175  GLU175     -0.2867
    121  CB        42.6710  -35.7490  216.3150 C.3   175  GLU175      0.0388
    122  CG        41.6570  -36.4130  215.3920 C.3   175  GLU175      0.1160
    123  CD        41.7070  -37.9300  215.4530 C.2   175  GLU175      0.3649
    124  OE1       41.0540  -38.5680  214.6060 O.co2 175  GLU175     -0.2457
    125  OE2       42.3970  -38.4800  216.3430 O.co2 175  GLU175     -0.2457
    126  N         43.8140  -42.3450  224.9390 N.3   213  ASN213     -0.1240
    127  CA        43.8140  -43.4470  223.9670 C.3   213  ASN213      0.1653
    128  C         45.1860  -44.1100  223.7480 C.2   213  ASN213      0.2266
    129  O         45.2590  -45.2590  223.3580 O.2   213  ASN213     -0.2867
    130  CB        43.2570  -42.9680  222.6150 C.3   213  ASN213      0.1155
    131  CG        41.7450  -42.9710  222.5600 C.2   213  ASN213      0.2627
    132  OD1       41.0820  -43.5410  223.4080 O.2   213  ASN213     -0.2716
    133  ND2       41.1980  -42.3660  221.5220 N.am  213  ASN213     -0.0877
    134  N         45.7080  -46.3590  226.8420 N.3   216  MET216     -0.1245
    135  CA        44.7360  -47.4470  226.8390 C.3   216  MET216      0.1570
    136  C         45.1270  -48.5510  225.8630 C.2   216  MET216      0.2261
    137  O         44.9210  -49.7300  226.1430 O.2   216  MET216     -0.2867
    138  CB        43.3310  -46.9270  226.5200 C.3   216  MET216      0.0387
    139  CG        42.6700  -46.2170  227.6960 C.3   216  MET216      0.0595
    140  SD        40.9090  -45.9330  227.4920 S.3   216  MET216     -0.1393
    141  CE        40.8720  -44.6750  226.2230 C.3   216  MET216      0.0692
    142  N         40.6170  -52.9080  219.8720 N.3   229  TRP229     -0.1227
    143  CA        41.0790  -52.2800  221.1270 C.3   229  TRP229      0.1737
    144  C         40.0660  -51.2770  221.7030 C.2   229  TRP229      0.2595
    145  O         39.9050  -51.1740  222.9180 O.2   229  TRP229     -0.2718
    146  CB        42.4790  -51.6480  221.0100 C.3   229  TRP229      0.0564
    147  CG        42.5450  -50.4170  220.2390 C.ar  229  TRP229      0.0003
    148  CD1       42.8950  -50.2970  218.9400 C.ar  229  TRP229      0.0946
    149  CD2       42.2620  -49.0980  220.7080 C.ar  229  TRP229      0.0152
    150  NE1       42.8410  -48.9770  218.5440 N.ar  229  TRP229     -0.2442
    151  CE2       42.4560  -48.2190  219.6180 C.ar  229  TRP229      0.0810
    152  CE3       41.8580  -48.5700  221.9350 C.ar  229  TRP229      0.0012
    153  CZ2       42.2610  -46.8420  219.7240 C.ar  229  TRP229      0.0191
    154  CZ3       41.6700  -47.2010  222.0380 C.ar  229  TRP229      0.0001
    155  CH2       41.8720  -46.3540  220.9390 C.ar  229  TRP229      0.0015
    156  N         39.3890  -50.5570  220.8190 N.am  230  LYS230     -0.1980
    157  CA        38.3700  -49.5870  221.2120 C.3   230  LYS230      0.1596
    158  C         37.2260  -50.2410  221.9670 C.2   230  LYS230      0.2287
    159  O         36.7520  -49.7450  222.9910 O.2   230  LYS230     -0.2864
    160  CB        37.8220  -48.8850  219.9720 C.3   230  LYS230      0.0298
    161  CG        38.8030  -47.9150  219.3450 C.3   230  LYS230      0.0038
    162  CD        38.2630  -47.3580  218.0500 C.3   230  LYS230      0.0206
    163  CE        39.3050  -46.5130  217.3460 C.3   230  LYS230      0.1093
    164  NZ        38.7920  -46.0160  216.0320 N.3   230  LYS230     -0.1314
    165  N         38.6320  -51.1890  225.3740 N.3   233  ALA233     -0.1231
    166  CA        38.8260  -49.9840  226.1880 C.3   233  ALA233      0.1694
    167  C         37.5060  -49.4860  226.7260 C.2   233  ALA233      0.2592
    168  O         37.4010  -49.1510  227.8900 O.2   233  ALA233     -0.2718
    169  CB        39.5070  -48.8940  225.3900 C.3   233  ALA233      0.0304
    170  N         36.4980  -49.4510  225.8690 N.am  234  ASN234     -0.1974
    171  CA        35.1570  -49.0130  226.2730 C.3   234  ASN234      0.1688
    172  C         34.5670  -49.8800  227.3760 C.2   234  ASN234      0.2292
    173  O         34.1020  -49.3700  228.3960 O.2   234  ASN234     -0.2864
    174  CB        34.2170  -48.9920  225.0710 C.3   234  ASN234      0.1181
    175  CG        34.5570  -47.8970  224.0960 C.2   234  ASN234      0.2629
    176  OD1       35.3330  -46.9890  224.4110 O.2   234  ASN234     -0.2716
    177  ND2       33.9820  -47.9690  222.9020 N.am  234  ASN234     -0.0877
@<TRIPOS>BOND
     1    58    55    1
     2    48    47    2
     3    45    46    1
     4    55    54    1
     5    55    56    1
     6    57    56    2
     7    47    46    1
     8    47    49   am
     9    54    51   am
    10    56    59   am
    11    51    52    2
    12    51    50    1
    13    50    49    1
    14    50    53    1
    15    36    33    1
    16    59    60    1
    17    33    34    1
    18    33    32    1
    19    63    60    1
    20    63    64    1
    21    34    35    2
    22    60    61    1
    23    43    42   ar
    24    64    65    1
    25    37    38    1
    26    61    62    2
    27    68    67    1
    28    66    67    2
    29    66    65    1
    30    67    69    1
    31    42    44   ar
    32    42    41    1
    33    38    41    1
    34    38    39    1
    35    12    11    2
    36    39    40    2
    37    93    91    1
    38   124   123   ar
    39    84    83    1
    40    84    85    1
    41    13    11   am
    42    83    81   am
    43    11    10    1
    44   117   118    1
    45   122   123    1
    46   122   121    1
    47   123   125   ar
    48    87    85   am
    49    87    88    1
    50    91    88    1
    51    91    92    1
    52    85    86    2
    53    81    80    1
    54    81    82    2
    55   164   163    1
    56    80    79    1
    57    88    89    1
    58     9    10    1
    59     9     6    1
    60   118   121    1
    61   118   119    1
    62   163   162    1
    63     5     6    1
    64     5     3   am
    65     6     7    1
    66   119   120    2
    67    89    94   am
    68    89    90    2
    69   162   161    1
    70    94    95    1
    71     2     3    1
    72     2     1    1
    73    31    30    1
    74     3     4    2
    75    30    29    1
    76   150   148   ar
    77   150   151   ar
    78     7    14   am
    79     7     8    2
    80    29    28    1
    81   148   147   ar
    82   115   116    1
    83   115   112    1
    84   113   112    1
    85   113   114    2
    86    14    15    1
    87   161   160    1
    88    28    27    1
    89    95    96    1
    90   151   153   ar
    91   151   149   ar
    92   153   155   ar
    93   112   111    1
    94   142   143    1
    95   111   106   am
    96   108   109    1
    97   108   105    1
    98   160   157    1
    99   147   149   ar
   100   147   146    1
   101    96    97    2
   102    73    72    2
   103    15    18    1
   104    15    16    1
   105    77    76    2
   106    76    75    1
   107   149   152   ar
   108   109   110    1
   109   106   105    1
   110   106   107    2
   111   156   157    1
   112   156   144   am
   113   105   104    1
   114    18    19    1
   115    27    24    1
   116   155   154   ar
   117   146   143    1
   118   143   144    1
   119    23    24    1
   120   157   158    1
   121    72    71    1
   122    72    74   am
   123   133   131   am
   124    16    17    2
   125    24    25    1
   126   144   145    2
   127    75    74    1
   128    75    78    1
   129   152   154   ar
   130   158   159    2
   131    71    70    1
   132   110   104    1
   133    19    20    1
   134   131   130    1
   135   131   132    2
   136   130   127    1
   137   177   175   am
   138    25    26    2
   139   129   128    2
   140    20    21    1
   141   128   127    1
   142   103   102    1
   143   127   126    1
   144   101   100    2
   145   175   176    2
   146   175   174    1
   147    21    22    1
   148   100    99    1
   149   102    99    1
   150   174   171    1
   151   165   166    1
   152   169   166    1
   153    99    98    1
   154   136   137    2
   155   136   135    1
   156   170   171    1
   157   170   167   am
   158   166   167    1
   159   141   140    1
   160   171   172    1
   161   138   135    1
   162   138   139    1
   163   167   168    2
   164   135   134    1
   165   172   173    2
   166   140   139    1
