@<TRIPOS>MOLECULE
tmp/2xkbD00.pdb
 175 165 0 0 0
SMALL
GASTEIGER

@<TRIPOS>ATOM
      1  N         15.4810  -47.6850   39.3370 N.3    31  GLY31      -0.1210
      2  CA        16.3640  -48.6250   38.6360 C.3    31  GLY31       0.1956
      3  C         17.7770  -48.6060   39.2060 C.2    31  GLY31       0.2612
      4  O         18.1330  -47.6830   39.9350 O.2    31  GLY31      -0.2717
      5  N         18.5910  -49.6030   38.8720 N.am   32  GLN32      -0.1965
      6  CA        19.8970  -49.7790   39.5330 C.3    32  GLN32       0.1733
      7  C         20.7790  -48.5480   39.4530 C.2    32  GLN32       0.2616
      8  O         21.3940  -48.1570   40.4550 O.2    32  GLN32      -0.2715
      9  CB        20.6800  -50.9660   38.9700 C.3    32  GLN32       0.0408
     10  CG        19.8640  -52.2190   38.7190 C.3    32  GLN32       0.0908
     11  CD        19.8740  -53.1710   39.8820 C.2    32  GLN32       0.2608
     12  OE1       19.2410  -54.2230   39.8250 O.2    32  GLN32      -0.2717
     13  NE2       20.5950  -52.8200   40.9420 N.am   32  GLN32      -0.0878
     14  N         20.8640  -47.9580   38.2600 N.am   33  LYS33      -0.1977
     15  CA        21.6620  -46.7470   38.0930 C.3    33  LYS33       0.1596
     16  C         21.1370  -45.6830   39.0350 C.2    33  LYS33       0.2287
     17  O         21.9010  -45.0750   39.7860 O.2    33  LYS33      -0.2864
     18  CB        21.6290  -46.2330   36.6440 C.3    33  LYS33       0.0298
     19  CG        22.5610  -45.0510   36.3680 C.3    33  LYS33       0.0038
     20  CD        21.9210  -43.6960   36.6440 C.3    33  LYS33       0.0206
     21  CE        22.7470  -42.5510   36.0710 C.3    33  LYS33       0.1093
     22  NZ        22.0300  -41.2390   36.1360 N.3    33  LYS33      -0.1314
     23  N         21.7320  -46.3880   42.7340 N.3    36  LYS36      -0.1231
     24  CA        23.1440  -46.1900   43.0660 C.3    36  LYS36       0.1693
     25  C         23.5400  -44.7260   43.2420 C.2    36  LYS36       0.2591
     26  O         24.3270  -44.3830   44.1260 O.2    36  LYS36      -0.2718
     27  CB        24.0530  -46.8900   42.0580 C.3    36  LYS36       0.0285
     28  CG        24.1540  -48.3960   42.3110 C.3    36  LYS36       0.0035
     29  CD        25.2320  -49.0710   41.4760 C.3    36  LYS36       0.0206
     30  CE        24.7260  -49.3610   40.0640 C.3    36  LYS36       0.1093
     31  NZ        25.6310  -50.2970   39.3580 N.3    36  LYS36      -0.1314
     32  N         22.9800  -43.8710   42.4040 N.am   37  GLU37      -0.1979
     33  CA        23.1620  -42.4370   42.5510 C.3    37  GLU37       0.1602
     34  C         22.4250  -41.9070   43.7710 C.2    37  GLU37       0.2287
     35  O         22.9930  -41.1460   44.5570 O.2    37  GLU37      -0.2864
     36  CB        22.7040  -41.7020   41.2990 C.3    37  GLU37       0.0415
     37  CG        23.6220  -41.9160   40.1420 C.3    37  GLU37       0.1163
     38  CD        23.3010  -41.0120   38.9680 C.2    37  GLU37       0.3649
     39  OE1       24.2470  -40.6420   38.2080 O.co2  37  GLU37      -0.2457
     40  OE2       22.0980  -40.6840   38.7930 O.co2  37  GLU37      -0.2457
     41  N         12.4130  -49.5140   42.7670 N.3    59  ASN59      -0.1240
     42  CA        12.6980  -50.5880   41.8220 C.3    59  ASN59       0.1653
     43  C         11.5720  -51.6330   41.8520 C.2    59  ASN59       0.2266
     44  O         10.6830  -51.5400   42.7020 O.2    59  ASN59      -0.2867
     45  CB        14.0480  -51.2180   42.1420 C.3    59  ASN59       0.1155
     46  CG        14.7580  -51.6780   40.9120 C.2    59  ASN59       0.2627
     47  OD1       14.1570  -52.3040   40.0360 O.2    59  ASN59      -0.2716
     48  ND2       16.0450  -51.3660   40.8190 N.am   59  ASN59      -0.0877
     49  N         18.7560  -44.4090   34.7840 N.3   129  GLY129     -0.1210
     50  CA        19.4900  -44.8430   33.6190 C.3   129  GLY129      0.1956
     51  C         18.4680  -44.8440   32.4980 C.2   129  GLY129      0.2612
     52  O         17.3080  -45.1900   32.7220 O.2   129  GLY129     -0.2717
     53  N         18.8730  -44.4460   31.2960 N.am  130  ALA130     -0.1965
     54  CA        17.9390  -44.4520   30.1790 C.3   130  ALA130      0.1728
     55  C         18.0630  -45.7260   29.3100 C.2   130  ALA130      0.2617
     56  O         17.6980  -45.7180   28.1320 O.2   130  ALA130     -0.2715
     57  CB        18.0990  -43.1850   29.3570 C.3   130  ALA130      0.0334
     58  N         18.5300  -46.8290   29.8980 N.am  131  GLY131     -0.1940
     59  CA        18.8270  -48.0410   29.1120 C.3   131  GLY131      0.2014
     60  C         18.0310  -49.3110   29.3890 C.2   131  GLY131      0.2639
     61  O         17.3550  -49.8530   28.4930 O.2   131  GLY131     -0.2714
     62  N         18.1510  -49.8140   30.6160 N.am  132  GLY132     -0.1939
     63  CA        17.2950  -50.8870   31.0850 C.3   132  GLY132      0.2014
     64  C         15.8640  -50.3740   31.1670 C.2   132  GLY132      0.2639
     65  O         15.6170  -49.1530   31.1570 O.2   132  GLY132     -0.2714
     66  N         14.9290  -51.3170   31.2580 N.am  133  GLY133     -0.1939
     67  CA        13.4990  -51.0250   31.2470 C.3   133  GLY133      0.2014
     68  C         12.8180  -50.5490   32.5250 C.2   133  GLY133      0.2639
     69  O         11.6850  -50.0730   32.4700 O.2   133  GLY133     -0.2714
     70  N         13.4750  -50.6850   33.6740 N.am  134  VAL134     -0.1963
     71  CA        12.8720  -50.2270   34.9480 C.3   134  VAL134      0.1727
     72  C         13.1650  -48.7230   35.1780 C.2   134  VAL134      0.2616
     73  O         12.4020  -48.0260   35.8610 O.2   134  VAL134     -0.2715
     74  CB        13.2790  -51.1240   36.1960 C.3   134  VAL134      0.0290
     75  CG1       12.5080  -50.7210   37.4560 C.3   134  VAL134      0.0023
     76  CG2       13.0710  -52.6360   35.9200 C.3   134  VAL134      0.0023
     77  N         14.2630  -48.2400   34.5850 N.am  135  GLY135     -0.1955
     78  CA        14.6290  -46.8270   34.6240 C.3   135  GLY135      0.1869
     79  C         13.8540  -46.0750   33.5600 C.2   135  GLY135      0.2309
     80  O         12.9330  -45.3270   33.8760 O.2   135  GLY135     -0.2863
     81  N         21.1510  -40.8160   32.5700 N.3   160  SER160     -0.1217
     82  CA        22.3340  -41.3800   31.9720 C.3   160  SER160      0.1889
     83  C         21.9540  -41.8950   30.5900 C.2   160  SER160      0.2288
     84  O         20.8830  -42.4880   30.4290 O.2   160  SER160     -0.2866
     85  CB        22.8040  -42.5400   32.8410 C.3   160  SER160      0.2089
     86  OG        23.9620  -43.1600   32.3280 O.3   160  SER160     -0.2183
     87  N         22.9590  -44.5250   27.4980 N.3   162  PRO162     -0.2102
     88  CA        23.5830  -45.8460   27.3880 C.3   162  PRO162      0.1504
     89  C         24.8080  -45.8940   26.4740 C.2   162  PRO162      0.2576
     90  O         24.9290  -45.0710   25.5620 O.2   162  PRO162     -0.2718
     91  CB        22.4620  -46.7070   26.8150 C.3   162  PRO162      0.0282
     92  CG        21.5660  -45.7670   26.1520 C.3   162  PRO162      0.0208
     93  CD        21.5960  -44.5270   26.9450 C.3   162  PRO162      0.0893
     94  N         25.6910  -46.8630   26.7390 N.am  163  SER163     -0.1953
     95  CA        26.9720  -47.0210   26.0370 C.3   163  SER163      0.1924
     96  C         26.8120  -47.4870   24.6020 C.2   163  SER163      0.2314
     97  O         27.1350  -46.7570   23.6680 O.2   163  SER163     -0.2863
     98  CB        27.8680  -48.0140   26.7740 C.3   163  SER163      0.2116
     99  OG        28.2240  -47.5210   28.0510 O.3   163  SER163     -0.2180
    100  N         18.9350  -50.8500   24.5220 N.3   168  GLU168     -0.1245
    101  CA        19.0940  -49.7660   25.4670 C.3   168  GLU168      0.1567
    102  C         19.0960  -48.4330   24.7510 C.2   168  GLU168      0.2260
    103  O         18.3720  -47.5180   25.1250 O.2   168  GLU168     -0.2867
    104  CB        20.3990  -49.9190   26.2360 C.3   168  GLU168      0.0388
    105  CG        20.3930  -51.0220   27.2800 C.3   168  GLU168      0.1160
    106  CD        21.7230  -51.1480   28.0270 C.2   168  GLU168      0.3649
    107  OE1       21.8910  -52.1360   28.7820 O.co2 168  GLU168     -0.2457
    108  OE2       22.6020  -50.2690   27.8560 O.co2 168  GLU168     -0.2457
    109  N         23.9260  -37.2360   31.2150 N.3   204  ASN204     -0.1240
    110  CA        25.3050  -37.6780   31.2090 C.3   204  ASN204      0.1653
    111  C         25.4660  -38.7400   30.1360 C.2   204  ASN204      0.2266
    112  O         24.6380  -39.6550   30.0470 O.2   204  ASN204     -0.2867
    113  CB        25.6740  -38.2910   32.5510 C.3   204  ASN204      0.1155
    114  CG        25.4970  -37.3350   33.6910 C.2   204  ASN204      0.2627
    115  OD1       24.6530  -37.5480   34.5720 O.2   204  ASN204     -0.2716
    116  ND2       26.2830  -36.2640   33.6900 N.am  204  ASN204     -0.0877
    117  N         27.3110  -41.9740   28.9460 N.3   206  ASN206     -0.1240
    118  CA        28.1410  -43.0860   29.3750 C.3   206  ASN206      0.1653
    119  C         29.3870  -43.2790   28.5350 C.2   206  ASN206      0.2266
    120  O         30.4480  -43.6110   29.0630 O.2   206  ASN206     -0.2867
    121  CB        27.3340  -44.3770   29.3590 C.3   206  ASN206      0.1155
    122  CG        26.5500  -44.5890   30.6280 C.2   206  ASN206      0.2627
    123  OD1       26.6480  -43.8070   31.5710 O.2   206  ASN206     -0.2716
    124  ND2       25.7800  -45.6660   30.6700 N.am  206  ASN206     -0.0877
    125  N         31.6980  -40.5230   29.4110 N.3   209  MET209     -0.1245
    126  CA        32.2010  -40.6570   30.7680 C.3   209  MET209      0.1570
    127  C         33.2720  -41.7420   30.8920 C.2   209  MET209      0.2261
    128  O         34.3030  -41.5320   31.5380 O.2   209  MET209     -0.2867
    129  CB        31.0490  -40.8850   31.7380 C.3   209  MET209      0.0387
    130  CG        30.1170  -39.7000   31.8460 C.3   209  MET209      0.0595
    131  SD        29.0950  -39.7690   33.2920 S.3   209  MET209     -0.1393
    132  CE        28.0280  -41.1630   32.9450 C.3   209  MET209      0.0692
    133  N         34.3770  -48.3430   36.2320 N.3   218  TRP218     -0.1227
    134  CA        34.2490  -46.9280   35.8190 C.3   218  TRP218      0.1737
    135  C         32.9600  -46.2510   36.2540 C.2   218  TRP218      0.2595
    136  O         32.9210  -45.0290   36.4060 O.2   218  TRP218     -0.2718
    137  CB        34.3630  -46.8050   34.2990 C.3   218  TRP218      0.0564
    138  CG        33.2020  -47.4020   33.5780 C.ar  218  TRP218      0.0003
    139  CD1       33.0270  -48.7150   33.2550 C.ar  218  TRP218      0.0946
    140  CD2       32.0420  -46.7160   33.1100 C.ar  218  TRP218      0.0152
    141  NE1       31.8290  -48.8890   32.5980 N.ar  218  TRP218     -0.2442
    142  CE2       31.2030  -47.6780   32.4980 C.ar  218  TRP218      0.0810
    143  CE3       31.6280  -45.3780   33.1410 C.ar  218  TRP218      0.0012
    144  CZ2       29.9720  -47.3480   31.9250 C.ar  218  TRP218      0.0191
    145  CZ3       30.4000  -45.0450   32.5640 C.ar  218  TRP218      0.0001
    146  CH2       29.5860  -46.0330   31.9680 C.ar  218  TRP218      0.0015
    147  N         31.9100  -47.0640   36.4100 N.am  219  LYS219     -0.1980
    148  CA        30.5730  -46.6210   36.8080 C.3   219  LYS219      0.1596
    149  C         30.5750  -46.0430   38.2270 C.2   219  LYS219      0.2287
    150  O         30.1170  -44.9270   38.4490 O.2   219  LYS219     -0.2864
    151  CB        29.5860  -47.7810   36.6920 C.3   219  LYS219      0.0298
    152  CG        29.5810  -48.4840   35.3340 C.3   219  LYS219      0.0038
    153  CD        28.1830  -48.9610   34.9470 C.3   219  LYS219      0.0206
    154  CE        28.1350  -49.5940   33.5580 C.3   219  LYS219      0.1093
    155  NZ        28.6900  -50.9930   33.5110 N.3   219  LYS219     -0.1314
    156  N         32.1820  -42.5890   37.8470 N.3   222  ALA222     -0.1231
    157  CA        31.3100  -41.6490   37.1650 C.3   222  ALA222      0.1694
    158  C         30.2920  -41.1250   38.1520 C.2   222  ALA222      0.2592
    159  O         30.1570  -39.9130   38.2990 O.2   222  ALA222     -0.2718
    160  CB        30.6380  -42.3020   35.9870 C.3   222  ALA222      0.0304
    161  N         29.6160  -42.0340   38.8530 N.am  223  ASN223     -0.1974
    162  CA        28.6510  -41.6660   39.8880 C.3   223  ASN223      0.1688
    163  C         29.2010  -40.6820   40.9200 C.2   223  ASN223      0.2292
    164  O         28.5550  -39.6780   41.2270 O.2   223  ASN223     -0.2864
    165  CB        28.1250  -42.9090   40.6030 C.3   223  ASN223      0.1181
    166  CG        27.2570  -43.7850   39.7080 C.2   223  ASN223      0.2629
    167  OD1       26.8920  -43.3920   38.5880 O.2   223  ASN223     -0.2716
    168  ND2       26.9210  -44.9820   40.2000 N.am  223  ASN223     -0.0877
    169  N         29.6480  -37.2150   39.0640 N.3   226  VAL226     -0.1245
    170  CA        28.3580  -36.6010   38.7760 C.3   226  VAL226      0.1561
    171  C         27.6740  -36.1430   40.0670 C.2   226  VAL226      0.2260
    172  O         27.3420  -34.9640   40.2160 O.2   226  VAL226     -0.2867
    173  CB        27.4280  -37.5510   37.9840 C.3   226  VAL226      0.0252
    174  CG1       26.0330  -36.9630   37.8290 C.3   226  VAL226      0.0019
    175  CG2       28.0060  -37.8470   36.6190 C.3   226  VAL226      0.0019
@<TRIPOS>BOND
     1    97    96    2
     2   100   101    1
     3    96    95    1
     4   102   103    2
     5   102   101    1
     6   101   104    1
     7    90    89    2
     8    95    94    1
     9    95    98    1
    10    92    91    1
    11    92    93    1
    12   104   105    1
    13    89    94   am
    14    89    88    1
    15    98    99    1
    16    91    88    1
    17    93    87    1
    18   105   106    1
    19    88    87    1
    20   108   106   ar
    21   106   107   ar
    22    56    55    2
    23    61    60    2
    24   119   120    2
    25   119   118    1
    26   117   118    1
    27    59    60    1
    28    59    58    1
    29    55    58   am
    30    55    54    1
    31    57    54    1
    32   121   118    1
    33   121   122    1
    34    60    62   am
    35   125   126    1
    36   112   111    2
    37   111   110    1
    38    54    53    1
    39    84    83    2
    40    83    82    1
    41    62    63    1
    42   122   124   am
    43   122   123    2
    44   126   127    1
    45   126   129    1
    46   127   128    2
    47    63    64    1
    48    65    64    2
    49    64    66   am
    50   110   109    1
    51   110   113    1
    52    67    66    1
    53    67    68    1
    54    53    51   am
    55   129   130    1
    56   130   131    1
    57   144   146   ar
    58   144   142   ar
    59   146   145   ar
    60    82    81    1
    61    82    85    1
    62    86    85    1
    63    69    68    2
    64   142   141   ar
    65   142   140   ar
    66    51    52    2
    67    51    50    1
    68    68    70   am
    69   113   114    1
    70   145   143   ar
    71   141   139   ar
    72   132   131    1
    73   140   143   ar
    74   140   138   ar
    75   139   138   ar
    76   155   154    1
    77   154   153    1
    78    79    80    2
    79    79    78    1
    80   138   137    1
    81    50    49    1
    82    70    71    1
    83   116   114   am
    84   114   115    2
    85   137   134    1
    86    77    78    1
    87    77    72   am
    88   153   152    1
    89    71    72    1
    90    71    74    1
    91    72    73    2
    92   152   151    1
    93   134   133    1
    94   134   135    1
    95    76    74    1
    96   160   157    1
    97    21    22    1
    98    21    20    1
    99    74    75    1
   100   135   136    2
   101   135   147   am
   102    19    18    1
   103    19    20    1
   104   147   148    1
   105   175   173    1
   106    18    15    1
   107   151   148    1
   108   148   149    1
   109   157   156    1
   110   157   158    1
   111   174   173    1
   112   173   170    1
   113    15    14    1
   114    15    16    1
   115   158   159    2
   116   158   161   am
   117    39    38   ar
   118   149   150    2
   119    14     7   am
   120   167   166    2
   121     2     3    1
   122     2     1    1
   123    10     9    1
   124    10    11    1
   125   170   169    1
   126   170   171    1
   127    40    38   ar
   128   161   162    1
   129     5     3   am
   130     5     6    1
   131    38    37    1
   132     9     6    1
   133    16    17    2
   134     3     4    2
   135    31    30    1
   136     7     6    1
   137     7     8    2
   138   166   168   am
   139   166   165    1
   140    12    11    2
   141    11    13   am
   142   162   165    1
   143   162   163    1
   144    47    46    2
   145    30    29    1
   146   171   172    2
   147    37    36    1
   148    48    46   am
   149    46    45    1
   150   163   164    2
   151    36    33    1
   152    29    28    1
   153    42    43    1
   154    42    45    1
   155    42    41    1
   156    43    44    2
   157    27    28    1
   158    27    24    1
   159    32    33    1
   160    32    25   am
   161    33    34    1
   162    23    24    1
   163    24    25    1
   164    25    26    2
   165    34    35    2
