@<TRIPOS>MOLECULE
tmp/2xkdA00.pdb
 170 163 0 0 0
SMALL
GASTEIGER

@<TRIPOS>ATOM
      1  N         37.2520   -3.8780   19.9550 N.3    10  TYR10      -0.1241
      2  CA        37.5390   -5.2840   19.6800 C.3    10  TYR10       0.1605
      3  C         36.3910   -5.9480   18.9430 C.2    10  TYR10       0.2264
      4  O         35.2820   -5.4140   18.8630 O.2    10  TYR10      -0.2867
      5  CB        37.8370   -6.0590   20.9640 C.3    10  TYR10       0.0534
      6  CG        36.7430   -5.9540   22.0020 C.ar   10  TYR10      -0.0201
      7  CD1       35.7170   -6.8880   22.0630 C.ar   10  TYR10      -0.0009
      8  CD2       36.7390   -4.9110   22.9200 C.ar   10  TYR10      -0.0009
      9  CE1       34.7090   -6.7840   23.0180 C.ar   10  TYR10       0.0417
     10  CE2       35.7530   -4.7970   23.8690 C.ar   10  TYR10       0.0417
     11  CZ        34.7360   -5.7340   23.9140 C.ar   10  TYR10       0.1957
     12  OH        33.7580   -5.6090   24.8720 O.3    10  TYR10      -0.2866
     13  N         33.5340   -8.6570   18.2460 N.3    12  ILE12      -0.1231
     14  CA        32.5730   -9.4310   19.0190 C.3    12  ILE12       0.1692
     15  C         32.3470  -10.7890   18.3620 C.2    12  ILE12       0.2592
     16  O         32.5360  -11.8340   18.9920 O.2    12  ILE12      -0.2718
     17  CB        31.2380   -8.6790   19.1480 C.3    12  ILE12       0.0266
     18  CG1       31.4670   -7.3110   19.7890 C.3    12  ILE12       0.0019
     19  CG2       30.2430   -9.4820   19.9640 C.3    12  ILE12       0.0020
     20  CD1       30.2260   -6.4540   19.8340 C.3    12  ILE12       0.0001
     21  N         31.9580  -10.7770   17.0890 N.am   13  GLY13      -0.1957
     22  CA        31.7240  -12.0140   16.3630 C.3    13  GLY13       0.1869
     23  C         32.1250  -11.9420   14.9020 C.2    13  GLY13       0.2309
     24  O         31.9740  -10.9040   14.2600 O.2    13  GLY13      -0.2863
     25  N         31.3630   -8.4110   13.2530 N.3    17  CYS17      -0.1235
     26  CA        30.8240   -7.3810   14.1450 C.3    17  CYS17       0.1677
     27  C         31.8310   -6.9330   15.2000 C.2    17  CYS17       0.2270
     28  O         32.4520   -7.7540   15.8800 O.2    17  CYS17      -0.2867
     29  CB        29.5340   -7.8550   14.8170 C.3    17  CYS17       0.0956
     30  SG        28.1790   -8.1080   13.6540 S.3    17  CYS17      -0.0801
     31  N         28.2660   -0.4570   17.9500 N.3    30  VAL30      -0.1245
     32  CA        28.7310   -1.6530   17.2800 C.3    30  VAL30       0.1561
     33  C         28.6930   -1.3630   15.7970 C.2    30  VAL30       0.2260
     34  O         27.8520   -0.5990   15.3360 O.2    30  VAL30      -0.2867
     35  CB        27.7880   -2.8310   17.5790 C.3    30  VAL30       0.0252
     36  CG1       27.9250   -3.9340   16.5290 C.3    30  VAL30       0.0019
     37  CG2       28.0340   -3.3630   18.9920 C.3    30  VAL30       0.0019
     38  N         28.8280   -3.6160   11.9330 N.3    32  LYS32      -0.1245
     39  CA        28.9120   -4.8550   11.1920 C.3    32  LYS32       0.1561
     40  C         29.5720   -4.4900    9.8760 C.2    32  LYS32       0.2260
     41  O         29.1740   -3.5200    9.2210 O.2    32  LYS32      -0.2867
     42  CB        27.5060   -5.3940   10.9240 C.3    32  LYS32       0.0271
     43  CG        27.4820   -6.6960   10.1560 C.3    32  LYS32       0.0035
     44  CD        26.2320   -6.8110    9.2980 C.3    32  LYS32       0.0206
     45  CE        24.9760   -6.5120   10.0890 C.3    32  LYS32       0.1093
     46  NZ        23.7580   -6.9830    9.3630 N.3    32  LYS32      -0.1314
     47  N         16.7060   -3.4640   17.1420 N.3    63  VAL63      -0.1245
     48  CA        18.0640   -2.9350   17.1800 C.3    63  VAL63       0.1561
     49  C         18.1200   -1.6530   16.3200 C.2    63  VAL63       0.2260
     50  O         17.7050   -1.6460   15.1640 O.2    63  VAL63      -0.2867
     51  CB        19.1000   -3.9530   16.7020 C.3    63  VAL63       0.0252
     52  CG1       20.4700   -3.2900   16.6370 C.3    63  VAL63       0.0019
     53  CG2       19.1500   -5.1540   17.6420 C.3    63  VAL63       0.0019
     54  N         19.6330    1.0890   13.9800 N.3    65  TYR65      -0.1241
     55  CA        20.7180    1.2200   13.0120 C.3    65  TYR65       0.1605
     56  C         20.9790    2.6920   12.6970 C.2    65  TYR65       0.2264
     57  O         20.1660    3.3530   12.0540 O.2    65  TYR65      -0.2867
     58  CB        20.4140    0.4190   11.7400 C.3    65  TYR65       0.0534
     59  CG        20.2520   -1.0650   12.0010 C.ar   65  TYR65      -0.0201
     60  CD1       21.3130   -1.9440   11.8230 C.ar   65  TYR65      -0.0009
     61  CD2       19.0410   -1.5830   12.4430 C.ar   65  TYR65      -0.0009
     62  CE1       21.1730   -3.3000   12.0720 C.ar   65  TYR65       0.0417
     63  CE2       18.8900   -2.9350   12.6940 C.ar   65  TYR65       0.0417
     64  CZ        19.9610   -3.7890   12.5100 C.ar   65  TYR65       0.1957
     65  OH        19.8110   -5.1350   12.7590 O.3    65  TYR65      -0.2866
     66  N         25.3230    0.4970   14.6460 N.3    81  MET81      -0.1230
     67  CA        24.1000    0.2330   15.3790 C.3    81  MET81       0.1702
     68  C         24.3560    0.3150   16.8750 C.2    81  MET81       0.2592
     69  O         25.5090    0.3570   17.3040 O.2    81  MET81      -0.2718
     70  CB        23.5740   -1.1550   15.0060 C.3    81  MET81       0.0401
     71  CG        24.4930   -2.2910   15.4070 C.3    81  MET81       0.0596
     72  SD        23.9340   -3.8510   14.6920 S.3    81  MET81      -0.1393
     73  CE        24.7350   -3.8060   13.0900 C.3    81  MET81       0.0692
     74  N         23.2880    0.3270   17.6710 N.am   82  GLU82      -0.1966
     75  CA        23.4280    0.3530   19.1310 C.3    82  GLU82       0.1733
     76  C         24.0970   -0.9110   19.6410 C.2    82  GLU82       0.2616
     77  O         24.0220   -1.9730   19.0060 O.2    82  GLU82      -0.2715
     78  CB        22.0660    0.5220   19.8260 C.3    82  GLU82       0.0429
     79  CG        21.1300   -0.6630   19.6230 C.3    82  GLU82       0.1163
     80  CD        19.7670   -0.4580   20.2700 C.2    82  GLU82       0.3649
     81  OE1       19.6990   -0.2660   21.5010 O.co2  82  GLU82      -0.2457
     82  OE2       18.7630   -0.4940   19.5380 O.co2  82  GLU82      -0.2457
     83  N         24.7580   -0.7970   20.7870 N.am   83  TYR83      -0.1960
     84  CA        25.4030   -1.9430   21.4190 C.3    83  TYR83       0.1771
     85  C         24.4510   -2.5810   22.4230 C.2    83  TYR83       0.2620
     86  O         23.8810   -1.8870   23.2650 O.2    83  TYR83      -0.2715
     87  CB        26.6710   -1.4820   22.1270 C.3    83  TYR83       0.0574
     88  CG        27.3580   -2.5170   22.9840 C.ar   83  TYR83      -0.0198
     89  CD1       27.7450   -3.7580   22.4580 C.ar   83  TYR83      -0.0009
     90  CD2       27.6430   -2.2530   24.3220 C.ar   83  TYR83      -0.0009
     91  CE1       28.3860   -4.6930   23.2510 C.ar   83  TYR83       0.0417
     92  CE2       28.2880   -3.1870   25.1140 C.ar   83  TYR83       0.0417
     93  CZ        28.6600   -4.3980   24.5730 C.ar   83  TYR83       0.1957
     94  OH        29.2970   -5.3270   25.3660 O.3    83  TYR83      -0.2866
     95  N         24.2760   -3.8960   22.3260 N.am   84  CYS84      -0.1954
     96  CA        23.4350   -4.6300   23.2580 C.3    84  CYS84       0.1843
     97  C         24.3070   -5.4510   24.1940 C.2    84  CYS84       0.2625
     98  O         24.7370   -6.5560   23.8530 O.2    84  CYS84      -0.2714
     99  CB        22.4570   -5.5170   22.4860 C.3    84  CYS84       0.0997
    100  SG        21.3290   -4.5770   21.3950 S.3    84  CYS84      -0.0797
    101  N         24.5870   -4.9090   25.3740 N.am   85  GLU85      -0.1963
    102  CA        25.6270   -5.4920   26.2180 C.3    85  GLU85       0.1733
    103  C         25.2830   -6.9160   26.6800 C.2    85  GLU85       0.2617
    104  O         26.1510   -7.6470   27.1650 O.2    85  GLU85      -0.2715
    105  CB        25.8900   -4.6070   27.4320 C.3    85  GLU85       0.0429
    106  CG        24.7570   -4.6520   28.4400 C.3    85  GLU85       0.1163
    107  CD        25.1580   -4.0800   29.7740 C.2    85  GLU85       0.3649
    108  OE1       25.1230   -4.8290   30.7710 O.co2  85  GLU85      -0.2457
    109  OE2       25.5120   -2.8850   29.8210 O.co2  85  GLU85      -0.2457
    110  N         24.0200   -7.3060   26.5330 N.am   86  GLY86      -0.1940
    111  CA        23.5790   -8.5990   27.0300 C.3    86  GLY86       0.2014
    112  C         23.8020   -9.7290   26.0500 C.2    86  GLY86       0.2639
    113  O         23.5730  -10.8930   26.3870 O.2    86  GLY86      -0.2714
    114  N         24.2560   -9.4060   24.8380 N.am   87  GLY87      -0.1939
    115  CA        24.4810  -10.4420   23.8390 C.3    87  GLY87       0.2014
    116  C         23.1860  -10.9580   23.2340 C.2    87  GLY87       0.2638
    117  O         22.1740  -10.2620   23.2450 O.2    87  GLY87      -0.2714
    118  N         23.2010  -12.1800   22.7070 N.am   88  ASP88      -0.1971
    119  CA        22.0050  -12.7050   22.0680 C.3    88  ASP88       0.1709
    120  C         21.3100  -13.7780   22.8950 C.2    88  ASP88       0.2293
    121  O         21.8390  -14.2550   23.8940 O.2    88  ASP88      -0.2864
    122  CB        22.2790  -13.1760   20.6390 C.3    88  ASP88       0.1436
    123  CG        23.2320  -14.3720   20.5710 C.2    88  ASP88       0.3671
    124  OD1       23.7320  -14.8400   21.6170 O.co2  88  ASP88      -0.2456
    125  OD2       23.4860  -14.8300   19.4450 O.co2  88  ASP88      -0.2456
    126  N         22.9120  -17.3710   23.2370 N.3    91  SER91      -0.1217
    127  CA        23.9380  -17.5780   24.2700 C.3    91  SER91       0.1889
    128  C         23.3290  -17.7430   25.6590 C.2    91  SER91       0.2288
    129  O         23.8730  -18.4480   26.5080 O.2    91  SER91      -0.2866
    130  CB        24.9650  -16.4370   24.2540 C.3    91  SER91       0.2089
    131  OG        25.5780  -16.3700   22.9830 O.3    91  SER91      -0.2183
    132  N         19.4490  -16.3850   17.8140 N.3   131  ALA131     -0.1245
    133  CA        20.6480  -15.6380   17.4420 C.3   131  ALA131      0.1562
    134  C         20.3530  -14.2340   16.9120 C.2   131  ALA131      0.2260
    135  O         21.2750  -13.4360   16.7310 O.2   131  ALA131     -0.2867
    136  CB        21.4860  -16.4300   16.4240 C.3   131  ALA131      0.0290
    137  N         18.4130   -9.7180   20.7370 N.3   134  PHE134     -0.1241
    138  CA        19.4840   -9.1570   21.5460 C.3   134  PHE134      0.1605
    139  C         18.9690   -8.5310   22.8460 C.2   134  PHE134      0.2264
    140  O         17.8210   -8.1250   22.9340 O.2   134  PHE134     -0.2867
    141  CB        20.3080   -8.1790   20.6920 C.3   134  PHE134      0.0534
    142  CG        20.9190   -8.8350   19.4800 C.ar  134  PHE134     -0.0203
    143  CD1       20.1930   -8.9540   18.3040 C.ar  134  PHE134     -0.0042
    144  CD2       22.1940   -9.3840   19.5350 C.ar  134  PHE134     -0.0042
    145  CE1       20.7270   -9.5840   17.1990 C.ar  134  PHE134     -0.0003
    146  CE2       22.7500  -10.0210   18.4290 C.ar  134  PHE134     -0.0003
    147  CZ        22.0290  -10.1240   17.2600 C.ar  134  PHE134     -0.0000
    148  N         17.0720   -7.9900   15.9400 N.3   144  GLY144     -0.1210
    149  CA        18.0810   -7.4530   15.0440 C.3   144  GLY144      0.1956
    150  C         18.0980   -8.1350   13.6890 C.2   144  GLY144      0.2612
    151  O         17.0940   -8.7030   13.2530 O.2   144  GLY144     -0.2717
    152  N         19.2400   -8.0320   13.0110 N.am  145  ASP145     -0.1959
    153  CA        19.5650   -8.8510   11.8430 C.3   145  ASP145      0.1840
    154  C         18.4210   -9.0370   10.8460 C.2   145  ASP145      0.2622
    155  O         17.7890  -10.0930   10.8020 O.2   145  ASP145     -0.2715
    156  CB        20.0830  -10.2180   12.3060 C.3   145  ASP145      0.1450
    157  CG        21.1340  -10.7920   11.3780 C.2   145  ASP145      0.3671
    158  OD1       21.0690  -10.5220   10.1610 O.co2 145  ASP145     -0.2456
    159  OD2       22.0250  -11.5180   11.8710 O.co2 145  ASP145     -0.2456
    160  N         18.1620   -8.0130   10.0400 N.am  146  PHE146     -0.1974
    161  CA        17.2060   -8.1450    8.9480 C.3   146  PHE146      0.1639
    162  C         17.9690   -8.2540    7.6330 C.2   146  PHE146      0.2290
    163  O         19.1690   -7.9800    7.5820 O.2   146  PHE146     -0.2864
    164  CB        16.2410   -6.9560    8.9010 C.3   146  PHE146      0.0560
    165  CG        15.5610   -6.6640   10.2130 C.ar  146  PHE146     -0.0200
    166  CD1       16.0810   -5.7120   11.0780 C.ar  146  PHE146     -0.0042
    167  CD2       14.4030   -7.3310   10.5770 C.ar  146  PHE146     -0.0042
    168  CE1       15.4660   -5.4350   12.2790 C.ar  146  PHE146     -0.0003
    169  CE2       13.7820   -7.0570   11.7790 C.ar  146  PHE146     -0.0003
    170  CZ        14.3150   -6.1070   12.6310 C.ar  146  PHE146     -0.0000
@<TRIPOS>BOND
     1   163   162    2
     2   162   161    1
     3   164   161    1
     4   164   165    1
     5   161   160    1
     6    41    40    2
     7    44    45    1
     8    44    43    1
     9    46    45    1
    10    40    39    1
    11   160   154   am
    12    43    42    1
    13   158   157   ar
    14   165   167   ar
    15   165   166   ar
    16   167   169   ar
    17   155   154    2
    18   154   153    1
    19    42    39    1
    20   166   168   ar
    21    39    38    1
    22   157   159   ar
    23   157   156    1
    24    58    59    1
    25    58    55    1
    26   169   170   ar
    27    60    59   ar
    28    60    62   ar
    29   153   156    1
    30   153   152    1
    31    59    61   ar
    32    57    56    2
    33    62    64   ar
    34   168   170   ar
    35    61    63   ar
    36    64    63   ar
    37    64    65    1
    38    56    55    1
    39   152   150   am
    40    55    54    1
    41    73    72    1
    42    25    26    1
    43   151   150    2
    44    30    29    1
    45   150   149    1
    46    26    29    1
    47    26    27    1
    48    24    23    2
    49    66    67    1
    50    72    71    1
    51    23    22    1
    52    70    67    1
    53    70    71    1
    54   149   148    1
    55    50    49    2
    56    27    28    2
    57    34    33    2
    58    67    68    1
    59    33    32    1
    60    49    48    1
    61    22    21    1
    62   136   133    1
    63    36    35    1
    64    52    51    1
    65    51    48    1
    66    51    53    1
    67   135   134    2
    68    68    69    2
    69    68    74   am
    70   134   133    1
    71    21    15   am
    72    47    48    1
    73   145   147   ar
    74   145   143   ar
    75   147   146   ar
    76    32    35    1
    77    32    31    1
    78   133   132    1
    79    35    37    1
    80    74    75    1
    81    13    14    1
    82   143   142   ar
    83    15    16    2
    84    15    14    1
    85   146   144   ar
    86     4     3    2
    87     3     2    1
    88    77    76    2
    89    14    17    1
    90    75    76    1
    91    75    78    1
    92    17    18    1
    93    17    19    1
    94   125   123   ar
    95   142   144   ar
    96   142   141    1
    97    82    80   ar
    98    79    78    1
    99    79    80    1
   100    76    83   am
   101     2     1    1
   102     2     5    1
   103    18    20    1
   104    80    81   ar
   105   123   122    1
   106   123   124   ar
   107   122   119    1
   108   141   138    1
   109   137   138    1
   110    83    84    1
   111     5     6    1
   112   100    99    1
   113    84    87    1
   114    84    85    1
   115   138   139    1
   116     6     7   ar
   117     6     8   ar
   118     7     9   ar
   119   119   118    1
   120   119   120    1
   121    87    88    1
   122    95    85   am
   123    95    96    1
   124    85    86    2
   125    89    88   ar
   126    89    91   ar
   127    99    96    1
   128   118   116   am
   129   139   140    2
   130   120   121    2
   131     8    10   ar
   132   131   130    1
   133    88    90   ar
   134     9    11   ar
   135   116   117    2
   136   116   115    1
   137   126   127    1
   138    91    93   ar
   139    96    97    1
   140   115   114    1
   141    98    97    2
   142    10    11   ar
   143    11    12    1
   144    97   101   am
   145   130   127    1
   146   127   128    1
   147    90    92   ar
   148    93    92   ar
   149    93    94    1
   150   114   112   am
   151   101   102    1
   152   128   129    2
   153   112   113    2
   154   112   111    1
   155   102   103    1
   156   102   105    1
   157   110   103   am
   158   110   111    1
   159   103   104    2
   160   105   106    1
   161   106   107    1
   162   107   109   ar
   163   107   108   ar
