@<TRIPOS>MOLECULE
tmp/2xkeA00.pdb
 146 139 0 0 0
SMALL
GASTEIGER

@<TRIPOS>ATOM
      1  N        -36.7740    4.1550   20.2050 N.3    10  TYR10      -0.1241
      2  CA       -37.0750    5.5490   19.8870 C.3    10  TYR10       0.1605
      3  C        -36.0230    6.1430   18.9710 C.2    10  TYR10       0.2264
      4  O        -34.9550    5.5670   18.7900 O.2    10  TYR10      -0.2867
      5  CB       -37.2030    6.4070   21.1550 C.3    10  TYR10       0.0534
      6  CG       -36.0060    6.3670   22.0750 C.ar   10  TYR10      -0.0201
      7  CD1      -34.8920    7.1480   21.8260 C.ar   10  TYR10      -0.0009
      8  CD2      -35.9980    5.5530   23.2020 C.ar   10  TYR10      -0.0009
      9  CE1      -33.7970    7.1190   22.6670 C.ar   10  TYR10       0.0417
     10  CE2      -34.9090    5.5160   24.0490 C.ar   10  TYR10       0.0417
     11  CZ       -33.8150    6.2930   23.7710 C.ar   10  TYR10       0.1957
     12  OH       -32.7310    6.2610   24.6070 O.3    10  TYR10      -0.2866
     13  N        -33.1270    8.7330   18.0520 N.3    12  ILE12      -0.1245
     14  CA       -32.0620    9.4550   18.7330 C.3    12  ILE12       0.1561
     15  C        -31.8570   10.8370   18.1000 C.2    12  ILE12       0.2260
     16  O        -31.7890   11.8460   18.8000 O.2    12  ILE12      -0.2867
     17  CB       -30.7390    8.6770   18.6720 C.3    12  ILE12       0.0252
     18  CG1      -30.8040    7.4660   19.6020 C.3    12  ILE12       0.0019
     19  CG2      -29.5670    9.5730   19.0530 C.3    12  ILE12       0.0019
     20  CD1      -29.6840    6.5170   19.3980 C.3    12  ILE12       0.0001
     21  N        -31.2350    8.4220   13.0790 N.3    17  CYS17      -0.1235
     22  CA       -30.6750    7.4270   14.0040 C.3    17  CYS17       0.1677
     23  C        -31.6510    6.9880   15.0810 C.2    17  CYS17       0.2270
     24  O        -32.2720    7.8150   15.7490 O.2    17  CYS17      -0.2867
     25  CB       -29.4060    7.9430   14.6730 C.3    17  CYS17       0.0956
     26  SG       -28.0080    8.0600   13.5700 S.3    17  CYS17      -0.0801
     27  N        -28.0380    0.5300   17.7320 N.3    30  VAL30      -0.1245
     28  CA       -28.7160    1.5950   17.0190 C.3    30  VAL30       0.1561
     29  C        -28.5820    1.3160   15.5420 C.2    30  VAL30       0.2260
     30  O        -27.7090    0.5490   15.1220 O.2    30  VAL30      -0.2867
     31  CB       -28.1960    3.0210   17.3400 C.3    30  VAL30       0.0252
     32  CG1      -27.6030    3.1100   18.7340 C.3    30  VAL30       0.0019
     33  CG2      -27.2740    3.5370   16.2530 C.3    30  VAL30       0.0019
     34  N        -28.7160    3.5810   11.6470 N.3    32  LYS32      -0.1245
     35  CA       -28.8780    4.8240   10.9120 C.3    32  LYS32       0.1561
     36  C        -29.6370    4.4850    9.6340 C.2    32  LYS32       0.2260
     37  O        -29.3110    3.4930    8.9550 O.2    32  LYS32      -0.2867
     38  CB       -27.5090    5.4160   10.5910 C.3    32  LYS32       0.0271
     39  CG       -27.5370    6.6220    9.6880 C.3    32  LYS32       0.0035
     40  CD       -26.2450    7.4180    9.8060 C.3    32  LYS32       0.0206
     41  CE       -25.0350    6.5440    9.5010 C.3    32  LYS32       0.1093
     42  NZ       -23.7760    7.3390    9.4520 N.3    32  LYS32      -0.1314
     43  N        -16.5410    3.5910   16.8490 N.3    63  VAL63      -0.1245
     44  CA       -17.8820    3.0370   16.8880 C.3    63  VAL63       0.1561
     45  C        -17.8940    1.7660   16.0150 C.2    63  VAL63       0.2260
     46  O        -17.3780    1.7600   14.9050 O.2    63  VAL63      -0.2867
     47  CB       -18.9130    4.0810   16.4080 C.3    63  VAL63       0.0252
     48  CG1      -20.2820    3.4400   16.1350 C.3    63  VAL63       0.0019
     49  CG2      -19.0370    5.2490   17.4270 C.3    63  VAL63       0.0019
     50  N        -19.4990   -0.9310   13.6430 N.3    65  TYR65      -0.1241
     51  CA       -20.5950   -1.1360   12.6840 C.3    65  TYR65       0.1605
     52  C        -20.7400   -2.6040   12.2990 C.2    65  TYR65       0.2264
     53  O        -19.8840   -3.1460   11.6030 O.2    65  TYR65      -0.2867
     54  CB       -20.3820   -0.2940   11.4260 C.3    65  TYR65       0.0534
     55  CG       -20.1190    1.1640   11.7500 C.ar   65  TYR65      -0.0201
     56  CD1      -21.1690    2.0610   11.8860 C.ar   65  TYR65      -0.0009
     57  CD2      -18.8220    1.6290   11.9470 C.ar   65  TYR65      -0.0009
     58  CE1      -20.9430    3.3770   12.1970 C.ar   65  TYR65       0.0417
     59  CE2      -18.5790    2.9440   12.2630 C.ar   65  TYR65       0.0417
     60  CZ       -19.6450    3.8130   12.3880 C.ar   65  TYR65       0.1957
     61  OH       -19.4170    5.1280   12.6920 O.3    65  TYR65      -0.2866
     62  N        -25.2740   -0.5360   14.3430 N.3    81  MET81      -0.1230
     63  CA       -24.0160   -0.2950   15.0360 C.3    81  MET81       0.1702
     64  C        -24.2070   -0.3760   16.5410 C.2    81  MET81       0.2592
     65  O        -25.3420   -0.4230   17.0150 O.2    81  MET81      -0.2718
     66  CB       -23.5050    1.0870   14.6490 C.3    81  MET81       0.0401
     67  CG       -24.3920    2.1860   15.1390 C.3    81  MET81       0.0596
     68  SD       -23.9880    3.7430   14.3620 S.3    81  MET81      -0.1393
     69  CE       -24.7550    3.5790   12.7390 C.3    81  MET81       0.0692
     70  N        -23.1100   -0.3780   17.3000 N.am   82  GLU82      -0.1966
     71  CA       -23.2280   -0.3710   18.7520 C.3    82  GLU82       0.1733
     72  C        -23.9230    0.8710   19.2750 C.2    82  GLU82       0.2616
     73  O        -23.8820    1.9410   18.6550 O.2    82  GLU82      -0.2715
     74  CB       -21.8650   -0.4900   19.4420 C.3    82  GLU82       0.0429
     75  CG       -20.9180    0.6780   19.2110 C.3    82  GLU82       0.1163
     76  CD       -19.5510    0.4550   19.8710 C.2    82  GLU82       0.3649
     77  OE1      -18.5240    0.4860   19.1620 O.co2  82  GLU82      -0.2457
     78  OE2      -19.5120    0.2320   21.1000 O.co2  82  GLU82      -0.2457
     79  N        -24.4990    0.7300   20.4600 N.am   83  TYR83      -0.1960
     80  CA       -25.1130    1.8490   21.1660 C.3    83  TYR83       0.1771
     81  C        -24.1510    2.4400   22.1900 C.2    83  TYR83       0.2620
     82  O        -23.6270    1.7130   23.0380 O.2    83  TYR83      -0.2715
     83  CB       -26.3930    1.3630   21.8620 C.3    83  TYR83       0.0574
     84  CG       -27.0600    2.3750   22.7290 C.ar   83  TYR83      -0.0198
     85  CD1      -27.4930    3.6010   22.1950 C.ar   83  TYR83      -0.0009
     86  CD2      -27.2970    2.1140   24.0800 C.ar   83  TYR83      -0.0009
     87  CE1      -28.1180    4.5350   22.9850 C.ar   83  TYR83       0.0417
     88  CE2      -27.9390    3.0620   24.8860 C.ar   83  TYR83       0.0417
     89  CZ       -28.3420    4.2650   24.3240 C.ar   83  TYR83       0.1957
     90  OH       -28.9850    5.2140   25.0900 O.3    83  TYR83      -0.2866
     91  N        -23.9440    3.7580   22.1010 N.am   84  CYS84      -0.1954
     92  CA       -23.0800    4.5150   23.0010 C.3    84  CYS84       0.1843
     93  C        -23.9340    5.3290   23.9600 C.2    84  CYS84       0.2625
     94  O        -24.3480    6.4450   23.6440 O.2    84  CYS84      -0.2714
     95  CB       -22.1830    5.4600   22.1880 C.3    84  CYS84       0.0997
     96  SG       -21.1180    4.5940   21.0070 S.3    84  CYS84      -0.0797
     97  N        -24.2060    4.7760   25.1360 N.am   85  GLU85      -0.1963
     98  CA       -25.2490    5.3460   25.9830 C.3    85  GLU85       0.1733
     99  C        -24.9340    6.7560   26.4950 C.2    85  GLU85       0.2617
    100  O        -25.8420    7.4780   26.9690 O.2    85  GLU85      -0.2715
    101  CB       -25.5410    4.4140   27.1710 C.3    85  GLU85       0.0429
    102  CG       -24.5790    4.6600   28.3200 C.3    85  GLU85       0.1163
    103  CD       -25.0160    4.0240   29.6240 C.2    85  GLU85       0.3649
    104  OE1      -24.9720    4.7290   30.6590 O.co2  85  GLU85      -0.2457
    105  OE2      -25.3850    2.8280   29.6150 O.co2  85  GLU85      -0.2457
    106  N        -23.6600    7.1620   26.4250 N.am   86  GLY86      -0.1940
    107  CA       -23.2800    8.4580   26.9580 C.3    86  GLY86       0.2014
    108  C        -23.5520    9.6140   26.0020 C.2    86  GLY86       0.2639
    109  O        -23.3370   10.7650   26.3620 O.2    86  GLY86      -0.2714
    110  N        -23.9820    9.3160   24.7710 N.am   87  GLY87      -0.1939
    111  CA       -24.2190   10.3710   23.7900 C.3    87  GLY87       0.2014
    112  C        -22.9250   10.9640   23.2270 C.2    87  GLY87       0.2638
    113  O        -21.8580   10.3580   23.3280 O.2    87  GLY87      -0.2714
    114  N        -23.0140   12.1470   22.6260 N.am   88  ASP88      -0.1971
    115  CA       -21.8550   12.7720   21.9790 C.3    88  ASP88       0.1709
    116  C        -21.1500   13.7910   22.8700 C.2    88  ASP88       0.2293
    117  O        -21.6840   14.2050   23.8970 O.2    88  ASP88      -0.2864
    118  CB       -22.2680   13.4270   20.6740 C.3    88  ASP88       0.1436
    119  CG       -23.1980   14.5860   20.8930 C.2    88  ASP88       0.3671
    120  OD1      -24.2500   14.4250   21.5460 O.co2  88  ASP88      -0.2456
    121  OD2      -22.8610   15.6740   20.4320 O.co2  88  ASP88      -0.2456
    122  N        -22.6390   17.5460   23.2840 N.3    91  SER91      -0.1217
    123  CA       -23.6160   17.6890   24.3760 C.3    91  SER91       0.1889
    124  C        -22.9230   17.7670   25.7360 C.2    91  SER91       0.2288
    125  O        -23.4050   18.4240   26.6510 O.2    91  SER91      -0.2866
    126  CB       -24.6180   16.5310   24.3890 C.3    91  SER91       0.2089
    127  OG       -25.4170   16.5490   23.2210 O.3    91  SER91      -0.2183
    128  N        -18.2700    9.8670   20.6630 N.3   134  PHE134     -0.1241
    129  CA       -19.3440    9.2780   21.4290 C.3   134  PHE134      0.1605
    130  C        -18.8170    8.6110   22.6900 C.2   134  PHE134      0.2264
    131  O        -17.6760    8.1680   22.7310 O.2   134  PHE134     -0.2867
    132  CB       -20.1250    8.3160   20.5170 C.3   134  PHE134      0.0534
    133  CG       -20.7340    9.0270   19.3420 C.ar  134  PHE134     -0.0203
    134  CD1      -20.0870    9.0700   18.1240 C.ar  134  PHE134     -0.0042
    135  CD2      -21.9190    9.7200   19.4850 C.ar  134  PHE134     -0.0042
    136  CE1      -20.6320    9.7630   17.0630 C.ar  134  PHE134     -0.0003
    137  CE2      -22.4700   10.4190   18.4230 C.ar  134  PHE134     -0.0003
    138  CZ       -21.8250   10.4430   17.2170 C.ar  134  PHE134     -0.0000
    139  N        -19.2000    8.3920   12.9430 N.3   145  ASP145     -0.1239
    140  CA       -19.6090    9.0670   11.7030 C.3   145  ASP145      0.1674
    141  C        -18.7720    8.7060   10.4830 C.2   145  ASP145      0.2266
    142  O        -18.9990    7.6720    9.8510 O.2   145  ASP145     -0.2867
    143  CB       -19.6950   10.5850   11.8780 C.3   145  ASP145      0.1410
    144  CG       -20.7310   11.2240   10.9510 C.2   145  ASP145      0.3668
    145  OD1      -20.9090   10.7430    9.8070 O.co2 145  ASP145     -0.2456
    146  OD2      -21.3710   12.2130   11.3730 O.co2 145  ASP145     -0.2456
@<TRIPOS>BOND
     1    37    36    2
     2    42    41    1
     3    41    40    1
     4    36    35    1
     5    39    40    1
     6    39    38    1
     7   145   144   ar
     8   142   141    2
     9   141   140    1
    10    38    35    1
    11    35    34    1
    12   144   146   ar
    13   144   143    1
    14    54    55    1
    15    54    51    1
    16    53    52    2
    17   140   143    1
    18   140   139    1
    19    55    56   ar
    20    55    57   ar
    21    56    58   ar
    22    57    59   ar
    23    58    60   ar
    24    59    60   ar
    25    52    51    1
    26    60    61    1
    27    51    50    1
    28    69    68    1
    29    21    22    1
    30    26    25    1
    31    22    25    1
    32    22    23    1
    33    62    63    1
    34    68    67    1
    35    66    63    1
    36    66    67    1
    37    46    45    2
    38    63    64    1
    39    23    24    2
    40    30    29    2
    41    29    28    1
    42    45    44    1
    43    48    47    1
    44    33    31    1
    45    47    44    1
    46    47    49    1
    47    64    65    2
    48    64    70   am
    49    43    44    1
    50    28    31    1
    51    28    27    1
    52   136   138   ar
    53   136   134   ar
    54   138   137   ar
    55    70    71    1
    56    31    32    1
    57    13    14    1
    58    15    14    1
    59    15    16    2
    60   134   133   ar
    61   137   135   ar
    62    73    72    2
    63    17    14    1
    64    17    19    1
    65    17    18    1
    66    71    72    1
    67    71    74    1
    68     4     3    2
    69     3     2    1
    70    77    76   ar
    71    75    74    1
    72    75    76    1
    73    72    79   am
    74   133   135   ar
    75   133   132    1
    76    20    18    1
    77    76    78   ar
    78     2     1    1
    79     2     5    1
    80   121   119   ar
    81    79    80    1
    82   132   129    1
    83   128   129    1
    84   118   119    1
    85   118   115    1
    86   119   120   ar
    87    96    95    1
    88     5     6    1
    89    80    83    1
    90    80    81    1
    91   129   130    1
    92     7     6   ar
    93     7     9   ar
    94    83    84    1
    95   115   114    1
    96   115   116    1
    97     6     8   ar
    98    91    81   am
    99    91    92    1
   100    95    92    1
   101    81    82    2
   102    85    84   ar
   103    85    87   ar
   104   114   112   am
   105     9    11   ar
   106   130   131    2
   107    84    86   ar
   108   116   117    2
   109    87    89   ar
   110    92    93    1
   111     8    10   ar
   112   127   126    1
   113   112   113    2
   114   112   111    1
   115   122   123    1
   116    94    93    2
   117    11    10   ar
   118    11    12    1
   119   111   110    1
   120    93    97   am
   121    86    88   ar
   122    89    88   ar
   123    89    90    1
   124   123   126    1
   125   123   124    1
   126   110   108   am
   127    97    98    1
   128   124   125    2
   129    98    99    1
   130    98   101    1
   131   108   109    2
   132   108   107    1
   133   106    99   am
   134   106   107    1
   135    99   100    2
   136   101   102    1
   137   102   103    1
   138   105   103   ar
   139   103   104   ar
