@<TRIPOS>MOLECULE
tmp/2xkfA00.pdb
 166 159 0 0 0
SMALL
GASTEIGER

@<TRIPOS>ATOM
      1  N        -37.1070   25.5320  -19.9570 N.3    10  TYR10      -0.1241
      2  CA       -37.4010   24.1240  -19.7240 C.3    10  TYR10       0.1605
      3  C        -36.2710   23.4320  -18.9730 C.2    10  TYR10       0.2264
      4  O        -35.1400   23.9140  -18.9370 O.2    10  TYR10      -0.2867
      5  CB       -37.6690   23.3970  -21.0450 C.3    10  TYR10       0.0534
      6  CG       -36.5070   23.4400  -22.0120 C.ar   10  TYR10      -0.0201
      7  CD1      -35.4710   22.5170  -21.9280 C.ar   10  TYR10      -0.0009
      8  CD2      -36.4480   24.4020  -23.0100 C.ar   10  TYR10      -0.0009
      9  CE1      -34.4070   22.5540  -22.8110 C.ar   10  TYR10       0.0417
     10  CE2      -35.3940   24.4470  -23.8980 C.ar   10  TYR10       0.0417
     11  CZ       -34.3760   23.5220  -23.7930 C.ar   10  TYR10       0.1957
     12  OH       -33.3300   23.5740  -24.6780 O.3    10  TYR10      -0.2866
     13  N        -33.4170   20.7710  -18.1890 N.3    12  ILE12      -0.1231
     14  CA       -32.4290   19.9910  -18.9080 C.3    12  ILE12       0.1692
     15  C        -32.3040   18.6240  -18.2520 C.2    12  ILE12       0.2592
     16  O        -32.6310   17.6040  -18.8570 O.2    12  ILE12      -0.2718
     17  CB       -31.0690   20.6970  -18.9130 C.3    12  ILE12       0.0266
     18  CG1      -31.1500   21.9760  -19.7480 C.3    12  ILE12       0.0019
     19  CG2      -29.9950   19.7720  -19.4570 C.3    12  ILE12       0.0020
     20  CD1      -30.0040   22.9240  -19.5210 C.3    12  ILE12       0.0001
     21  N        -31.8430   18.6130  -17.0060 N.am   13  GLY13      -0.1957
     22  CA       -31.7420   17.3880  -16.2380 C.3    13  GLY13       0.1869
     23  C        -32.2320   17.5650  -14.8130 C.2    13  GLY13       0.2309
     24  O        -32.2740   18.6810  -14.2980 O.2    13  GLY13      -0.2863
     25  N        -31.5950   21.1050  -13.2650 N.3    17  CYS17      -0.1235
     26  CA       -30.8360   22.0000  -14.1240 C.3    17  CYS17       0.1677
     27  C        -31.7760   22.5500  -15.1940 C.2    17  CYS17       0.2270
     28  O        -32.4850   21.7910  -15.8550 O.2    17  CYS17      -0.2867
     29  CB       -29.6730   21.2490  -14.7730 C.3    17  CYS17       0.0956
     30  SG       -28.6450   22.2460  -15.8710 S.3    17  CYS17      -0.0801
     31  N        -28.1750   28.9800  -17.9390 N.3    30  VAL30      -0.1245
     32  CA       -28.8440   27.9350  -17.1940 C.3    30  VAL30       0.1561
     33  C        -28.7090   28.2410  -15.7140 C.2    30  VAL30       0.2260
     34  O        -27.8860   29.0610  -15.3140 O.2    30  VAL30      -0.2867
     35  CB       -28.2760   26.5220  -17.4910 C.3    30  VAL30       0.0252
     36  CG1      -28.0190   26.3350  -18.9770 C.3    30  VAL30       0.0019
     37  CG2      -27.0180   26.2740  -16.6990 C.3    30  VAL30       0.0019
     38  N        -28.7770   25.9940  -11.7560 N.3    32  LYS32      -0.1245
     39  CA       -28.9030   24.7460  -11.0270 C.3    32  LYS32       0.1561
     40  C        -29.6820   25.0160   -9.7490 C.2    32  LYS32       0.2260
     41  O        -29.3620   25.9460   -9.0010 O.2    32  LYS32      -0.2867
     42  CB       -27.5230   24.1890  -10.6990 C.3    32  LYS32       0.0271
     43  CG       -27.5450   22.9180   -9.8840 C.3    32  LYS32       0.0035
     44  CD       -26.1590   22.5840   -9.3520 C.3    32  LYS32       0.0206
     45  CE       -25.1800   22.2820  -10.4720 C.3    32  LYS32       0.1093
     46  NZ       -23.8450   21.8960   -9.9290 N.3    32  LYS32      -0.1314
     47  N        -16.6900   25.8650  -16.9670 N.3    63  VAL63      -0.1245
     48  CA       -18.0330   26.4290  -16.9730 C.3    63  VAL63       0.1561
     49  C        -18.0550   27.7100  -16.1470 C.2    63  VAL63       0.2260
     50  O        -17.6650   27.7140  -14.9820 O.2    63  VAL63      -0.2867
     51  CB       -19.0890   25.4450  -16.4290 C.3    63  VAL63       0.0252
     52  CG1      -20.4510   26.1100  -16.4070 C.3    63  VAL63       0.0019
     53  CG2      -19.1340   24.1800  -17.2770 C.3    63  VAL63       0.0019
     54  N        -19.5170   30.4340  -13.9320 N.3    65  TYR65      -0.1241
     55  CA       -20.6090   30.5880  -12.9850 C.3    65  TYR65       0.1605
     56  C        -20.8300   32.0640  -12.6640 C.2    65  TYR65       0.2264
     57  O        -20.0600   32.6720  -11.9200 O.2    65  TYR65      -0.2867
     58  CB       -20.3370   29.7640  -11.7250 C.3    65  TYR65       0.0534
     59  CG       -20.1230   28.2910  -12.0270 C.ar   65  TYR65      -0.0201
     60  CD1      -21.2020   27.4270  -12.1570 C.ar   65  TYR65      -0.0009
     61  CD2      -18.8440   27.7720  -12.1960 C.ar   65  TYR65      -0.0009
     62  CE1      -21.0180   26.0850  -12.4400 C.ar   65  TYR65       0.0417
     63  CE2      -18.6470   26.4280  -12.4800 C.ar   65  TYR65       0.0417
     64  CZ       -19.7400   25.5910  -12.6010 C.ar   65  TYR65       0.1957
     65  OH       -19.5630   24.2550  -12.8840 O.3    65  TYR65      -0.2866
     66  N        -25.2350   30.0510  -14.5290 N.3    81  MET81      -0.1230
     67  CA       -23.9910   29.8110  -15.2540 C.3    81  MET81       0.1702
     68  C        -24.2250   29.8850  -16.7590 C.2    81  MET81       0.2592
     69  O        -25.3630   30.0000  -17.2100 O.2    81  MET81      -0.2718
     70  CB       -23.4270   28.4420  -14.8760 C.3    81  MET81       0.0401
     71  CG       -24.3360   27.2860  -15.2580 C.3    81  MET81       0.0596
     72  SD       -24.0550   25.7770  -14.3070 S.3    81  MET81      -0.1393
     73  CE       -24.4680   26.3320  -12.6600 C.3    81  MET81       0.0692
     74  N        -23.1490   29.8190  -17.5370 N.am   82  GLU82      -0.1966
     75  CA       -23.2810   29.8480  -18.9890 C.3    82  GLU82       0.1733
     76  C        -24.0470   28.6360  -19.5030 C.2    82  GLU82       0.2616
     77  O        -24.1360   27.6100  -18.8290 O.2    82  GLU82      -0.2715
     78  CB       -21.9140   29.9300  -19.6670 C.3    82  GLU82       0.0429
     79  CG       -21.0130   28.7370  -19.4030 C.3    82  GLU82       0.1163
     80  CD       -19.6570   28.8850  -20.0590 C.2    82  GLU82       0.3649
     81  OE1      -19.6120   29.0570  -21.2910 O.co2  82  GLU82      -0.2457
     82  OE2      -18.6360   28.8340  -19.3440 O.co2  82  GLU82      -0.2457
     83  N        -24.6140   28.7690  -20.6970 N.am   83  TYR83      -0.1960
     84  CA       -25.2880   27.6560  -21.3460 C.3    83  TYR83       0.1771
     85  C        -24.3340   26.9780  -22.3200 C.2    83  TYR83       0.2620
     86  O        -23.7350   27.6390  -23.1680 O.2    83  TYR83      -0.2715
     87  CB       -26.5450   28.1340  -22.0790 C.3    83  TYR83       0.0574
     88  CG       -27.1920   27.0660  -22.9290 C.ar   83  TYR83      -0.0198
     89  CD1      -27.6240   25.8710  -22.3620 C.ar   83  TYR83      -0.0009
     90  CD2      -27.3760   27.2480  -24.2960 C.ar   83  TYR83      -0.0009
     91  CE1      -28.2150   24.8860  -23.1280 C.ar   83  TYR83       0.0417
     92  CE2      -27.9750   26.2640  -25.0740 C.ar   83  TYR83       0.0417
     93  CZ       -28.3930   25.0850  -24.4780 C.ar   83  TYR83       0.1957
     94  OH       -28.9840   24.0920  -25.2260 O.3    83  TYR83      -0.2866
     95  N        -24.1900   25.6620  -22.1850 N.am   84  CYS84      -0.1954
     96  CA       -23.3510   24.8740  -23.0830 C.3    84  CYS84       0.1843
     97  C        -24.2180   24.0010  -23.9940 C.2    84  CYS84       0.2625
     98  O        -24.5550   22.8700  -23.6520 O.2    84  CYS84      -0.2714
     99  CB       -22.3780   24.0010  -22.2820 C.3    84  CYS84       0.0997
    100  SG       -21.3350   24.9000  -21.0990 S.3    84  CYS84      -0.0797
    101  N        -24.5640   24.5260  -25.1630 N.am   85  GLU85      -0.1963
    102  CA       -25.5650   23.8910  -26.0140 C.3    85  GLU85       0.1733
    103  C        -25.2070   22.4720  -26.4710 C.2    85  GLU85       0.2617
    104  O        -26.0830   21.7130  -26.8790 O.2    85  GLU85      -0.2715
    105  CB       -25.8490   24.7620  -27.2360 C.3    85  GLU85       0.0429
    106  CG       -24.7300   24.7350  -28.2560 C.3    85  GLU85       0.1163
    107  CD       -25.1440   25.3300  -29.5780 C.2    85  GLU85       0.3649
    108  OE1      -25.6380   26.4760  -29.5800 O.co2  85  GLU85      -0.2457
    109  OE2      -24.9840   24.6460  -30.6100 O.co2  85  GLU85      -0.2457
    110  N        -23.9270   22.1180  -26.4060 N.am   86  GLY86      -0.1940
    111  CA       -23.4660   20.8360  -26.9140 C.3    86  GLY86       0.2014
    112  C        -23.7080   19.6490  -25.9950 C.2    86  GLY86       0.2639
    113  O        -23.5330   18.5000  -26.4030 O.2    86  GLY86      -0.2714
    114  N        -24.1070   19.9190  -24.7550 N.am   87  GLY87      -0.1939
    115  CA       -24.3520   18.8640  -23.7840 C.3    87  GLY87       0.2014
    116  C        -23.0600   18.3390  -23.1830 C.2    87  GLY87       0.2638
    117  O        -22.0300   19.0130  -23.2330 O.2    87  GLY87      -0.2714
    118  N        -23.1040   17.1350  -22.6150 N.am   88  ASP88      -0.1971
    119  CA       -21.9210   16.5630  -21.9780 C.3    88  ASP88       0.1709
    120  C        -21.2390   15.4960  -22.8420 C.2    88  ASP88       0.2293
    121  O        -21.7660   15.0880  -23.8750 O.2    88  ASP88      -0.2864
    122  CB       -22.2570   16.0090  -20.5920 C.3    88  ASP88       0.1436
    123  CG       -23.2060   14.8230  -20.6450 C.2    88  ASP88       0.3671
    124  OD1      -23.7910   14.5620  -21.7150 O.co2  88  ASP88      -0.2456
    125  OD2      -23.3690   14.1510  -19.6080 O.co2  88  ASP88      -0.2456
    126  N        -22.9700   11.7550  -23.1710 N.3    91  SER91      -0.1217
    127  CA       -23.9560   11.6030  -24.2390 C.3    91  SER91       0.1889
    128  C        -23.2920   11.4810  -25.6030 C.2    91  SER91       0.2288
    129  O        -23.7560   10.7350  -26.4630 O.2    91  SER91      -0.2866
    130  CB       -24.9420   12.7750  -24.2440 C.3    91  SER91       0.2089
    131  OG       -25.5210   12.9590  -22.9630 O.3    91  SER91      -0.2183
    132  N        -19.4140   12.8840  -17.8590 N.3   132  ALA132     -0.1245
    133  CA       -20.6410   13.5840  -17.4810 C.3   132  ALA132      0.1562
    134  C        -20.3620   14.9440  -16.8340 C.2   132  ALA132      0.2260
    135  O        -21.2830   15.7080  -16.5620 O.2   132  ALA132     -0.2867
    136  CB       -21.4980   12.7050  -16.5580 C.3   132  ALA132      0.0290
    137  N        -18.3550   19.5020  -20.6470 N.3   135  PHE135     -0.1241
    138  CA       -19.4170   20.0790  -21.4630 C.3   135  PHE135      0.1605
    139  C        -18.8960   20.8000  -22.6970 C.2   135  PHE135      0.2264
    140  O        -17.7400   21.2230  -22.7450 O.2   135  PHE135     -0.2867
    141  CB       -20.3040   20.9880  -20.6020 C.3   135  PHE135      0.0534
    142  CG       -20.9080   20.2740  -19.4210 C.ar  135  PHE135     -0.0203
    143  CD1      -20.2060   20.1540  -18.2320 C.ar  135  PHE135     -0.0042
    144  CD2      -22.1580   19.6820  -19.5170 C.ar  135  PHE135     -0.0042
    145  CE1      -20.7470   19.4730  -17.1540 C.ar  135  PHE135     -0.0003
    146  CE2      -22.7070   19.0030  -18.4420 C.ar  135  PHE135     -0.0003
    147  CZ       -22.0010   18.9000  -17.2580 C.ar  135  PHE135     -0.0000
    148  N        -19.2030   21.1200  -12.8450 N.3   146  ASP146     -0.1225
    149  CA       -19.5970   20.3600  -11.6610 C.3   146  ASP146      0.1805
    150  C        -18.4360   20.1960  -10.6870 C.2   146  ASP146      0.2597
    151  O        -17.7500   19.1740  -10.6830 O.2   146  ASP146     -0.2718
    152  CB       -20.1640   18.9940  -12.0580 C.3   146  ASP146      0.1424
    153  CG       -21.0840   18.4110  -10.9980 C.2   146  ASP146      0.3668
    154  OD1      -21.0710   18.9060   -9.8490 O.co2 146  ASP146     -0.2456
    155  OD2      -21.8230   17.4550  -11.3160 O.co2 146  ASP146     -0.2456
    156  N        -18.2240   21.2100   -9.8560 N.am  147  PHE147     -0.1976
    157  CA       -17.1280   21.1820   -8.8980 C.3   147  PHE147      0.1639
    158  C        -17.6310   20.9790   -7.4730 C.2   147  PHE147      0.2290
    159  O        -17.2680   20.0070   -6.8060 O.2   147  PHE147     -0.2864
    160  CB       -16.3080   22.4660   -8.9900 C.3   147  PHE147      0.0560
    161  CG       -15.6120   22.6470  -10.3080 C.ar  147  PHE147     -0.0200
    162  CD1      -14.3550   22.1100  -10.5160 C.ar  147  PHE147     -0.0042
    163  CD2      -16.2080   23.3640  -11.3320 C.ar  147  PHE147     -0.0042
    164  CE1      -13.7070   22.2810  -11.7170 C.ar  147  PHE147     -0.0003
    165  CE2      -15.5660   23.5360  -12.5370 C.ar  147  PHE147     -0.0003
    166  CZ       -14.3130   22.9930  -12.7310 C.ar  147  PHE147     -0.0000
@<TRIPOS>BOND
     1   109   107   ar
     2   108   107   ar
     3   107   106    1
     4   106   105    1
     5   105   102    1
     6   111   110    1
     7   111   112    1
     8   104   103    2
     9   103   110   am
    10   103   102    1
    11   129   128    2
    12   113   112    2
    13   102   101    1
    14   112   114   am
    15   128   127    1
    16    94    93    1
    17   101    97   am
    18    92    93   ar
    19    92    90   ar
    20   114   115    1
    21    12    11    1
    22    93    91   ar
    23    90    88   ar
    24   130   127    1
    25   130   131    1
    26   127   126    1
    27    97    98    2
    28    97    96    1
    29    10    11   ar
    30    10     8   ar
    31   121   120    2
    32    11     9   ar
    33   115   116    1
    34   117   116    2
    35   116   118   am
    36    86    85    2
    37    91    89   ar
    38    96    99    1
    39    96    95    1
    40     8     6   ar
    41    88    89   ar
    42    88    87    1
    43   120   119    1
    44     9     7   ar
    45   140   139    2
    46   139   138    1
    47   118   119    1
    48    85    95   am
    49    85    84    1
    50    99   100    1
    51    87    84    1
    52     6     7   ar
    53     6     5    1
    54   119   122    1
    55   124   123   ar
    56   138   137    1
    57   138   141    1
    58    84    83    1
    59    81    80   ar
    60     5     2    1
    61    83    76   am
    62   123   122    1
    63   123   125   ar
    64   141   142    1
    65    80    79    1
    66    80    82   ar
    67     1     2    1
    68    18    20    1
    69    18    17    1
    70     2     3    1
    71    78    79    1
    72    78    75    1
    73   144   142   ar
    74   144   146   ar
    75    76    75    1
    76    76    77    2
    77    19    17    1
    78   142   143   ar
    79    75    74    1
    80    36    35    1
    81     3     4    2
    82    17    14    1
    83    14    15    1
    84    14    13    1
    85    16    15    2
    86   146   147   ar
    87    15    21   am
    88   143   145   ar
    89    31    32    1
    90   132   133    1
    91    74    68   am
    92    35    32    1
    93    35    37    1
    94   133   134    1
    95   133   136    1
    96    53    51    1
    97   147   145   ar
    98    69    68    2
    99    32    33    1
   100    21    22    1
   101    48    47    1
   102    48    51    1
   103    48    49    1
   104   134   135    2
   105    68    67    1
   106    51    52    1
   107    22    23    1
   108    49    50    2
   109    30    29    1
   110    28    27    2
   111    33    34    2
   112    71    70    1
   113    71    72    1
   114    67    70    1
   115    67    66    1
   116    27    26    1
   117    23    24    2
   118    29    26    1
   119    72    73    1
   120    26    25    1
   121    54    55    1
   122    55    56    1
   123    55    58    1
   124    65    64    1
   125   148   149    1
   126   166   165   ar
   127   166   164   ar
   128    56    57    2
   129    64    63   ar
   130    64    62   ar
   131   165   163   ar
   132    63    61   ar
   133    62    60   ar
   134    61    59   ar
   135    60    59   ar
   136   152   149    1
   137   152   153    1
   138    59    58    1
   139    38    39    1
   140   164   162   ar
   141   149   150    1
   142   163   161   ar
   143   155   153   ar
   144    39    42    1
   145    39    40    1
   146   153   154   ar
   147    42    43    1
   148   150   151    2
   149   150   156   am
   150   162   161   ar
   151    45    46    1
   152    45    44    1
   153   161   160    1
   154    43    44    1
   155   156   157    1
   156    40    41    2
   157   160   157    1
   158   157   158    1
   159   158   159    2
