@<TRIPOS>MOLECULE
tmp/2xkrA01.pdb
 98 88 0 0 0
SMALL
GASTEIGER

@<TRIPOS>ATOM
      1  N         18.2130   29.4230   83.0750 N.3    62  ILE62      -0.1245
      2  CA        17.0360   30.2120   83.4580 C.3    62  ILE62       0.1561
      3  C         15.9200   30.2810   82.4070 C.2    62  ILE62       0.2260
      4  O         14.9290   30.9890   82.6140 O.2    62  ILE62      -0.2867
      5  CB        17.4250   31.6320   83.9720 C.3    62  ILE62       0.0252
      6  CG1       18.4140   32.3260   83.0390 C.3    62  ILE62       0.0019
      7  CG2       18.0800   31.5460   85.3560 C.3    62  ILE62       0.0019
      8  CD1       17.8530   32.7400   81.7130 C.3    62  ILE62       0.0001
      9  N         27.7370   31.1840   83.1110 N.3    71  MET71      -0.1245
     10  CA        27.6270   32.5770   83.5120 C.3    71  MET71       0.1570
     11  C         26.8760   32.6620   84.8290 C.2    71  MET71       0.2261
     12  O         26.1000   31.7620   85.1680 O.2    71  MET71      -0.2867
     13  CB        26.8950   33.3910   82.4470 C.3    71  MET71       0.0387
     14  CG        25.5330   32.8460   82.0880 C.3    71  MET71       0.0595
     15  SD        24.6810   33.8710   80.8650 S.3    71  MET71      -0.1393
     16  CE        25.9340   34.1310   79.6170 C.3    71  MET71       0.0692
     17  N         24.2830   33.9680   86.1410 N.3    73  ILE73      -0.1245
     18  CA        22.8480   33.7900   86.3340 C.3    73  ILE73       0.1561
     19  C         22.4170   32.3280   86.2160 C.2    73  ILE73       0.2260
     20  O         21.3040   31.9620   86.6260 O.2    73  ILE73      -0.2867
     21  CB        22.0470   34.7150   85.3820 C.3    73  ILE73       0.0252
     22  CG1       20.6240   34.9470   85.9020 C.3    73  ILE73       0.0019
     23  CG2       22.0350   34.1710   83.9450 C.3    73  ILE73       0.0019
     24  CD1       19.9070   36.0590   85.1380 C.3    73  ILE73       0.0001
     25  N         16.7150   33.5950   73.5540 N.3   160  LEU160     -0.1245
     26  CA        16.2840   33.2650   74.9110 C.3   160  LEU160      0.1561
     27  C         14.7710   33.2900   75.0480 C.2   160  LEU160      0.2260
     28  O         14.2300   32.7220   76.0020 O.2   160  LEU160     -0.2867
     29  CB        16.9010   34.2430   75.9190 C.3   160  LEU160      0.0270
     30  CG        18.4210   34.1460   76.0180 C.3   160  LEU160      0.0019
     31  CD1       19.0180   35.4090   76.6150 C.3   160  LEU160      0.0001
     32  CD2       18.7890   32.9340   76.8460 C.3   160  LEU160      0.0001
     33  N         26.4550   38.7100   79.4850 N.3   223  LEU223     -0.1245
     34  CA        25.2870   38.7180   80.3600 C.3   223  LEU223      0.1561
     35  C         24.8820   40.1630   80.6750 C.2   223  LEU223      0.2260
     36  O         23.6950   40.4970   80.7280 O.2   223  LEU223     -0.2867
     37  CB        25.6070   37.9570   81.6510 C.3   223  LEU223      0.0270
     38  CG        24.5160   37.9600   82.7230 C.3   223  LEU223      0.0019
     39  CD1       23.2070   37.4130   82.1610 C.3   223  LEU223      0.0001
     40  CD2       24.9650   37.1490   83.9220 C.3   223  LEU223      0.0001
     41  N         23.1940   41.6960   77.3880 N.3   226  ILE226     -0.1231
     42  CA        21.8330   41.2040   77.1790 C.3   226  ILE226      0.1692
     43  C         20.9420   41.6160   78.3330 C.2   226  ILE226      0.2592
     44  O         19.7900   42.0000   78.1360 O.2   226  ILE226     -0.2718
     45  CB        21.7940   39.6650   77.0170 C.3   226  ILE226      0.0266
     46  CG1       22.7020   39.2250   75.8620 C.3   226  ILE226      0.0019
     47  CG2       20.3650   39.1660   76.8000 C.3   226  ILE226      0.0020
     48  CD1       22.5490   40.0500   74.6050 C.3   226  ILE226      0.0001
     49  N         21.4860   41.5550   79.5410 N.am  227  GLY227     -0.1957
     50  CA        20.6960   41.8150   80.7250 C.3   227  GLY227      0.1869
     51  C         20.2820   43.2610   80.9020 C.2   227  GLY227      0.2309
     52  O         19.2270   43.5490   81.4840 O.2   227  GLY227     -0.2863
     53  N         15.8960   45.2130   78.4980 N.3   231  THR231     -0.1218
     54  CA        15.1540   45.3440   79.7430 C.3   231  THR231      0.1862
     55  C         14.9250   46.8270   80.0720 C.2   231  THR231      0.2287
     56  O         13.7850   47.2750   80.2480 O.2   231  THR231     -0.2866
     57  CB        15.9410   44.6920   80.8780 C.3   231  THR231      0.1770
     58  OG1       17.2810   45.1860   80.8340 O.3   231  THR231     -0.2211
     59  CG2       15.9880   43.1800   80.7070 C.3   231  THR231      0.0375
     60  N         11.3380   41.6700   82.3820 N.3   274  VAL274     -0.1245
     61  CA        11.6410   40.2430   82.5080 C.3   274  VAL274      0.1561
     62  C         10.3780   39.5370   82.9920 C.2   274  VAL274      0.2260
     63  O          9.9840   39.6770   84.1500 O.2   274  VAL274     -0.2867
     64  CB        12.8250   39.9630   83.4750 C.3   274  VAL274      0.0252
     65  CG1       13.0520   38.4590   83.5950 C.3   274  VAL274      0.0019
     66  CG2       14.0860   40.6540   82.9780 C.3   274  VAL274      0.0019
     67  N         11.8680   34.0570   85.0200 N.3   277  MET277     -0.1245
     68  CA        13.1370   33.3380   85.0700 C.3   277  MET277      0.1570
     69  C         12.7830   31.9410   85.5540 C.2   277  MET277      0.2261
     70  O         11.8830   31.7840   86.3860 O.2   277  MET277     -0.2867
     71  CB        14.0870   33.9960   86.0720 C.3   277  MET277      0.0387
     72  CG        14.6670   35.3260   85.6280 C.3   277  MET277      0.0595
     73  SD        16.1220   35.0640   84.5910 S.3   277  MET277     -0.1393
     74  CE        16.4850   36.7510   84.1210 C.3   277  MET277      0.0692
     75  N         18.9620   41.5330   90.5820 N.3   337  CYS337     -0.1235
     76  CA        19.6490   42.1740   89.4660 C.3   337  CYS337      0.1677
     77  C         20.9080   42.9440   89.8730 C.2   337  CYS337      0.2270
     78  O         20.8410   43.9100   90.6310 O.2   337  CYS337     -0.2867
     79  CB        18.6920   43.1180   88.7400 C.3   337  CYS337      0.0956
     80  SG        19.4960   43.9740   87.3770 S.3   337  CYS337     -0.0801
     81  N         10.4110   35.8080   77.2610 N.3   377  PHE377     -0.1227
     82  CA        11.4250   36.1020   78.2730 C.3   377  PHE377      0.1736
     83  C         11.4540   37.5910   78.6450 C.2   377  PHE377      0.2595
     84  O         11.0610   37.9750   79.7540 O.2   377  PHE377     -0.2718
     85  CB        12.7910   35.5990   77.7820 C.3   377  PHE377      0.0547
     86  CG        13.9100   35.8370   78.7440 C.ar  377  PHE377     -0.0202
     87  CD1       13.7500   35.5700   80.0990 C.ar  377  PHE377     -0.0042
     88  CD2       15.1400   36.3030   78.2930 C.ar  377  PHE377     -0.0042
     89  CE1       14.7970   35.7740   80.9930 C.ar  377  PHE377     -0.0003
     90  CE2       16.1900   36.5110   79.1730 C.ar  377  PHE377     -0.0003
     91  CZ        16.0160   36.2460   80.5400 C.ar  377  PHE377     -0.0000
     92  N         11.8830   38.4290   77.7080 N.am  378  VAL378     -0.1980
     93  CA        11.9220   39.8770   77.9000 C.3   378  VAL378      0.1595
     94  C         11.0400   40.5190   76.8340 C.2   378  VAL378      0.2287
     95  O         11.1680   40.2010   75.6470 O.2   378  VAL378     -0.2864
     96  CB        13.3670   40.3940   77.7580 C.3   378  VAL378      0.0276
     97  CG1       13.4050   41.9290   77.6730 C.3   378  VAL378      0.0022
     98  CG2       14.2180   39.8860   78.9180 C.3   378  VAL378      0.0022
@<TRIPOS>BOND
     1    25    26    1
     2    48    46    1
     3    26    27    1
     4    26    29    1
     5    27    28    2
     6    95    94    2
     7    46    45    1
     8    29    30    1
     9    30    31    1
    10    30    32    1
    11    47    45    1
    12    94    93    1
    13    45    42    1
    14    42    41    1
    15    42    43    1
    16    81    82    1
    17    97    96    1
    18    92    93    1
    19    92    83   am
    20    96    93    1
    21    96    98    1
    22    85    82    1
    23    85    86    1
    24    44    43    2
    25    82    83    1
    26    88    86   ar
    27    88    90   ar
    28    43    49   am
    29    53    54    1
    30    83    84    2
    31    86    87   ar
    32    90    91   ar
    33    33    34    1
    34    49    50    1
    35    16    15    1
    36    54    55    1
    37    54    57    1
    38    55    56    2
    39    87    89   ar
    40    34    35    1
    41    34    37    1
    42    91    89   ar
    43    35    36    2
    44    59    57    1
    45    50    51    1
    46    58    57    1
    47    15    14    1
    48    51    52    2
    49    37    38    1
    50     8     6    1
    51    14    13    1
    52    39    38    1
    53    60    61    1
    54     3     4    2
    55     3     2    1
    56    13    10    1
    57    61    62    1
    58    61    64    1
    59    38    40    1
    60    66    64    1
    61    62    63    2
    62     6     5    1
    63     1     2    1
    64     9    10    1
    65     2     5    1
    66    64    65    1
    67    10    11    1
    68    23    21    1
    69     5     7    1
    70    74    73    1
    71    73    72    1
    72    11    12    2
    73    67    68    1
    74    68    69    1
    75    68    71    1
    76    24    22    1
    77    21    22    1
    78    21    18    1
    79    69    70    2
    80    72    71    1
    81    17    18    1
    82    19    18    1
    83    19    20    2
    84    80    79    1
    85    79    76    1
    86    76    77    1
    87    76    75    1
    88    77    78    2
