@<TRIPOS>MOLECULE
tmp/2xkwB00.pdb
 191 177 0 0 0
SMALL
GASTEIGER

@<TRIPOS>ATOM
      1  N         -2.9450  -24.0740    4.1580 N.3    43  ILE43      -0.1245
      2  CA        -3.9420  -22.9990    4.1710 C.3    43  ILE43       0.1561
      3  C         -3.1850  -21.6830    4.0810 C.2    43  ILE43       0.2260
      4  O         -2.4460  -21.3360    4.9920 O.2    43  ILE43      -0.2867
      5  CB        -4.8390  -23.0690    5.4430 C.3    43  ILE43       0.0252
      6  CG1       -5.6830  -24.3540    5.3900 C.3    43  ILE43       0.0019
      7  CG2       -5.7450  -21.8490    5.5270 C.3    43  ILE43       0.0019
      8  CD1       -6.3010  -24.7600    6.7190 C.3    43  ILE43       0.0001
      9  N         -8.5470  -22.0930    2.9370 N.3    49  LEU49      -0.1245
     10  CA        -9.1710  -22.3480    4.2570 C.3    49  LEU49       0.1561
     11  C        -10.4890  -23.1350    4.1000 C.2    49  LEU49       0.2260
     12  O        -10.7360  -24.1330    4.7650 O.2    49  LEU49      -0.2867
     13  CB        -9.4590  -21.0300    4.9640 C.3    49  LEU49       0.0270
     14  CG       -10.2060  -21.1380    6.3070 C.3    49  LEU49       0.0019
     15  CD1       -9.2410  -21.2800    7.4540 C.3    49  LEU49       0.0001
     16  CD2      -11.0570  -19.9070    6.5010 C.3    49  LEU49       0.0001
     17  N        -11.2440  -26.8290    5.4790 N.3    53  GLU53      -0.1245
     18  CA       -12.3400  -27.1900    6.3850 C.3    53  GLU53       0.1567
     19  C        -13.1900  -28.3520    5.8470 C.2    53  GLU53       0.2260
     20  O        -13.6810  -29.1500    6.6220 O.2    53  GLU53      -0.2867
     21  CB       -13.2110  -25.9590    6.6840 C.3    53  GLU53       0.0388
     22  CG       -12.4430  -24.8440    7.4160 C.3    53  GLU53       0.1160
     23  CD       -13.3060  -23.6770    7.8450 C.2    53  GLU53       0.3649
     24  OE1      -14.3640  -23.4270    7.2110 O.co2  53  GLU53      -0.2457
     25  OE2      -12.9200  -23.0060    8.8320 O.co2  53  GLU53      -0.2457
     26  N        -11.9000  -30.7220   11.9960 N.3    58  PHE58      -0.1241
     27  CA       -12.2410  -29.5680   12.8490 C.3    58  PHE58       0.1605
     28  C        -13.5230  -29.7860   13.6550 C.2    58  PHE58       0.2264
     29  O        -14.6530  -29.6470   13.1640 O.2    58  PHE58      -0.2867
     30  CB       -12.2960  -28.2580   12.0780 C.3    58  PHE58       0.0534
     31  CG       -10.9900  -27.8890   11.4450 C.ar   58  PHE58      -0.0203
     32  CD1       -9.8100  -27.9230   12.1810 C.ar   58  PHE58      -0.0042
     33  CD2      -10.9350  -27.5180   10.1150 C.ar   58  PHE58      -0.0042
     34  CE1       -8.6010  -27.5950   11.5940 C.ar   58  PHE58      -0.0003
     35  CE2       -9.7330  -27.1910    9.5210 C.ar   58  PHE58      -0.0003
     36  CZ        -8.5640  -27.2270   10.2650 C.ar   58  PHE58      -0.0000
     37  N        -14.4910  -28.0700   16.1960 N.3    60  HIS60      -0.1241
     38  CA       -14.9460  -26.8290   16.8540 C.3    60  HIS60       0.1621
     39  C        -16.0360  -26.0450   16.1010 C.2    60  HIS60       0.2264
     40  O        -16.7070  -25.1880   16.6830 O.2    60  HIS60      -0.2867
     41  CB       -13.7610  -25.9010   17.1190 C.3    60  HIS60       0.0745
     42  CG       -13.1370  -25.3420   15.8810 C.ar   60  HIS60       0.0817
     43  ND1      -13.3080  -24.0310   15.4890 N.ar   60  HIS60      -0.2268
     44  CD2      -12.3290  -25.9080   14.9570 C.ar   60  HIS60       0.1154
     45  CE1      -12.6360  -23.8160   14.3710 C.ar   60  HIS60       0.1986
     46  NE2      -12.0330  -24.9390   14.0260 N.ar   60  HIS60      -0.2212
     47  N        -13.5930  -17.7000   13.9480 N.3    67  ARG67      -0.1231
     48  CA       -13.5900  -19.1630   13.8130 C.3    67  ARG67       0.1694
     49  C        -12.1820  -19.7350   13.9760 C.2    67  ARG67       0.2591
     50  O        -11.9810  -20.7290   14.6750 O.2    67  ARG67      -0.2718
     51  CB       -14.1450  -19.5410   12.4380 C.3    67  ARG67       0.0321
     52  CG       -14.6530  -20.9650   12.2920 C.3    67  ARG67       0.0489
     53  CD       -15.5860  -21.0680   11.0630 C.3    67  ARG67       0.2205
     54  NE       -14.8620  -20.9060    9.7980 N.pl3  67  ARG67      -0.0865
     55  CZ       -15.3420  -20.3040    8.7050 C.cat  67  ARG67       0.5346
     56  NH1      -16.5500  -19.7460    8.6950 N.pl3  67  ARG67       0.1354
     57  NH2      -14.5910  -20.2270    7.6140 N.pl3  67  ARG67       0.1354
     58  N        -11.2150  -19.1010   13.3250 N.am   68  ILE68      -0.1980
     59  CA        -9.8000  -19.4430   13.5090 C.3    68  ILE68       0.1595
     60  C         -9.3720  -19.2370   14.9700 C.2    68  ILE68       0.2287
     61  O         -8.7440  -20.0980   15.5500 O.2    68  ILE68      -0.2864
     62  CB        -8.8890  -18.6090   12.5660 C.3    68  ILE68       0.0276
     63  CG1       -9.0620  -19.0750   11.1200 C.3    68  ILE68       0.0022
     64  CG2       -7.4110  -18.7330   12.9830 C.3    68  ILE68       0.0022
     65  CD1       -8.4420  -18.1310   10.0870 C.3    68  ILE68       0.0001
     66  N        -10.8460  -21.9670   16.9670 N.3    71  GLY71      -0.1210
     67  CA       -10.1160  -23.2050   16.7160 C.3    71  GLY71       0.1956
     68  C         -8.8760  -23.3020   17.5690 C.2    71  GLY71       0.2612
     69  O         -8.5770  -24.3630   18.1180 O.2    71  GLY71      -0.2717
     70  N         -8.1490  -22.1900   17.6850 N.am   72  CYS72      -0.1970
     71  CA        -6.9610  -22.1570   18.5520 C.3    72  CYS72       0.1712
     72  C         -7.3390  -22.4680   19.9970 C.2    72  CYS72       0.2296
     73  O         -6.6970  -23.3090   20.6650 O.2    72  CYS72      -0.2864
     74  CB        -6.2510  -20.8040   18.4770 C.3    72  CYS72       0.0983
     75  SG        -4.7360  -20.7620   19.4640 S.3    72  CYS72      -0.0798
     76  N         -8.1890  -26.1950   20.6280 N.3    75  ARG75      -0.1231
     77  CA        -6.9730  -26.9980   20.6800 C.3    75  ARG75       0.1694
     78  C         -6.2390  -26.7680   22.0050 C.2    75  ARG75       0.2592
     79  O         -5.6420  -27.7000   22.5650 O.2    75  ARG75      -0.2718
     80  CB        -6.0830  -26.7020   19.4550 C.3    75  ARG75       0.0321
     81  CG        -4.7180  -27.3810   19.4530 C.3    75  ARG75       0.0489
     82  CD        -4.8030  -28.9010   19.3660 C.3    75  ARG75       0.2205
     83  NE        -3.5160  -29.5090   19.7200 N.pl3  75  ARG75      -0.0865
     84  CZ        -3.2490  -30.2120   20.8230 C.cat  75  ARG75       0.5346
     85  NH1       -4.1790  -30.4620   21.7280 N.pl3  75  ARG75       0.1354
     86  NH2       -2.0270  -30.7010   21.0120 N.pl3  75  ARG75       0.1354
     87  N         -6.2810  -25.5440   22.5230 N.am   76  SER76      -0.1952
     88  CA        -5.6530  -25.2460   23.8320 C.3    76  SER76       0.1924
     89  C         -6.3300  -25.9720   24.9880 C.2    76  SER76       0.2314
     90  O         -5.6660  -26.4990   25.9010 O.2    76  SER76      -0.2863
     91  CB        -5.6690  -23.7410   24.1070 C.3    76  SER76       0.2116
     92  OG        -4.8440  -23.0690   23.1630 O.3    76  SER76      -0.2180
     93  N         -5.1630  -29.3310   24.8140 N.3    79  ALA79      -0.1245
     94  CA        -3.7810  -29.3420   25.3180 C.3    79  ALA79       0.1562
     95  C         -3.7280  -29.3780   26.8610 C.2    79  ALA79       0.2260
     96  O         -2.9120  -30.0830   27.4490 O.2    79  ALA79      -0.2867
     97  CB        -2.9980  -28.1420   24.7760 C.3    79  ALA79       0.0290
     98  N         -4.0710  -32.9190   28.0140 N.3    82  GLU82      -0.1231
     99  CA        -2.8320  -33.6790   27.7720 C.3    82  GLU82       0.1699
    100  C         -1.7170  -33.3250   28.7820 C.2    82  GLU82       0.2592
    101  O         -0.9940  -34.1990   29.2970 O.2    82  GLU82      -0.2718
    102  CB        -2.3230  -33.4030   26.3660 C.3    82  GLU82       0.0402
    103  CG        -3.2370  -33.9650   25.2530 C.3    82  GLU82       0.1161
    104  CD        -3.1560  -33.1540   23.9490 C.2    82  GLU82       0.3649
    105  OE1       -2.1870  -32.3620   23.7760 O.co2  82  GLU82      -0.2457
    106  OE2       -4.0700  -33.3010   23.1050 O.co2  82  GLU82      -0.2457
    107  N         -1.5620  -32.0330   29.0200 N.am   83  ILE83      -0.1980
    108  CA        -0.5830  -31.5300   29.9750 C.3    83  ILE83       0.1595
    109  C         -0.8870  -32.0280   31.3960 C.2    83  ILE83       0.2287
    110  O          0.0210  -32.4070   32.1360 O.2    83  ILE83      -0.2864
    111  CB        -0.4820  -29.9910   29.9330 C.3    83  ILE83       0.0276
    112  CG1        0.0220  -29.5200   28.5750 C.3    83  ILE83       0.0022
    113  CG2        0.4980  -29.5100   30.9940 C.3    83  ILE83       0.0022
    114  CD1       -0.2650  -28.0610   28.2790 C.3    83  ILE83       0.0001
    115  N          1.9530  -24.5580   26.7860 N.3   113  ILE113     -0.1245
    116  CA         1.3180  -24.4970   25.4950 C.3   113  ILE113      0.1561
    117  C          2.2200  -23.7950   24.4830 C.2   113  ILE113      0.2260
    118  O          2.3720  -24.2510   23.3330 O.2   113  ILE113     -0.2867
    119  CB        -0.0810  -23.8380   25.5890 C.3   113  ILE113      0.0252
    120  CG1       -1.1040  -24.8350   26.1770 C.3   113  ILE113      0.0019
    121  CG2       -0.5580  -23.2940   24.2280 C.3   113  ILE113      0.0019
    122  CD1       -2.4070  -24.1250   26.5510 C.3   113  ILE113      0.0001
    123  N          5.2860  -25.9170   23.5310 N.3   116  MET116     -0.1230
    124  CA         4.9850  -26.9990   22.6000 C.3   116  MET116      0.1702
    125  C          4.5090  -26.5110   21.2440 C.2   116  MET116      0.2592
    126  O          4.7090  -27.1610   20.2480 O.2   116  MET116     -0.2718
    127  CB         3.9890  -27.9550   23.2300 C.3   116  MET116      0.0401
    128  CG         4.5830  -28.5800   24.4890 C.3   116  MET116      0.0596
    129  SD         3.5310  -29.8590   25.1050 S.3   116  MET116     -0.1393
    130  CE         3.9030  -31.0560   23.8030 C.3   116  MET116      0.0692
    131  N          3.8900  -25.3440   21.2080 N.am  117  LEU117     -0.1980
    132  CA         3.4790  -24.7690   19.9480 C.3   117  LEU117      0.1596
    133  C          4.7040  -24.4370   19.0720 C.2   117  LEU117      0.2287
    134  O          4.6630  -24.5650   17.8290 O.2   117  LEU117     -0.2864
    135  CB         2.6070  -23.5510   20.2250 C.3   117  LEU117      0.0297
    136  CG         2.0150  -22.7950   19.0560 C.3   117  LEU117      0.0022
    137  CD1        1.1230  -23.7360   18.2200 C.3   117  LEU117      0.0001
    138  CD2        1.2220  -21.6230   19.5830 C.3   117  LEU117      0.0001
    139  N          5.7120  -26.9980   16.6600 N.3   120  LEU120     -0.1245
    140  CA         4.8830  -27.1090   15.4680 C.3   120  LEU120      0.1561
    141  C          5.0190  -25.9360   14.5020 C.2   120  LEU120      0.2260
    142  O          4.3480  -25.9250   13.4580 O.2   120  LEU120     -0.2867
    143  CB         3.4200  -27.1710   15.8750 C.3   120  LEU120      0.0270
    144  CG         3.0300  -28.2140   16.9010 C.3   120  LEU120      0.0019
    145  CD1        1.5640  -28.0790   17.2750 C.3   120  LEU120      0.0001
    146  CD2        3.3130  -29.5650   16.3750 C.3   120  LEU120      0.0001
    147  N          2.4040  -22.6490   10.8300 N.3   126  VAL126     -0.1231
    148  CA         2.1800  -23.5580   11.9480 C.3   126  VAL126      0.1692
    149  C          1.3800  -24.8070   11.5430 C.2   126  VAL126      0.2592
    150  O          0.4090  -24.7380   10.8000 O.2   126  VAL126     -0.2718
    151  CB         1.4870  -22.8030   13.1110 C.3   126  VAL126      0.0266
    152  CG1        0.1320  -22.2470   12.7020 C.3   126  VAL126      0.0020
    153  CG2        1.3490  -23.7110   14.3410 C.3   126  VAL126      0.0020
    154  N          1.8100  -25.9580   12.0280 N.am  127  LEU127     -0.1966
    155  CA         1.0620  -27.1690   11.8430 C.3   127  LEU127      0.1728
    156  C         -0.1810  -27.1920   12.7260 C.2   127  LEU127      0.2616
    157  O         -0.1180  -26.8470   13.9000 O.2   127  LEU127     -0.2715
    158  CB         1.9350  -28.3720   12.1720 C.3   127  LEU127      0.0311
    159  CG         3.0640  -28.6510   11.2010 C.3   127  LEU127      0.0022
    160  CD1        3.9090  -29.7940   11.7450 C.3   127  LEU127      0.0001
    161  CD2        2.5450  -28.9890    9.7950 C.3   127  LEU127      0.0001
    162  N         -1.2990  -27.6190   12.1500 N.am  128  ILE128     -0.1963
    163  CA        -2.5610  -27.7360   12.8650 C.3   128  ILE128      0.1727
    164  C         -3.1970  -29.1250   12.6760 C.2   128  ILE128      0.2616
    165  O         -2.8370  -29.8760   11.7690 O.2   128  ILE128     -0.2715
    166  CB        -3.5590  -26.6460   12.4530 C.3   128  ILE128      0.0290
    167  CG1       -3.9670  -26.7860   10.9870 C.3   128  ILE128      0.0022
    168  CG2       -2.9780  -25.2590   12.6950 C.3   128  ILE128      0.0023
    169  CD1       -5.0180  -25.7580   10.5570 C.3   128  ILE128      0.0001
    170  N         -4.1220  -29.4500   13.5810 N.am  129  SER129     -0.1950
    171  CA        -4.7770  -30.7530   13.6690 C.3   129  SER129      0.1924
    172  C         -3.8140  -31.9360   13.4680 C.2   129  SER129      0.2314
    173  O         -3.9220  -32.6850   12.5080 O.2   129  SER129     -0.2863
    174  CB        -5.9630  -30.8220   12.6940 C.3   129  SER129      0.2116
    175  OG        -5.5340  -30.5780   11.3750 O.3   129  SER129     -0.2180
    176  N         -1.0000  -23.8630    8.4470 N.3   135  MET135     -0.1245
    177  CA        -1.5320  -22.5230    8.1940 C.3   135  MET135      0.1570
    178  C         -0.3990  -21.5160    8.0940 C.2   135  MET135      0.2261
    179  O          0.4620  -21.4690    8.9800 O.2   135  MET135     -0.2867
    180  CB        -2.5060  -22.1150    9.2890 C.3   135  MET135      0.0387
    181  CG        -3.3350  -20.8950    8.9320 C.3   135  MET135      0.0595
    182  SD        -4.7410  -20.6410   10.0190 S.3   135  MET135     -0.1393
    183  CE        -6.0460  -21.3640    9.0470 C.3   135  MET135      0.0692
    184  N         -1.2480  -14.4860   16.7610 N.3   151  MET151     -0.1245
    185  CA        -0.2270  -15.5170   16.6040 C.3   151  MET151      0.1570
    186  C          1.1930  -14.9800   16.4150 C.2   151  MET151      0.2261
    187  O          2.1570  -15.6880   16.7240 O.2   151  MET151     -0.2867
    188  CB        -0.5800  -16.4400   15.4240 C.3   151  MET151      0.0387
    189  CG        -1.6640  -17.4410   15.7500 C.3   151  MET151      0.0595
    190  SD        -1.0720  -18.8630   16.7080 S.3   151  MET151     -0.1393
    191  CE        -2.1620  -20.1200   16.0450 C.3   151  MET151      0.0692
@<TRIPOS>BOND
     1     9    10    1
     2     3     2    1
     3     3     4    2
     4    11    10    1
     5    11    12    2
     6     1     2    1
     7     2     5    1
     8    10    13    1
     9    13    14    1
    10     6     5    1
    11     6     8    1
    12     5     7    1
    13    17    18    1
    14    19    18    1
    15    19    20    2
    16    14    16    1
    17    14    15    1
    18    18    21    1
    19    21    22    1
    20    24    23   ar
    21    22    23    1
    22    57    55    1
    23    23    25   ar
    24   178   177    1
    25   178   179    2
    26   177   176    1
    27   177   180    1
    28    56    55    1
    29    55    54    2
    30   181   180    1
    31   181   182    1
    32   183   182    1
    33    35    33   ar
    34    35    36   ar
    35   161   159    1
    36    54    53    1
    37    65    63    1
    38    33    31   ar
    39    36    34   ar
    40   169   167    1
    41   150   149    2
    42   147   148    1
    43   167   166    1
    44    53    52    1
    45    63    62    1
    46   159   160    1
    47   159   158    1
    48   175   174    1
    49    31    30    1
    50    31    32   ar
    51   149   148    1
    52   149   154   am
    53    34    32   ar
    54   165   164    2
    55   155   154    1
    56   155   158    1
    57   155   156    1
    58   148   151    1
    59    26    27    1
    60    30    27    1
    61   162   156   am
    62   162   163    1
    63    52    51    1
    64    51    48    1
    65   166   168    1
    66   166   163    1
    67   173   172    2
    68    62    64    1
    69    62    59    1
    70   164   163    1
    71   164   170   am
    72   174   171    1
    73   152   151    1
    74   156   157    2
    75    27    28    1
    76   151   153    1
    77    29    28    2
    78    58    59    1
    79    58    49   am
    80   142   141    2
    81   172   171    1
    82    59    60    1
    83   170   171    1
    84    48    47    1
    85    48    49    1
    86    49    50    2
    87    46    45   ar
    88    46    44   ar
    89    45    43   ar
    90   141   140    1
    91    44    42   ar
    92    60    61    2
    93   188   189    1
    94   188   185    1
    95   140   143    1
    96   140   139    1
    97    43    42   ar
    98   189   190    1
    99   143   144    1
   100    42    41    1
   101   191   190    1
   102    39    40    2
   103    39    38    1
   104    37    38    1
   105   146   144    1
   106   186   185    1
   107   186   187    2
   108   185   184    1
   109    67    66    1
   110    67    68    1
   111    38    41    1
   112   144   145    1
   113    68    70   am
   114    68    69    2
   115    70    71    1
   116   134   133    2
   117   137   136    1
   118    74    71    1
   119    74    75    1
   120    71    72    1
   121   136   138    1
   122   136   135    1
   123   133   132    1
   124    82    81    1
   125    82    83    1
   126    81    80    1
   127    80    77    1
   128    83    84    2
   129   132   135    1
   130   132   131    1
   131    72    73    2
   132   126   125    2
   133    76    77    1
   134    77    78    1
   135    84    86    1
   136    84    85    1
   137   131   125   am
   138   125   124    1
   139    78    87   am
   140    78    79    2
   141    87    88    1
   142   124   127    1
   143   124   123    1
   144   106   104   ar
   145    92    91    1
   146   127   128    1
   147   118   117    2
   148   105   104   ar
   149   130   129    1
   150    88    91    1
   151    88    89    1
   152   104   103    1
   153   121   119    1
   154   117   116    1
   155   128   129    1
   156    97    94    1
   157    93    94    1
   158    89    90    2
   159   103   102    1
   160    94    95    1
   161   116   119    1
   162   116   115    1
   163   119   120    1
   164   120   122    1
   165   102    99    1
   166    95    96    2
   167    99    98    1
   168    99   100    1
   169   114   112    1
   170   112   111    1
   171   100   107   am
   172   100   101    2
   173   107   108    1
   174   111   108    1
   175   111   113    1
   176   108   109    1
   177   109   110    2
