@<TRIPOS>MOLECULE
tmp/2xkwB01.pdb
 90 85 0 0 0
SMALL
GASTEIGER

@<TRIPOS>ATOM
      1  N          7.7590  -33.2410    8.9420 N.3    30  ILE30      -0.1231
      2  CA         6.6840  -32.6540    8.1470 C.3    30  ILE30       0.1692
      3  C          7.0230  -31.2280    7.6680 C.2    30  ILE30       0.2592
      4  O          6.8090  -30.8910    6.5050 O.2    30  ILE30      -0.2718
      5  CB         5.3570  -32.6220    8.9370 C.3    30  ILE30       0.0266
      6  CG1        4.8970  -34.0410    9.3000 C.3    30  ILE30       0.0019
      7  CG2        4.2830  -31.9000    8.1250 C.3    30  ILE30       0.0020
      8  CD1        3.8390  -34.0740   10.3820 C.3    30  ILE30       0.0001
      9  N          7.5150  -30.3840    8.5720 N.am   31  LEU31      -0.1966
     10  CA         7.8710  -28.9940    8.2260 C.3    31  LEU31       0.1728
     11  C          9.0090  -28.9070    7.2060 C.2    31  LEU31       0.2617
     12  O          9.0670  -27.9790    6.4020 O.2    31  LEU31      -0.2715
     13  CB         8.2610  -28.2170    9.4750 C.3    31  LEU31       0.0311
     14  CG         7.0940  -27.9450   10.4520 C.3    31  LEU31       0.0022
     15  CD1        7.5460  -27.4440   11.8110 C.3    31  LEU31       0.0001
     16  CD2        6.1130  -26.9340    9.8190 C.3    31  LEU31       0.0001
     17  N          9.9210  -29.8670    7.2460 N.am   32  THR32      -0.1937
     18  CA        11.0440  -29.8740    6.3160 C.3    32  THR32       0.2028
     19  C         10.7210  -30.7110    5.0780 C.2    32  THR32       0.2642
     20  O         11.6000  -30.9830    4.2640 O.2    32  THR32      -0.2714
     21  CB        12.3420  -30.3850    6.9940 C.3    32  THR32       0.1808
     22  OG1       12.1710  -31.7320    7.4580 O.3    32  THR32      -0.2208
     23  CG2       12.7060  -29.4820    8.1650 C.3    32  THR32       0.0379
     24  N          9.4630  -31.1240    4.9420 N.am   33  GLY33      -0.1954
     25  CA         9.0350  -31.9300    3.8020 C.3    33  GLY33       0.1869
     26  C          9.7840  -33.2440    3.6430 C.2    33  GLY33       0.2309
     27  O         10.0010  -33.6930    2.5190 O.2    33  GLY33      -0.2863
     28  N          7.0030  -38.2230    3.9340 N.3    36  THR36      -0.1218
     29  CA         5.8270  -37.9660    3.1100 C.3    36  THR36       0.1862
     30  C          4.5510  -38.5630    3.7160 C.2    36  THR36       0.2287
     31  O          3.4490  -38.1070    3.4040 O.2    36  THR36      -0.2866
     32  CB         6.0210  -38.5350    1.6930 C.3    36  THR36       0.1770
     33  OG1        6.2520  -39.9460    1.7730 O.3    36  THR36      -0.2211
     34  CG2        7.2110  -37.8690    1.0030 C.3    36  THR36       0.0375
     35  N          2.7780  -38.1600    6.1550 N.3    38  LYS38      -0.1231
     36  CA         1.8000  -37.0980    6.3900 C.3    38  LYS38       0.1693
     37  C          2.0730  -35.9440    5.4190 C.2    38  LYS38       0.2593
     38  O          3.1520  -35.3440    5.4440 O.2    38  LYS38      -0.2718
     39  CB         1.8520  -36.6030    7.8460 C.3    38  LYS38       0.0285
     40  CG         0.9470  -37.3750    8.8120 C.3    38  LYS38       0.0035
     41  CD         0.8780  -36.7020   10.1770 C.3    38  LYS38       0.0206
     42  CE        -0.2360  -37.2770   11.0350 C.3    38  LYS38       0.1093
     43  NZ        -0.0430  -38.7210   11.3410 N.3    38  LYS38      -0.1314
     44  N          1.1090  -35.6650    4.5470 N.am   39  SER39      -0.1939
     45  CA         1.1430  -34.4800    3.6950 C.3    39  SER39       0.2040
     46  C          0.0870  -33.5120    4.2270 C.2    39  SER39       0.2485
     47  O         -1.1110  -33.7550    4.0500 O.2    39  SER39      -0.2729
     48  CB         0.8480  -34.8450    2.2400 C.3    39  SER39       0.2129
     49  OG         0.7430  -33.6830    1.4300 O.3    39  SER39      -0.2179
     50  N          0.5200  -32.4400    4.9220 N.am   40  PRO40      -0.2726
     51  CA        -0.4300  -31.4430    5.4150 C.3    40  PRO40       0.1402
     52  C         -1.0920  -30.6120    4.3140 C.2    40  PRO40       0.2269
     53  O         -0.4680  -30.2410    3.3330 O.2    40  PRO40      -0.2865
     54  CB         0.4200  -30.5470    6.3280 C.3    40  PRO40       0.0296
     55  CG         1.7870  -30.7470    5.8960 C.3    40  PRO40       0.0237
     56  CD         1.9010  -32.1230    5.3250 C.3    40  PRO40       0.0939
     57  N         -2.1800  -27.2840    2.9980 N.3    42  VAL42      -0.1245
     58  CA        -1.6790  -25.9430    3.2720 C.3    42  VAL42       0.1561
     59  C         -2.7770  -24.9030    3.1260 C.2    42  VAL42       0.2260
     60  O         -3.4480  -24.8600    2.1060 O.2    42  VAL42      -0.2867
     61  CB        -0.4980  -25.5810    2.3540 C.3    42  VAL42       0.0252
     62  CG1       -0.0240  -24.1650    2.6480 C.3    42  VAL42       0.0019
     63  CG2        0.6460  -26.6080    2.5340 C.3    42  VAL42       0.0019
     64  N          7.4470  -23.0080   12.2260 N.3   122  ASN122     -0.1240
     65  CA         8.6840  -22.4310   11.7050 C.3   122  ASN122      0.1653
     66  C          8.4020  -20.9870   11.3070 C.2   122  ASN122      0.2266
     67  O          7.3220  -20.4630   11.5970 O.2   122  ASN122     -0.2867
     68  CB         9.2830  -23.2730   10.5540 C.3   122  ASN122      0.1155
     69  CG         8.4260  -23.2920    9.3250 C.2   122  ASN122      0.2627
     70  OD1        7.4900  -22.5230    9.1980 O.2   122  ASN122     -0.2716
     71  ND2        8.7550  -24.1770    8.3940 N.am  122  ASN122     -0.0877
     72  N          7.5570  -19.7570    8.6640 N.3   124  ASP124     -0.1239
     73  CA         6.6230  -19.6520    7.5410 C.3   124  ASP124      0.1674
     74  C          5.1830  -20.0230    7.8970 C.2   124  ASP124      0.2266
     75  O          4.2590  -19.6410    7.1770 O.2   124  ASP124     -0.2867
     76  CB         7.1310  -20.5020    6.3610 C.3   124  ASP124      0.1410
     77  CG         8.4520  -19.9710    5.7800 C.2   124  ASP124      0.3668
     78  OD1        8.5080  -18.7800    5.4140 O.co2 124  ASP124     -0.2456
     79  OD2        9.4370  -20.7430    5.6880 O.co2 124  ASP124     -0.2456
     80  N         -1.4180  -27.0820    7.5880 N.3   134  PHE134     -0.1241
     81  CA        -0.3530  -26.1290    7.8060 C.3   134  PHE134      0.1605
     82  C         -0.9180  -24.7490    7.4640 C.2   134  PHE134      0.2264
     83  O         -1.3040  -24.5070    6.3240 O.2   134  PHE134     -0.2867
     84  CB         0.8440  -26.4360    6.9150 C.3   134  PHE134      0.0534
     85  CG         1.9990  -25.4540    7.0900 C.ar  134  PHE134     -0.0203
     86  CD1        2.8420  -25.5640    8.1720 C.ar  134  PHE134     -0.0042
     87  CD2        2.2170  -24.4310    6.1700 C.ar  134  PHE134     -0.0042
     88  CE1        3.9080  -24.6810    8.3360 C.ar  134  PHE134     -0.0003
     89  CE2        3.2680  -23.5450    6.3270 C.ar  134  PHE134     -0.0003
     90  CZ         4.1170  -23.6790    7.4250 C.ar  134  PHE134     -0.0000
@<TRIPOS>BOND
     1    34    32    1
     2    49    48    1
     3    32    33    1
     4    32    29    1
     5    60    59    2
     6    48    45    1
     7    61    63    1
     8    61    62    1
     9    61    58    1
    10    27    26    2
    11    57    58    1
    12    29    30    1
    13    29    28    1
    14    59    58    1
    15    53    52    2
    16    31    30    2
    17    26    25    1
    18    45    46    1
    19    45    44    1
    20    25    24    1
    21    47    46    2
    22    46    50   am
    23    20    19    2
    24    52    51    1
    25    44    37   am
    26    50    56    1
    27    50    51    1
    28    24    19   am
    29    19    18    1
    30    56    55    1
    31    78    77   ar
    32    51    54    1
    33    37    38    2
    34    37    36    1
    35    79    77   ar
    36    77    76    1
    37    55    54    1
    38    35    36    1
    39    87    89   ar
    40    87    85   ar
    41    18    21    1
    42    18    17    1
    43    83    82    2
    44    89    90   ar
    45    76    73    1
    46    36    39    1
    47    12    11    2
    48     4     3    2
    49    84    85    1
    50    84    81    1
    51    21    22    1
    52    21    23    1
    53    85    86   ar
    54    75    74    2
    55    11    17   am
    56    11    10    1
    57    90    88   ar
    58    82    81    1
    59    73    74    1
    60    73    72    1
    61    80    81    1
    62     3     2    1
    63     3     9   am
    64    39    40    1
    65     7     5    1
    66     2     5    1
    67     2     1    1
    68    86    88   ar
    69    10     9    1
    70    10    13    1
    71    71    69   am
    72    40    41    1
    73     5     6    1
    74    70    69    2
    75     6     8    1
    76    69    68    1
    77    13    14    1
    78    16    14    1
    79    41    42    1
    80    14    15    1
    81    68    65    1
    82    42    43    1
    83    66    67    2
    84    66    65    1
    85    65    64    1
