@<TRIPOS>MOLECULE
tmp/2xl2A00.pdb
 131 124 0 0 0
SMALL
GASTEIGER

@<TRIPOS>ATOM
      1  N         19.1810   15.4310    2.1180 N.3   151  ARG151     -0.1245
      2  CA        20.4390   14.7670    2.4460 C.3   151  ARG151      0.1563
      3  C         21.1430   15.3200    3.6930 C.2   151  ARG151      0.2260
      4  O         21.9960   14.6550    4.2740 O.2   151  ARG151     -0.2867
      5  CB        21.3900   14.8240    1.2400 C.3   151  ARG151      0.0307
      6  CG        22.4910   13.7830    1.2650 C.3   151  ARG151      0.0489
      7  CD        23.5680   14.0530    0.2190 C.3   151  ARG151      0.2205
      8  NE        24.5090   15.0780    0.6600 N.pl3 151  ARG151     -0.0865
      9  CZ        24.3920   16.3720    0.3720 C.cat 151  ARG151      0.5346
     10  NH1       23.3740   16.7990   -0.3640 N.pl3 151  ARG151      0.1354
     11  NH2       25.2930   17.2390    0.8180 N.pl3 151  ARG151      0.1354
     12  N         15.3870   13.0380   -3.8530 N.3   193  SER193     -0.1203
     13  CA        16.4030   12.2410   -4.5150 C.3   193  SER193      0.2005
     14  C         17.5790   12.2010   -3.5680 C.2   193  SER193      0.2461
     15  O         17.6630   13.0160   -2.6530 O.2   193  SER193     -0.2732
     16  CB        16.8170   12.9070   -5.8300 C.3   193  SER193      0.2103
     17  OG        17.2840   14.2320   -5.5940 O.3   193  SER193     -0.2182
     18  N         18.4970   11.2560   -3.7780 N.am  194  PRO194     -0.2717
     19  CA        19.6070   11.0770   -2.8350 C.3   194  PRO194      0.1535
     20  C         20.5020   12.3070   -2.6930 C.2   194  PRO194      0.2598
     21  O         21.0710   12.5290   -1.6320 O.2   194  PRO194     -0.2715
     22  CB        20.3860    9.9070   -3.4380 C.3   194  PRO194      0.0310
     23  CG        19.3690    9.1440   -4.1960 C.3   194  PRO194      0.0237
     24  CD        18.4250   10.1660   -4.7610 C.3   194  PRO194      0.0939
     25  N         20.6370   13.0990   -3.7430 N.am  195  ASN195     -0.1973
     26  CA        21.4600   14.3000   -3.6430 C.3   195  ASN195      0.1688
     27  C         20.6510   15.4700   -3.0970 C.2   195  ASN195      0.2292
     28  O         21.1990   16.5140   -2.7460 O.2   195  ASN195     -0.2864
     29  CB        22.0750   14.6470   -4.9920 C.3   195  ASN195      0.1181
     30  CG        21.0380   14.7980   -6.0710 C.2   195  ASN195      0.2629
     31  OD1       19.8600   15.0100   -5.7850 O.2   195  ASN195     -0.2716
     32  ND2       21.4640   14.6880   -7.3240 N.am  195  ASN195     -0.0877
     33  N         18.4410   17.2470   -4.6300 N.3   197  LYS197     -0.1231
     34  CA        18.2310   18.3090   -5.6120 C.3   197  LYS197      0.1693
     35  C         16.8600   18.2110   -6.2540 C.2   197  LYS197      0.2592
     36  O         16.2810   19.2180   -6.6590 O.2   197  LYS197     -0.2718
     37  CB        19.3050   18.2600   -6.6960 C.3   197  LYS197      0.0285
     38  CG        20.6870   18.6730   -6.2210 C.3   197  LYS197      0.0035
     39  CD        21.7440   18.3900   -7.2830 C.3   197  LYS197      0.0206
     40  CE        23.1330   18.7580   -6.7780 C.3   197  LYS197      0.1093
     41  NZ        23.4650   18.0790   -5.4830 N.3   197  LYS197     -0.1314
     42  N         16.3500   16.9890   -6.3540 N.am  198  TYR198     -0.1976
     43  CA        15.0540   16.7470   -6.9660 C.3   198  TYR198      0.1639
     44  C         14.1150   16.0960   -5.9660 C.2   198  TYR198      0.2290
     45  O         14.5480   15.6050   -4.9180 O.2   198  TYR198     -0.2864
     46  CB        15.2110   15.8560   -8.1970 C.3   198  TYR198      0.0560
     47  CG        16.2740   16.3440   -9.1470 C.ar  198  TYR198     -0.0198
     48  CD1       15.9740   17.2800  -10.1300 C.ar  198  TYR198     -0.0009
     49  CD2       17.5860   15.8890   -9.0480 C.ar  198  TYR198     -0.0009
     50  CE1       16.9460   17.7400  -11.0000 C.ar  198  TYR198      0.0417
     51  CE2       18.5680   16.3440   -9.9120 C.ar  198  TYR198      0.0417
     52  CZ        18.2420   17.2710  -10.8870 C.ar  198  TYR198      0.1957
     53  OH        19.2140   17.7270  -11.7550 O.3   198  TYR198     -0.2866
     54  N          8.9280   13.8860  -11.4980 N.3   210  LEU210     -0.1245
     55  CA        10.1990   14.3290  -10.9420 C.3   210  LEU210      0.1561
     56  C         10.3190   15.8610  -11.0490 C.2   210  LEU210      0.2260
     57  O         10.2340   16.4300  -12.1320 O.2   210  LEU210     -0.2867
     58  CB        11.3380   13.6410  -11.6800 C.3   210  LEU210      0.0270
     59  CG        12.7550   14.0050  -11.2650 C.3   210  LEU210      0.0019
     60  CD1       12.9910   13.5570   -9.8380 C.3   210  LEU210      0.0001
     61  CD2       13.7390   13.3440  -12.2140 C.3   210  LEU210      0.0001
     62  N          9.7600   17.8220  -14.5900 N.3   219  LEU219     -0.1231
     63  CA        10.6940   17.4560  -15.6530 C.3   219  LEU219      0.1693
     64  C         10.3200   16.1430  -16.3190 C.2   219  LEU219      0.2591
     65  O          9.8230   16.1110  -17.4510 O.2   219  LEU219     -0.2718
     66  CB        12.0980   17.3060  -15.0790 C.3   219  LEU219      0.0284
     67  CG        12.6110   18.4410  -14.1950 C.3   219  LEU219      0.0019
     68  CD1       13.8710   17.9850  -13.4780 C.3   219  LEU219      0.0001
     69  CD2       12.8700   19.7030  -15.0110 C.3   219  LEU219      0.0001
     70  N         10.6000   15.0520  -15.6180 N.am  220  LYS220     -0.1980
     71  CA        10.2040   13.7360  -16.0790 C.3   220  LYS220      0.1596
     72  C          8.8130   13.3970  -15.5650 C.2   220  LYS220      0.2287
     73  O          8.3700   13.8870  -14.5290 O.2   220  LYS220     -0.2864
     74  CB        11.1940   12.6900  -15.5940 C.3   220  LYS220      0.0298
     75  CG        12.6300   12.9790  -15.9630 C.3   220  LYS220      0.0038
     76  CD        12.8650   12.7930  -17.4420 C.3   220  LYS220      0.0206
     77  CE        14.3510   12.7840  -17.7470 C.3   220  LYS220      0.1093
     78  NZ        14.5920   12.8710  -19.2110 N.3   220  LYS220     -0.1314
     79  N         13.7850    5.9820   -5.8600 N.3   236  PHE236     -0.1241
     80  CA        14.9080    6.0800   -6.7750 C.3   236  PHE236      0.1605
     81  C         15.7190    4.8140   -6.5740 C.2   236  PHE236      0.2264
     82  O         16.1370    4.5030   -5.4520 O.2   236  PHE236     -0.2867
     83  CB        15.7920    7.2730   -6.4190 C.3   236  PHE236      0.0534
     84  CG        15.1820    8.5960   -6.7420 C.ar  236  PHE236     -0.0203
     85  CD1       15.4060    9.1880   -7.9720 C.ar  236  PHE236     -0.0042
     86  CD2       14.3850    9.2560   -5.8150 C.ar  236  PHE236     -0.0042
     87  CE1       14.8370   10.4230   -8.2770 C.ar  236  PHE236     -0.0003
     88  CE2       13.8090   10.4920   -6.1140 C.ar  236  PHE236     -0.0003
     89  CZ        14.0400   11.0770   -7.3450 C.ar  236  PHE236     -0.0000
     90  N         19.2010    3.1090   -7.5940 N.3   238  VAL238     -0.1245
     91  CA        20.4340    3.6470   -8.1440 C.3   238  VAL238      0.1561
     92  C         21.6620    2.7840   -7.9030 C.2   238  VAL238      0.2260
     93  O         22.7900    3.2580   -8.0290 O.2   238  VAL238     -0.2867
     94  CB        20.7090    5.0460   -7.5710 C.3   238  VAL238      0.0252
     95  CG1       19.4990    5.9580   -7.7950 C.3   238  VAL238      0.0019
     96  CG2       21.0500    4.9380   -6.1020 C.3   238  VAL238      0.0019
     97  N         19.6480    3.2300  -13.3950 N.3   242  LYS242     -0.1245
     98  CA        18.8830    4.2480  -12.6890 C.3   242  LYS242      0.1561
     99  C         17.4130    4.0900  -13.0410 C.2   242  LYS242      0.2260
    100  O         17.0210    4.3030  -14.1910 O.2   242  LYS242     -0.2867
    101  CB        19.3610    5.6530  -13.0510 C.3   242  LYS242      0.0271
    102  CG        20.8170    5.9430  -12.7160 C.3   242  LYS242      0.0035
    103  CD        21.1870    5.4510  -11.3500 C.3   242  LYS242      0.0206
    104  CE        22.3890    6.2090  -10.7940 C.3   242  LYS242      0.1093
    105  NZ        23.6000    6.0620  -11.6440 N.3   242  LYS242     -0.1314
    106  N         14.8210    5.8840  -15.6080 N.3   258  LEU258     -0.1231
    107  CA        14.7770    7.2300  -15.0390 C.3   258  LEU258      0.1693
    108  C         14.6830    8.3000  -16.1290 C.2   258  LEU258      0.2591
    109  O         13.8940    9.2370  -16.0220 O.2   258  LEU258     -0.2718
    110  CB        15.9990    7.4900  -14.1570 C.3   258  LEU258      0.0284
    111  CG        16.0680    8.8830  -13.5180 C.3   258  LEU258      0.0019
    112  CD1       15.1100    8.9730  -12.3530 C.3   258  LEU258      0.0001
    113  CD2       17.4690    9.1700  -13.0570 C.3   258  LEU258      0.0001
    114  N         15.4840    8.1410  -17.1800 N.am  259  GLN259     -0.1979
    115  CA        15.6190    9.1500  -18.2260 C.3   259  GLN259      0.1601
    116  C         14.5410    9.0910  -19.3050 C.2   259  GLN259      0.2287
    117  O         13.8950   10.0970  -19.5940 O.2   259  GLN259     -0.2864
    118  CB        16.9960    9.0470  -18.8690 C.3   259  GLN259      0.0394
    119  CG        18.1330    9.0990  -17.8600 C.3   259  GLN259      0.0908
    120  CD        18.1950   10.4290  -17.1340 C.2   259  GLN259      0.2608
    121  OE1       17.4430   11.3600  -17.4530 O.2   259  GLN259     -0.2717
    122  NE2       19.0930   10.5310  -16.1510 N.am  259  GLN259     -0.0878
    123  N         11.7160    7.4960  -19.2230 N.3   261  LYS261     -0.1245
    124  CA        10.3710    7.3970  -18.6520 C.3   261  LYS261      0.1561
    125  C          9.5980    6.2160  -19.2370 C.2   261  LYS261      0.2260
    126  O          8.3630    6.1630  -19.1560 O.2   261  LYS261     -0.2867
    127  CB         9.5890    8.7060  -18.8400 C.3   261  LYS261      0.0271
    128  CG        10.4050    9.9230  -18.4850 C.3   261  LYS261      0.0035
    129  CD         9.7780   11.2070  -19.0070 C.3   261  LYS261      0.0206
    130  CE         9.9020   11.3580  -20.5220 C.3   261  LYS261      0.1093
    131  NZ         9.4970   12.7440  -20.9230 N.3   261  LYS261     -0.1314
@<TRIPOS>BOND
     1   131   130    1
     2   130   129    1
     3   117   116    2
     4   116   115    1
     5   125   126    2
     6   125   124    1
     7   123   124    1
     8    78    77    1
     9   129   128    1
    10   118   115    1
    11   118   119    1
    12   127   124    1
    13   127   128    1
    14   115   114    1
    15   119   120    1
    16    77    76    1
    17   121   120    2
    18    65    64    2
    19    76    75    1
    20   114   108   am
    21   120   122   am
    22    64    63    1
    23    64    70   am
    24   108   109    2
    25   108   107    1
    26    71    70    1
    27    71    74    1
    28    71    72    1
    29    75    74    1
    30    63    66    1
    31    63    62    1
    32   106   107    1
    33    72    73    2
    34    66    67    1
    35   107   110    1
    36    69    67    1
    37    67    68    1
    38   100    99    2
    39   110   111    1
    40   111   113    1
    41   111   112    1
    42    97    98    1
    43   101   102    1
    44   101    98    1
    45    99    98    1
    46   102   103    1
    47    61    59    1
    48    57    56    2
    49    53    52    1
    50    58    59    1
    51    58    55    1
    52   105   104    1
    53    54    55    1
    54   103   104    1
    55    59    60    1
    56    56    55    1
    57    50    52   ar
    58    50    48   ar
    59    52    51   ar
    60    48    47   ar
    61    51    49   ar
    62    47    49   ar
    63    47    46    1
    64    87    85   ar
    65    87    89   ar
    66    46    43    1
    67    91    92    1
    68    91    90    1
    69    91    94    1
    70    93    92    2
    71    85    84   ar
    72    95    94    1
    73    94    96    1
    74    89    88   ar
    75    32    30   am
    76    39    40    1
    77    39    38    1
    78    43    42    1
    79    43    44    1
    80    40    41    1
    81    80    81    1
    82    80    83    1
    83    80    79    1
    84    84    83    1
    85    84    86   ar
    86    37    38    1
    87    37    34    1
    88    36    35    2
    89    81    82    2
    90    42    35   am
    91    35    34    1
    92    88    86   ar
    93    30    31    2
    94    30    29    1
    95    44    45    2
    96    16    17    1
    97    16    13    1
    98    34    33    1
    99    29    26    1
   100    24    23    1
   101    24    18    1
   102    13    12    1
   103    13    14    1
   104    23    22    1
   105    18    14   am
   106    18    19    1
   107    25    26    1
   108    25    20   am
   109    26    27    1
   110    14    15    2
   111    22    19    1
   112    27    28    2
   113    19    20    1
   114    20    21    2
   115    10     9    1
   116     7     8    1
   117     7     6    1
   118     9     8    2
   119     9    11    1
   120     5     6    1
   121     5     2    1
   122     1     2    1
   123     2     3    1
   124     3     4    2
