@<TRIPOS>MOLECULE
tmp/2xl3B00.pdb
 122 116 0 0 0
SMALL
GASTEIGER

@<TRIPOS>ATOM
      1  N          3.1980   30.2210   41.6700 N.3   151  ARG151     -0.1245
      2  CA         1.8380   29.7100   41.4830 C.3   151  ARG151      0.1563
      3  C          1.1200   30.1980   40.2130 C.2   151  ARG151      0.2260
      4  O          0.3210   29.4670   39.6390 O.2   151  ARG151     -0.2867
      5  CB         0.9900   30.0360   42.7220 C.3   151  ARG151      0.0307
      6  CG        -0.3790   29.3540   42.7740 C.3   151  ARG151      0.0489
      7  CD        -1.3240   30.0450   43.7720 C.3   151  ARG151      0.2205
      8  NE        -1.7660   31.3680   43.3110 N.pl3 151  ARG151     -0.0865
      9  CZ        -1.2180   32.5310   43.6790 C.cat 151  ARG151      0.5346
     10  NH1       -0.1970   32.5560   44.5380 N.pl3 151  ARG151      0.1354
     11  NH2       -1.6950   33.6790   43.1920 N.pl3 151  ARG151      0.1354
     12  N          7.3180   28.1940   47.5000 N.3   193  SER193     -0.1203
     13  CA         6.3010   27.3960   48.1600 C.3   193  SER193      0.2005
     14  C          5.1370   27.2590   47.1780 C.2   193  SER193      0.2461
     15  O          4.9880   28.0840   46.2790 O.2   193  SER193     -0.2732
     16  CB         5.8630   28.0500   49.4780 C.3   193  SER193      0.2103
     17  OG         5.3020   29.3270   49.2380 O.3   193  SER193     -0.2182
     18  N          4.3220   26.2080   47.3350 N.am  194  PRO194     -0.2717
     19  CA         3.1660   25.9900   46.4600 C.3   194  PRO194      0.1535
     20  C          2.2860   27.2320   46.3200 C.2   194  PRO194      0.2598
     21  O          1.7050   27.4510   45.2570 O.2   194  PRO194     -0.2715
     22  CB         2.3950   24.8920   47.1760 C.3   194  PRO194      0.0310
     23  CG         3.4490   24.1330   47.9180 C.3   194  PRO194      0.0237
     24  CD         4.4660   25.1490   48.3460 C.3   194  PRO194      0.0939
     25  N          2.1880   28.0360   47.3740 N.am  195  ASN195     -0.1973
     26  CA         1.3090   29.1930   47.3350 C.3   195  ASN195      0.1688
     27  C          2.0420   30.4460   46.9010 C.2   195  ASN195      0.2292
     28  O          1.4390   31.5060   46.7420 O.2   195  ASN195     -0.2864
     29  CB         0.6190   29.4040   48.6820 C.3   195  ASN195      0.1181
     30  CG         1.5890   29.7540   49.7910 C.2   195  ASN195      0.2629
     31  OD1        2.7220   30.1620   49.5440 O.2   195  ASN195     -0.2716
     32  ND2        1.1390   29.6020   51.0270 N.am  195  ASN195     -0.0877
     33  N          3.9880   32.3480   48.4790 N.3   197  LYS197     -0.1231
     34  CA         4.2880   33.3060   49.5320 C.3   197  LYS197      0.1693
     35  C          5.7180   33.1620   50.0880 C.2   197  LYS197      0.2592
     36  O          6.3020   34.1570   50.5220 O.2   197  LYS197     -0.2718
     37  CB         3.2260   33.2680   50.6410 C.3   197  LYS197      0.0285
     38  CG         1.8660   33.7560   50.3280 C.3   197  LYS197      0.0035
     39  CD         1.7600   35.1540   49.7800 C.3   197  LYS197      0.0206
     40  CE         0.3250   35.4160   49.2510 C.3   197  LYS197      0.1093
     41  NZ        -0.2910   34.1370   48.6380 N.3   197  LYS197     -0.1314
     42  N          6.2930   31.9550   50.0520 N.am  198  TYR198     -0.1976
     43  CA         7.6460   31.7590   50.5910 C.3   198  TYR198      0.1639
     44  C          8.6640   31.2460   49.5770 C.2   198  TYR198      0.2290
     45  O          8.3370   30.9940   48.4190 O.2   198  TYR198     -0.2864
     46  CB         7.6240   30.8490   51.8160 C.3   198  TYR198      0.0560
     47  CG         6.6190   31.2710   52.8540 C.ar  198  TYR198     -0.0198
     48  CD1        7.0030   32.0460   53.9440 C.ar  198  TYR198     -0.0009
     49  CD2        5.2830   30.9020   52.7470 C.ar  198  TYR198     -0.0009
     50  CE1        6.0830   32.4360   54.9090 C.ar  198  TYR198      0.0417
     51  CE2        4.3540   31.2920   53.6970 C.ar  198  TYR198      0.0417
     52  CZ         4.7580   32.0610   54.7770 C.ar  198  TYR198      0.1957
     53  OH         3.8320   32.4410   55.7280 O.3   198  TYR198     -0.2866
     54  N         14.1870   28.8430   54.8250 N.3   210  LEU210     -0.1245
     55  CA        12.9130   29.2730   54.2680 C.3   210  LEU210      0.1561
     56  C         12.7870   30.8020   54.3710 C.2   210  LEU210      0.2260
     57  O         12.8730   31.3580   55.4610 O.2   210  LEU210     -0.2867
     58  CB        11.7670   28.6100   55.0170 C.3   210  LEU210      0.0270
     59  CG        10.4020   29.0160   54.4790 C.3   210  LEU210      0.0019
     60  CD1       10.2110   28.4010   53.1150 C.3   210  LEU210      0.0001
     61  CD2        9.2890   28.5980   55.4160 C.3   210  LEU210      0.0001
     62  N         13.2710   33.0610   57.6650 N.3   219  LEU219     -0.1231
     63  CA        12.3910   32.6090   58.7410 C.3   219  LEU219      0.1693
     64  C         12.8620   31.3290   59.4220 C.2   219  LEU219      0.2591
     65  O         13.1820   31.3370   60.6060 O.2   219  LEU219     -0.2718
     66  CB        10.9670   32.4110   58.2220 C.3   219  LEU219      0.0284
     67  CG        10.2690   33.6900   57.7730 C.3   219  LEU219      0.0019
     68  CD1        8.7600   33.5400   57.8900 C.3   219  LEU219      0.0001
     69  CD2       10.7510   34.8480   58.6120 C.3   219  LEU219      0.0001
     70  N         12.8820   30.2270   58.6790 N.am  220  LYS220     -0.1980
     71  CA        13.2790   28.9340   59.2400 C.3   220  LYS220      0.1596
     72  C         14.6610   28.5130   58.7540 C.2   220  LYS220      0.2287
     73  O         15.1270   28.9260   57.6980 O.2   220  LYS220     -0.2864
     74  CB        12.2710   27.8380   58.8670 C.3   220  LYS220      0.0298
     75  CG        10.8170   28.1230   59.2280 C.3   220  LYS220      0.0038
     76  CD        10.5400   27.8820   60.6970 C.3   220  LYS220      0.0206
     77  CE         9.0490   27.9080   60.9830 C.3   220  LYS220      0.1093
     78  NZ         8.7960   27.9770   62.4520 N.3   220  LYS220     -0.1314
     79  N          8.8940   20.9930   49.3800 N.3   236  PHE236     -0.1241
     80  CA         7.8380   21.0740   50.3650 C.3   236  PHE236      0.1605
     81  C          6.9740   19.8390   50.1620 C.2   236  PHE236      0.2264
     82  O          6.4110   19.6380   49.0700 O.2   236  PHE236     -0.2867
     83  CB         6.9680   22.3190   50.1340 C.3   236  PHE236      0.0534
     84  CG         7.7140   23.6110   50.2240 C.ar  236  PHE236     -0.0203
     85  CD1        7.8400   24.2720   51.4320 C.ar  236  PHE236     -0.0042
     86  CD2        8.2940   24.1650   49.1040 C.ar  236  PHE236     -0.0042
     87  CE1        8.5390   25.4660   51.5130 C.ar  236  PHE236     -0.0003
     88  CE2        8.9990   25.3550   49.1800 C.ar  236  PHE236     -0.0003
     89  CZ         9.1200   26.0040   50.3840 C.ar  236  PHE236     -0.0000
     90  N          3.5080   18.2810   51.1740 N.3   238  VAL238     -0.1245
     91  CA         2.2680   18.8330   51.7020 C.3   238  VAL238      0.1561
     92  C          1.0410   17.9650   51.4440 C.2   238  VAL238      0.2260
     93  O         -0.0880   18.3970   51.6610 O.2   238  VAL238     -0.2867
     94  CB         2.0140   20.2480   51.1580 C.3   238  VAL238      0.0252
     95  CG1        3.2310   21.1220   51.4020 C.3   238  VAL238      0.0019
     96  CG2        1.6800   20.1910   49.6780 C.3   238  VAL238      0.0019
     97  N          3.1600   18.3590   56.8270 N.3   242  LYS242     -0.1245
     98  CA         3.9670   19.2990   56.0410 C.3   242  LYS242      0.1561
     99  C          5.4400   19.1920   56.4350 C.2   242  LYS242      0.2260
    100  O          5.8120   19.4950   57.5730 O.2   242  LYS242     -0.2867
    101  CB         3.4760   20.7450   56.2050 C.3   242  LYS242      0.0271
    102  CG         1.9740   20.9030   56.3910 C.3   242  LYS242      0.0035
    103  CD         1.2020   20.7470   55.1000 C.3   242  LYS242      0.0206
    104  CE        -0.2780   21.0670   55.3290 C.3   242  LYS242      0.1093
    105  NZ        -1.0560   21.2150   54.0550 N.3   242  LYS242     -0.1314
    106  N          8.2190   20.9440   58.9990 N.3   258  LEU258     -0.1231
    107  CA         8.1850   22.2960   58.4400 C.3   258  LEU258      0.1693
    108  C          8.2900   23.3870   59.5000 C.2   258  LEU258      0.2591
    109  O          9.0180   24.3620   59.3310 O.2   258  LEU258     -0.2718
    110  CB         6.9130   22.5120   57.6140 C.3   258  LEU258      0.0284
    111  CG         6.7520   23.9220   57.0200 C.3   258  LEU258      0.0019
    112  CD1        7.9590   24.2950   56.1810 C.3   258  LEU258      0.0001
    113  CD2        5.4590   24.0690   56.2070 C.3   258  LEU258      0.0001
    114  N          7.5600   23.2070   60.5960 N.am  259  GLN259     -0.1979
    115  CA         7.4510   24.2190   61.6330 C.3   259  GLN259      0.1601
    116  C          8.6020   24.1810   62.6300 C.2   259  GLN259      0.2287
    117  O          9.3810   25.1200   62.7160 O.2   259  GLN259     -0.2864
    118  CB         6.1180   24.0730   62.3570 C.3   259  GLN259      0.0394
    119  CG         4.9180   24.1410   61.4360 C.3   259  GLN259      0.0908
    120  CD         4.8600   25.4320   60.6490 C.2   259  GLN259      0.2608
    121  OE1        4.2070   26.3890   61.0490 O.2   259  GLN259     -0.2717
    122  NE2        5.5410   25.4620   59.5180 N.am  259  GLN259     -0.0878
@<TRIPOS>BOND
     1     4     3    2
     2     3     2    1
     3     2     1    1
     4     2     5    1
     5     5     6    1
     6     6     7    1
     7    11     9    1
     8     8     9    2
     9     8     7    1
    10     9    10    1
    11    21    20    2
    12    15    14    2
    13    20    19    1
    14    20    25   am
    15    19    22    1
    16    19    18    1
    17    28    27    2
    18    27    26    1
    19    22    23    1
    20    14    18   am
    21    14    13    1
    22    18    24    1
    23    26    25    1
    24    26    29    1
    25    12    13    1
    26    23    24    1
    27    13    16    1
    28    45    44    2
    29    33    34    1
    30    41    40    1
    31    29    30    1
    32    82    81    2
    33    86    88   ar
    34    86    84   ar
    35    88    89   ar
    36    17    16    1
    37    40    39    1
    38    79    80    1
    39    34    35    1
    40    34    37    1
    41    31    30    2
    42    44    43    1
    43    96    94    1
    44    39    38    1
    45    30    32   am
    46    42    35   am
    47    42    43    1
    48    35    36    2
    49    83    84    1
    50    83    80    1
    51    81    80    1
    52    84    85   ar
    53    38    37    1
    54    89    87   ar
    55    43    46    1
    56    94    95    1
    57    94    91    1
    58    90    91    1
    59    85    87   ar
    60    92    93    2
    61    92    91    1
    62    46    47    1
    63    49    47   ar
    64    49    51   ar
    65    47    48   ar
    66    60    59    1
    67    51    52   ar
    68    48    50   ar
    69   105   104    1
    70    55    56    1
    71    55    54    1
    72    55    58    1
    73    56    57    2
    74    59    58    1
    75    59    61    1
    76    52    50   ar
    77    52    53    1
    78   103   104    1
    79   103   102    1
    80    98   101    1
    81    98    99    1
    82    98    97    1
    83   112   111    1
    84   101   102    1
    85   113   111    1
    86    99   100    2
    87   111   110    1
    88   110   107    1
    89    62    63    1
    90    73    72    2
    91    67    68    1
    92    67    66    1
    93    67    69    1
    94    66    63    1
    95   107   106    1
    96   107   108    1
    97    70    71    1
    98    70    64   am
    99    63    64    1
   100    72    71    1
   101    74    75    1
   102    74    71    1
   103    75    76    1
   104   109   108    2
   105    64    65    2
   106   108   114   am
   107   122   120   am
   108   114   115    1
   109   120   121    2
   110   120   119    1
   111    76    77    1
   112    77    78    1
   113   119   118    1
   114   115   118    1
   115   115   116    1
   116   116   117    2
