@<TRIPOS>MOLECULE
tmp/2xlcE00.pdb
 97 94 0 0 0
SMALL
GASTEIGER

@<TRIPOS>ATOM
      1  N        -12.0230   -0.3710   -0.0510 N.3    84  GLY84      -0.1210
      2  CA       -12.4150   -0.8040    1.2830 C.3    84  GLY84       0.1956
      3  C        -13.1640    0.2510    2.0730 C.2    84  GLY84       0.2611
      4  O        -13.1980    1.4230    1.6950 O.2    84  GLY84      -0.2717
      5  N        -13.7610   -0.1770    3.1800 N.am   85  TYR85      -0.1976
      6  CA       -14.5650    0.6920    4.0200 C.3    85  TYR85       0.1639
      7  C        -13.7250    1.8270    4.5820 C.2    85  TYR85       0.2290
      8  O        -12.7820    1.5980    5.3390 O.2    85  TYR85      -0.2864
      9  CB       -15.1790   -0.1250    5.1560 C.3    85  TYR85       0.0560
     10  CG       -16.1810    0.6110    6.0210 C.ar   85  TYR85      -0.0198
     11  CD1      -17.5070    0.7320    5.6310 C.ar   85  TYR85      -0.0009
     12  CD2      -15.8090    1.1550    7.2430 C.ar   85  TYR85      -0.0009
     13  CE1      -18.4300    1.3880    6.4250 C.ar   85  TYR85       0.0417
     14  CE2      -16.7230    1.8100    8.0410 C.ar   85  TYR85       0.0417
     15  CZ       -18.0320    1.9230    7.6270 C.ar   85  TYR85       0.1957
     16  OH       -18.9500    2.5700    8.4220 O.3    85  TYR85      -0.2866
     17  N        -11.5460    3.4150    3.3320 N.3    87  ALA87      -0.1245
     18  CA       -10.1430    3.2100    2.9730 C.3    87  ALA87       0.1562
     19  C         -9.8190    3.6650    1.5550 C.2    87  ALA87       0.2260
     20  O         -8.9600    3.0850    0.8930 O.2    87  ALA87      -0.2867
     21  CB        -9.7500    1.7490    3.1640 C.3    87  ALA87       0.0290
     22  N        -11.3040   -5.8140   -2.0590 N.3   172  GLY172     -0.1210
     23  CA       -10.9860   -6.3890   -0.7580 C.3   172  GLY172      0.1956
     24  C        -11.9140   -5.8570    0.3180 C.2   172  GLY172      0.2613
     25  O        -12.3990   -4.7280    0.2280 O.2   172  GLY172     -0.2717
     26  N        -12.1610   -6.6720    1.3400 N.am  173  SER173     -0.1938
     27  CA       -13.0620   -6.2990    2.4280 C.3   173  SER173      0.2055
     28  C        -14.3970   -5.7960    1.8790 C.2   173  SER173      0.2642
     29  O        -15.1480   -6.5560    1.2690 O.2   173  SER173     -0.2714
     30  CB       -12.4170   -5.2420    3.3260 C.3   173  SER173      0.2130
     31  OG       -13.2400   -4.9550    4.4500 O.3   173  SER173     -0.2179
     32  N        -14.6910   -4.5170    2.0890 N.am  174  GLN174     -0.1976
     33  CA       -15.9010   -3.9320    1.5260 C.3   174  GLN174      0.1601
     34  C        -15.9240   -4.1260    0.0120 C.2   174  GLN174      0.2287
     35  O        -16.9720   -4.4200   -0.5730 O.2   174  GLN174     -0.2864
     36  CB       -16.0040   -2.4460    1.8630 C.3   174  GLN174      0.0394
     37  CG       -17.2470   -1.7840    1.2830 C.3   174  GLN174      0.0908
     38  CD       -17.2670   -0.2790    1.4940 C.2   174  GLN174      0.2608
     39  OE1      -18.1980    0.2580    2.0920 O.2   174  GLN174     -0.2717
     40  NE2      -16.2360    0.4080    1.0080 N.am  174  GLN174     -0.0878
     41  N        -10.8790  -11.3070    1.7730 N.3   196  TYR196     -0.1241
     42  CA       -11.5750  -11.1930    3.0430 C.3   196  TYR196      0.1605
     43  C        -12.7970  -10.2930    2.8890 C.2   196  TYR196      0.2264
     44  O        -12.7580   -9.1140    3.2250 O.2   196  TYR196     -0.2867
     45  CB       -10.6310  -10.6220    4.0980 C.3   196  TYR196      0.0534
     46  CG        -9.5680   -9.7110    3.5320 C.ar  196  TYR196     -0.0201
     47  CD1       -9.7930   -8.3540    3.3990 C.ar  196  TYR196     -0.0009
     48  CD2       -8.3420  -10.2090    3.1330 C.ar  196  TYR196     -0.0009
     49  CE1       -8.8350   -7.5210    2.8820 C.ar  196  TYR196      0.0417
     50  CE2       -7.3720   -9.3790    2.6170 C.ar  196  TYR196      0.0417
     51  CZ        -7.6240   -8.0360    2.4940 C.ar  196  TYR196      0.1957
     52  OH        -6.6630   -7.2030    1.9800 O.3   196  TYR196     -0.2866
     53  N        -16.4130   -8.4180    3.2630 N.3   198  TYR198     -0.1241
     54  CA       -17.1470   -7.7680    4.3340 C.3   198  TYR198      0.1605
     55  C        -18.6320   -8.0600    4.2230 C.2   198  TYR198      0.2264
     56  O        -19.0460   -8.8640    3.4080 O.2   198  TYR198     -0.2867
     57  CB       -16.9300   -6.2680    4.2190 C.3   198  TYR198      0.0534
     58  CG       -17.3000   -5.4760    5.4350 C.ar  198  TYR198     -0.0201
     59  CD1      -17.6840   -4.1540    5.3270 C.ar  198  TYR198     -0.0009
     60  CD2      -17.2480   -6.0380    6.6880 C.ar  198  TYR198     -0.0009
     61  CE1      -18.0150   -3.4300    6.4280 C.ar  198  TYR198      0.0417
     62  CE2      -17.5760   -5.3180    7.7950 C.ar  198  TYR198      0.0417
     63  CZ       -17.9620   -4.0210    7.6620 C.ar  198  TYR198      0.1957
     64  OH       -18.2870   -3.3090    8.7750 O.3   198  TYR198     -0.2866
     65  N        -15.4140   -2.3910   11.4900 N.3   213  PRO213     -0.2116
     66  CA       -16.6090   -1.7100   11.9930 C.3   213  PRO213      0.1372
     67  C        -17.8730   -2.5490   12.0940 C.2   213  PRO213      0.2244
     68  O        -18.9580   -1.9770   12.0890 O.2   213  PRO213     -0.2868
     69  CB       -16.8230   -0.6040   10.9600 C.3   213  PRO213      0.0268
     70  CG       -16.2830   -1.1730    9.7040 C.3   213  PRO213      0.0207
     71  CD       -15.1000   -2.0030   10.1050 C.3   213  PRO213      0.0892
     72  N        -10.9030   -8.0020   11.8720 N.3   262  VAL262     -0.1245
     73  CA       -11.8520   -7.0590   11.3030 C.3   262  VAL262      0.1561
     74  C        -12.9580   -7.8400   10.6130 C.2   262  VAL262      0.2260
     75  O        -14.1470   -7.6150   10.8350 O.2   262  VAL262     -0.2867
     76  CB       -11.1750   -6.1510   10.2580 C.3   262  VAL262      0.0252
     77  CG1      -12.2110   -5.2720    9.5730 C.3   262  VAL262      0.0019
     78  CG2      -10.0810   -5.3130   10.9050 C.3   262  VAL262      0.0019
     79  N         -6.3540   -8.7840    8.4130 N.3   289  HIS289     -0.1226
     80  CA        -7.0250   -7.9190    7.4610 C.3   289  HIS289      0.1752
     81  C         -5.9780   -6.9930    6.9190 C.2   289  HIS289      0.2595
     82  O         -5.8130   -5.8880    7.3940 O.2   289  HIS289     -0.2718
     83  CB        -8.0950   -7.1100    8.1670 C.3   289  HIS289      0.0759
     84  CG        -9.2430   -6.7380    7.2910 C.ar  289  HIS289      0.0818
     85  ND1      -10.1890   -7.6450    6.8820 N.ar  289  HIS289     -0.2268
     86  CD2       -9.6050   -5.5530    6.7590 C.ar  289  HIS289      0.1154
     87  CE1      -11.0810   -7.0390    6.1280 C.ar  289  HIS289      0.1986
     88  NE2      -10.7470   -5.7690    6.0340 N.ar  289  HIS289     -0.2212
     89  N         -5.2460   -7.4750    5.9330 N.am  290  GLU290     -0.1979
     90  CA        -4.1520   -6.7370    5.3590 C.3   290  GLU290      0.1602
     91  C         -3.7940   -7.2570    3.9930 C.2   290  GLU290      0.2287
     92  O         -4.2120   -8.3270    3.5980 O.2   290  GLU290     -0.2864
     93  CB        -2.9350   -6.8450    6.2650 C.3   290  GLU290      0.0415
     94  CG        -2.3800   -8.2410    6.3900 C.3   290  GLU290      0.1163
     95  CD        -1.5310   -8.4170    7.6100 C.2   290  GLU290      0.3649
     96  OE1       -1.7440   -9.3830    8.3480 O.co2 290  GLU290     -0.2457
     97  OE2       -0.6290   -7.6030    7.8230 O.co2 290  GLU290     -0.2457
@<TRIPOS>BOND
     1    22    23    1
     2    23    24    1
     3    35    34    2
     4     1     2    1
     5    34    33    1
     6    25    24    2
     7    24    26   am
     8    20    19    2
     9    40    38   am
    10    29    28    2
    11     2     3    1
    12    37    38    1
    13    37    36    1
    14    26    27    1
    15    38    39    2
    16    33    36    1
    17    33    32    1
    18    19    18    1
    19     4     3    2
    20    41    42    1
    21    28    32   am
    22    28    27    1
    23    52    51    1
    24     3     5   am
    25    27    30    1
    26    51    50   ar
    27    51    49   ar
    28    50    48   ar
    29    49    47   ar
    30    43    42    1
    31    43    44    2
    32    18    21    1
    33    18    17    1
    34    42    45    1
    35    48    46   ar
    36     5     6    1
    37    53    54    1
    38    30    31    1
    39    47    46   ar
    40    56    55    2
    41    46    45    1
    42    92    91    2
    43    91    90    1
    44     6     7    1
    45     6     9    1
    46    57    54    1
    47    57    58    1
    48    55    54    1
    49     7     8    2
    50     9    10    1
    51    59    58   ar
    52    59    61   ar
    53    90    89    1
    54    90    93    1
    55    58    60   ar
    56    11    10   ar
    57    11    13   ar
    58    89    81   am
    59    10    12   ar
    60    88    87   ar
    61    88    86   ar
    62    87    85   ar
    63    93    94    1
    64    94    95    1
    65    13    15   ar
    66    61    63   ar
    67    60    62   ar
    68    86    84   ar
    69    85    84   ar
    70    81    82    2
    71    81    80    1
    72    12    14   ar
    73    84    83    1
    74    80    83    1
    75    80    79    1
    76    95    97   ar
    77    95    96   ar
    78    15    14   ar
    79    15    16    1
    80    63    62   ar
    81    63    64    1
    82    77    76    1
    83    70    71    1
    84    70    69    1
    85    71    65    1
    86    76    78    1
    87    76    73    1
    88    74    75    2
    89    74    73    1
    90    69    66    1
    91    73    72    1
    92    65    66    1
    93    66    67    1
    94    68    67    2
