@<TRIPOS>MOLECULE
tmp/2xleA00.pdb
 232 222 0 0 0
SMALL
GASTEIGER

@<TRIPOS>ATOM
      1  N          4.1370   26.7570   25.3130 N.3     8  VAL8       -0.1245
      2  CA         5.2490   27.4570   24.6640 C.3     8  VAL8        0.1561
      3  C          5.0200   27.5010   23.1470 C.2     8  VAL8        0.2260
      4  O          5.1320   28.5620   22.5170 O.2     8  VAL8       -0.2867
      5  CB         6.6130   26.7970   24.9990 C.3     8  VAL8        0.0252
      6  CG1        7.7450   27.4560   24.2320 C.3     8  VAL8        0.0019
      7  CG2        6.8930   26.8840   26.5180 C.3     8  VAL8        0.0019
      8  N          2.1200   29.9740   22.3360 N.3    11  ARG11      -0.1231
      9  CA         2.3800   31.3890   22.4300 C.3    11  ARG11       0.1694
     10  C          3.3780   31.8620   21.3570 C.2    11  ARG11       0.2591
     11  O          3.2270   32.9870   20.8570 O.2    11  ARG11      -0.2718
     12  CB         2.7900   31.8000   23.8550 C.3    11  ARG11       0.0321
     13  CG         4.1720   31.3900   24.3200 C.3    11  ARG11       0.0489
     14  CD         4.1610   31.2400   25.8390 C.3    11  ARG11       0.2205
     15  NE         5.4860   30.9380   26.3590 N.pl3  11  ARG11      -0.0865
     16  CZ         5.6730   30.3690   27.5700 C.cat  11  ARG11       0.5346
     17  NH1        4.6250   29.9350   28.2870 N.pl3  11  ARG11       0.1354
     18  NH2        6.9000   30.1590   27.9910 N.pl3  11  ARG11       0.1354
     19  N          4.3770   31.0500   21.0790 N.am   12  GLN12      -0.1979
     20  CA         5.3090   31.3840   19.9940 C.3    12  GLN12       0.1601
     21  C          4.6060   31.5200   18.6390 C.2    12  GLN12       0.2287
     22  O          4.9010   32.4560   17.8690 O.2    12  GLN12      -0.2864
     23  CB         6.4430   30.3660   19.9400 C.3    12  GLN12       0.0394
     24  CG         7.3540   30.4790   21.1700 C.3    12  GLN12       0.0908
     25  CD         8.5000   29.5030   21.1830 C.2    12  GLN12       0.2608
     26  OE1        8.5030   28.5420   20.4330 O.2    12  GLN12      -0.2717
     27  NE2        9.4920   29.7400   22.0510 N.am   12  GLN12      -0.0878
     28  N          2.4580   34.7980   18.7420 N.3    15  LEU15      -0.1231
     29  CA         3.2840   35.9620   18.6320 C.3    15  LEU15       0.1693
     30  C          3.8440   36.1230   17.2070 C.2    15  LEU15       0.2592
     31  O          3.9570   37.2540   16.7200 O.2    15  LEU15      -0.2718
     32  CB         4.3720   35.8970   19.7230 C.3    15  LEU15       0.0284
     33  CG         3.8250   36.1060   21.1410 C.3    15  LEU15       0.0019
     34  CD1        4.7900   35.5250   22.2210 C.3    15  LEU15       0.0001
     35  CD2        3.5620   37.5450   21.4010 C.3    15  LEU15       0.0001
     36  N          4.2300   35.0130   16.5900 N.am   16  THR16      -0.1953
     37  CA         4.6280   35.0360   15.1720 C.3    16  THR16       0.1897
     38  C          3.4960   35.6250   14.3070 C.2    16  THR16       0.2313
     39  O          3.7720   36.4960   13.4260 O.2    16  THR16      -0.2863
     40  CB         5.0140   33.6290   14.7060 C.3    16  THR16       0.1794
     41  OG1        6.1970   33.1920   15.3720 O.3    16  THR16      -0.2208
     42  CG2        5.2670   33.5670   13.1960 C.3    16  THR16       0.0378
     43  N          0.6430   37.2330   15.2100 N.3    18  MET18      -0.1230
     44  CA         0.3910   38.6050   15.6050 C.3    18  MET18       0.1702
     45  C          1.4400   39.5660   15.0180 C.2    18  MET18       0.2592
     46  O          1.0580   40.6140   14.4470 O.2    18  MET18      -0.2718
     47  CB         0.4360   38.6840   17.1330 C.3    18  MET18       0.0401
     48  CG         0.2150   40.0680   17.8170 C.3    18  MET18       0.0596
     49  SD         0.3800   39.9820   19.6450 S.3    18  MET18      -0.1393
     50  CE         2.0410   40.5920   19.9480 C.3    18  MET18       0.0692
     51  N          2.7160   39.1740   15.0290 N.am   19  ALA19      -0.1980
     52  CA         3.8360   40.0320   14.5630 C.3    19  ALA19       0.1597
     53  C          3.8650   40.2750   12.9930 C.2    19  ALA19       0.2287
     54  O          4.3970   41.2960   12.4940 O.2    19  ALA19      -0.2864
     55  CB         5.1390   39.4420   14.9520 C.3    19  ALA19       0.0319
     56  N          1.1220   42.9060   12.3600 N.3    22  PHE22      -0.1241
     57  CA         1.6050   44.2180   12.6740 C.3    22  PHE22       0.1605
     58  C          2.6130   44.7040   11.5980 C.2    22  PHE22       0.2264
     59  O          2.4120   45.7400   10.9520 O.2    22  PHE22      -0.2867
     60  CB         2.1870   44.2290   14.1000 C.3    22  PHE22       0.0534
     61  CG         2.7360   45.5590   14.5100 C.ar   22  PHE22      -0.0203
     62  CD1        1.8840   46.5950   14.8230 C.ar   22  PHE22      -0.0042
     63  CD2        4.0500   45.7870   14.5720 C.ar   22  PHE22      -0.0042
     64  CE1        2.3590   47.8510   15.1880 C.ar   22  PHE22      -0.0003
     65  CE2        4.5350   47.0820   14.9820 C.ar   22  PHE22      -0.0003
     66  CZ         3.6580   48.0750   15.2480 C.ar   22  PHE22      -0.0000
     67  N         -5.5290   41.6140   13.6040 N.3    47  LEU47      -0.1245
     68  CA        -4.5200   41.8930   14.6510 C.3    47  LEU47       0.1561
     69  C         -5.1710   42.0390   16.0340 C.2    47  LEU47       0.2260
     70  O         -4.6140   41.5490   17.0510 O.2    47  LEU47      -0.2867
     71  CB        -3.7260   43.1620   14.2970 C.3    47  LEU47       0.0270
     72  CG        -2.6280   43.5790   15.2910 C.3    47  LEU47       0.0019
     73  CD1       -1.5920   42.4920   15.5230 C.3    47  LEU47       0.0001
     74  CD2       -2.0120   44.8810   14.8190 C.3    47  LEU47       0.0001
     75  N         -1.3840   35.8030   25.9150 N.3    55  TRP55      -0.1241
     76  CA        -1.1360   35.9850   27.3780 C.3    55  TRP55       0.1605
     77  C         -1.6320   34.7950   28.2070 C.2    55  TRP55       0.2264
     78  O         -1.0470   34.4450   29.2160 O.2    55  TRP55      -0.2867
     79  CB        -1.6960   37.3640   27.8530 C.3    55  TRP55       0.0550
     80  CG        -1.4910   38.3700   26.7950 C.ar   55  TRP55       0.0003
     81  CD1       -2.4580   38.9760   26.0450 C.ar   55  TRP55       0.0946
     82  CD2       -0.2340   38.7250   26.2030 C.ar   55  TRP55       0.0152
     83  NE1       -1.8790   39.7290   25.0520 N.ar   55  TRP55      -0.2442
     84  CE2       -0.5180   39.5550   25.0920 C.ar   55  TRP55       0.0810
     85  CE3        1.1080   38.3870   26.4750 C.ar   55  TRP55       0.0012
     86  CZ2        0.4850   40.0710   24.2850 C.ar   55  TRP55       0.0191
     87  CZ3        2.1070   38.8910   25.6680 C.ar   55  TRP55       0.0001
     88  CH2        1.7890   39.7160   24.5540 C.ar   55  TRP55       0.0015
     89  N          0.7650   31.8990   29.0220 N.3    58  PHE58      -0.1241
     90  CA         1.8190   32.0490   30.0460 C.3    58  PHE58       0.1605
     91  C          1.2250   31.7160   31.4410 C.2    58  PHE58       0.2264
     92  O          1.4930   32.4000   32.4240 O.2    58  PHE58      -0.2867
     93  CB         2.4150   33.4540   30.0500 C.3    58  PHE58       0.0534
     94  CG         3.1540   33.8690   28.7780 C.ar   58  PHE58      -0.0203
     95  CD1        4.5110   33.7640   28.6820 C.ar   58  PHE58      -0.0042
     96  CD2        2.4790   34.4430   27.7210 C.ar   58  PHE58      -0.0042
     97  CE1        5.1980   34.2350   27.5860 C.ar   58  PHE58      -0.0003
     98  CE2        3.1540   34.9090   26.5910 C.ar   58  PHE58      -0.0003
     99  CZ         4.5050   34.7760   26.5100 C.ar   58  PHE58      -0.0000
    100  N          9.4220   28.1880   30.0120 N.3    64  GLY64      -0.1210
    101  CA        10.0920   27.5960   28.8570 C.3    64  GLY64       0.1956
    102  C         10.2270   28.6280   27.7390 C.2    64  GLY64       0.2612
    103  O          9.8700   29.7940   27.8790 O.2    64  GLY64      -0.2717
    104  N         10.7290   28.1690   26.6010 N.am   65  GLY65      -0.1942
    105  CA        10.9660   29.0440   25.4850 C.3    65  GLY65       0.2014
    106  C         11.8650   30.1900   25.9100 C.2    65  GLY65       0.2639
    107  O         12.7540   30.0420   26.7670 O.2    65  GLY65      -0.2714
    108  N         11.6290   31.3330   25.2800 N.am   66  ASP66      -0.1957
    109  CA        12.3620   32.5570   25.5910 C.3    66  ASP66       0.1840
    110  C         11.6410   33.4840   26.5580 C.2    66  ASP66       0.2621
    111  O         11.9240   34.6660   26.5960 O.2    66  ASP66      -0.2715
    112  CB        12.7660   33.2410   24.2860 C.3    66  ASP66       0.1450
    113  CG        13.9620   32.5210   23.6110 C.2    66  ASP66       0.3671
    114  OD1       14.7710   31.8740   24.3260 O.co2  66  ASP66      -0.2456
    115  OD2       14.1500   32.6300   22.3920 O.co2  66  ASP66      -0.2456
    116  N         10.7380   32.9360   27.3510 N.am   67  ALA67      -0.1977
    117  CA        10.0200   33.6860   28.3840 C.3    67  ALA67       0.1597
    118  C         10.8880   33.8190   29.6460 C.2    67  ALA67       0.2287
    119  O         11.3050   32.8010   30.2160 O.2    67  ALA67      -0.2864
    120  CB         8.8020   32.9480   28.7370 C.3    67  ALA67       0.0319
    121  N          8.2750   36.9820   34.3070 N.3    71  ILE71      -0.1245
    122  CA         6.8770   37.0420   33.8850 C.3    71  ILE71       0.1561
    123  C          5.9770   36.5250   35.0010 C.2    71  ILE71       0.2260
    124  O          4.8920   37.0500   35.2230 O.2    71  ILE71      -0.2867
    125  CB         6.6880   36.2190   32.5810 C.3    71  ILE71       0.0252
    126  CG1        7.3980   36.9010   31.4160 C.3    71  ILE71       0.0019
    127  CG2        5.2350   35.9910   32.2920 C.3    71  ILE71       0.0019
    128  CD1        7.3820   36.0880   30.0970 C.3    71  ILE71       0.0001
    129  N          3.7620   42.2590   34.7340 N.3    78  PHE78      -0.1241
    130  CA         3.7330   41.6420   33.4060 C.3    78  PHE78       0.1605
    131  C          2.4250   42.0030   32.8170 C.2    78  PHE78       0.2264
    132  O          2.2890   42.3010   31.6260 O.2    78  PHE78      -0.2867
    133  CB         3.7950   40.1220   33.4650 C.3    78  PHE78       0.0534
    134  CG         3.6890   39.4650   32.0850 C.ar   78  PHE78      -0.0203
    135  CD1        4.7070   39.6080   31.1530 C.ar   78  PHE78      -0.0042
    136  CD2        2.5740   38.7170   31.7280 C.ar   78  PHE78      -0.0042
    137  CE1        4.6060   39.0180   29.8690 C.ar   78  PHE78      -0.0003
    138  CE2        2.4930   38.1340   30.4680 C.ar   78  PHE78      -0.0003
    139  CZ         3.5180   38.2760   29.5730 C.ar   78  PHE78      -0.0000
    140  N          2.4840   45.5590   31.4120 N.3    81  LYS81      -0.1231
    141  CA         3.0660   45.5980   30.0390 C.3    81  LYS81       0.1693
    142  C          2.0720   45.0700   29.0170 C.2    81  LYS81       0.2591
    143  O          1.9610   45.6410   27.9040 O.2    81  LYS81      -0.2718
    144  CB         4.3760   44.8510   29.9670 C.3    81  LYS81       0.0285
    145  CG         5.4740   45.5130   30.7820 C.3    81  LYS81       0.0035
    146  CD         6.3810   46.3890   30.0050 C.3    81  LYS81       0.0206
    147  CE         7.6800   46.7080   30.7400 C.3    81  LYS81       0.1093
    148  NZ         7.6260   47.5290   31.9500 N.3    81  LYS81      -0.1314
    149  N          1.3580   43.9840   29.3120 N.am   82  GLN82      -0.1979
    150  CA         0.3740   43.3990   28.4100 C.3    82  GLN82       0.1601
    151  C         -0.8260   44.2980   28.2260 C.2    82  GLN82       0.2287
    152  O         -1.2870   44.4790   27.1030 O.2    82  GLN82      -0.2864
    153  CB        -0.0530   42.0920   29.0730 C.3    82  GLN82       0.0394
    154  CG        -1.1670   41.4770   28.3810 C.3    82  GLN82       0.0908
    155  CD        -1.8110   40.4650   29.2480 C.2    82  GLN82       0.2608
    156  OE1       -1.1060   39.7100   29.9620 O.2    82  GLN82      -0.2717
    157  NE2       -3.1220   40.3150   29.1250 N.am   82  GLN82      -0.0878
    158  N         -0.0150   47.3920   26.0670 N.3    85  PHE85      -0.1241
    159  CA         0.0020   46.9430   24.6840 C.3    85  PHE85       0.1605
    160  C         -1.4280   46.7940   24.1680 C.2    85  PHE85       0.2264
    161  O         -1.7460   47.3400   23.0980 O.2    85  PHE85      -0.2867
    162  CB         0.7610   45.6190   24.6050 C.3    85  PHE85       0.0534
    163  CG         0.5660   44.8970   23.2760 C.ar   85  PHE85      -0.0203
    164  CD1        1.0650   45.3960   22.0750 C.ar   85  PHE85      -0.0042
    165  CD2       -0.1730   43.7350   23.2550 C.ar   85  PHE85      -0.0042
    166  CE1        0.8080   44.7080   20.8520 C.ar   85  PHE85      -0.0003
    167  CE2       -0.4100   43.0610   22.0640 C.ar   85  PHE85      -0.0003
    168  CZ         0.0690   43.5520   20.8960 C.ar   85  PHE85      -0.0000
    169  N         -3.4390   48.7450   21.1590 N.3    89  ILE89      -0.1245
    170  CA        -4.1430   48.0340   20.0400 C.3    89  ILE89       0.1561
    171  C         -5.5460   48.6260   19.9080 C.2    89  ILE89       0.2260
    172  O         -5.9880   48.8140   18.7610 O.2    89  ILE89      -0.2867
    173  CB        -4.2080   46.4820   20.2800 C.3    89  ILE89       0.0252
    174  CG1       -2.8270   45.8310   20.1020 C.3    89  ILE89       0.0019
    175  CG2       -5.2810   45.7980   19.4080 C.3    89  ILE89       0.0019
    176  CD1       -2.3050   45.7750   18.6450 C.3    89  ILE89       0.0001
    177  N          2.0050   51.3010   19.4040 N.3   111  VAL111     -0.1245
    178  CA         1.9860   49.8630   19.5480 C.3   111  VAL111      0.1561
    179  C          3.3980   49.3330   19.5050 C.2   111  VAL111      0.2260
    180  O          3.7870   48.5060   20.3580 O.2   111  VAL111     -0.2867
    181  CB         1.0560   49.1870   18.4630 C.3   111  VAL111      0.0252
    182  CG1        1.2690   47.7020   18.4510 C.3   111  VAL111      0.0019
    183  CG2       -0.3710   49.5790   18.7040 C.3   111  VAL111      0.0019
    184  N          5.2340   49.6870   22.6600 N.3   114  SER114     -0.1202
    185  CA         4.7650   48.7740   23.6810 C.3   114  SER114      0.2020
    186  C          5.2670   47.3250   23.4590 C.2   114  SER114      0.2619
    187  O          5.5830   46.6140   24.4380 O.2   114  SER114     -0.2717
    188  CB         3.2660   48.9550   23.7430 C.3   114  SER114      0.2103
    189  OG         2.7080   48.3820   24.8670 O.3   114  SER114     -0.2182
    190  N          5.3720   46.8730   22.1870 N.am  115  CYS115     -0.1969
    191  CA         6.0120   45.5870   21.9280 C.3   115  CYS115      0.1712
    192  C          7.4380   45.5960   22.5050 C.2   115  CYS115      0.2296
    193  O          7.8590   44.6480   23.1820 O.2   115  CYS115     -0.2864
    194  CB         6.1370   45.3360   20.4310 C.3   115  CYS115      0.0983
    195  SG         4.6890   45.4610   19.3370 S.3   115  CYS115     -0.0798
    196  N          7.9200   45.4540   26.4150 N.3   118  CYS118     -0.1221
    197  CA         7.7830   44.1220   26.9750 C.3   118  CYS118      0.1808
    198  C          8.9520   43.2390   26.5770 C.2   118  CYS118      0.2601
    199  O          9.5160   42.5400   27.4100 O.2   118  CYS118     -0.2717
    200  CB         6.4320   43.5200   26.6130 C.3   118  CYS118      0.0970
    201  SG         6.2300   41.9810   27.5720 S.3   118  CYS118     -0.0800
    202  N          9.3160   43.2560   25.2910 N.am  119  HIS119     -0.1975
    203  CA        10.4870   42.5550   24.8080 C.3   119  HIS119      0.1656
    204  C         11.7050   42.7610   25.7270 C.2   119  HIS119      0.2291
    205  O         12.3890   41.8030   26.1370 O.2   119  HIS119     -0.2864
    206  CB        10.7900   43.0500   23.3790 C.3   119  HIS119      0.0771
    207  CG        12.0470   42.5110   22.7890 C.ar  119  HIS119      0.0820
    208  ND1       13.2840   43.0740   23.0270 N.ar  119  HIS119     -0.2267
    209  CD2       12.2590   41.4670   21.9560 C.ar  119  HIS119      0.1154
    210  CE1       14.2020   42.4050   22.3460 C.ar  119  HIS119      0.1986
    211  NE2       13.6090   41.4250   21.6900 N.ar  119  HIS119     -0.2212
    212  N         11.0640   41.1690   29.3740 N.3   122  TYR122     -0.1227
    213  CA        10.5170   39.8380   29.6090 C.3   122  TYR122      0.1736
    214  C         10.8940   38.7600   28.6280 C.2   122  TYR122      0.2595
    215  O         10.5290   37.6160   28.8560 O.2   122  TYR122     -0.2718
    216  CB         8.9960   39.8910   29.8040 C.3   122  TYR122      0.0548
    217  CG         8.6070   40.6470   31.0540 C.ar  122  TYR122     -0.0200
    218  CD1        8.9150   40.1400   32.2980 C.ar  122  TYR122     -0.0009
    219  CD2        7.9490   41.8620   31.0260 C.ar  122  TYR122     -0.0009
    220  CE1        8.5850   40.8320   33.4690 C.ar  122  TYR122      0.0417
    221  CE2        7.6080   42.5480   32.1670 C.ar  122  TYR122      0.0417
    222  CZ         7.9260   42.0480   33.3960 C.ar  122  TYR122      0.1957
    223  OH         7.5960   42.7740   34.5300 O.3   122  TYR122     -0.2866
    224  N         11.5590   39.1090   27.5250 N.am  123  LYS123     -0.1980
    225  CA        12.0330   38.1100   26.5780 C.3   123  LYS123      0.1596
    226  C         13.5260   37.8810   26.8390 C.2   123  LYS123      0.2287
    227  O         14.3010   38.8360   26.9650 O.2   123  LYS123     -0.2864
    228  CB        11.7590   38.4990   25.1100 C.3   123  LYS123      0.0298
    229  CG        12.0830   37.3740   24.1150 C.3   123  LYS123      0.0038
    230  CD        11.6070   37.6990   22.6940 C.3   123  LYS123      0.0206
    231  CE        11.8250   36.5240   21.7360 C.3   123  LYS123      0.1093
    232  NZ        13.2560   36.3710   21.3490 N.3   123  LYS123     -0.1314
@<TRIPOS>BOND
     1    59    58    2
     2    58    57    1
     3    56    57    1
     4    54    53    2
     5    57    60    1
     6    53    52    1
     7    42    40    1
     8    39    38    2
     9    67    68    1
    10    60    61    1
    11    71    68    1
    12    71    72    1
    13    38    37    1
    14    46    45    2
    15    61    63   ar
    16    61    62   ar
    17    52    55    1
    18    52    51    1
    19    63    65   ar
    20    68    69    1
    21    40    37    1
    22    40    41    1
    23    74    72    1
    24    62    64   ar
    25    65    66   ar
    26    45    51   am
    27    45    44    1
    28    37    36    1
    29    64    66   ar
    30    43    44    1
    31    72    73    1
    32    44    47    1
    33    69    70    2
    34    36    30   am
    35    31    30    2
    36    47    48    1
    37    30    29    1
    38    48    49    1
    39    22    21    2
    40   182   181    1
    41   181   183    1
    42   181   178    1
    43    29    28    1
    44    29    32    1
    45    21    20    1
    46   176   174    1
    47   172   171    2
    48   195   194    1
    49   177   178    1
    50   175   173    1
    51   179   178    1
    52   179   180    2
    53    49    50    1
    54    32    33    1
    55   171   170    1
    56    23    20    1
    57    23    24    1
    58    20    19    1
    59   170   173    1
    60   170   169    1
    61   174   173    1
    62   194   191    1
    63    26    25    2
    64   166   168   ar
    65   166   164   ar
    66    11    10    2
    67   168   167   ar
    68    19    10   am
    69    33    35    1
    70    33    34    1
    71    24    25    1
    72    25    27   am
    73   232   231    1
    74    10     9    1
    75   211   209   ar
    76   211   210   ar
    77   231   230    1
    78   191   190    1
    79   191   192    1
    80   209   207   ar
    81   167   165   ar
    82   164   163   ar
    83   190   186   am
    84     8     9    1
    85   210   208   ar
    86   115   113   ar
    87     9    12    1
    88   192   193    2
    89     4     3    2
    90   184   185    1
    91   230   229    1
    92   207   208   ar
    93   207   206    1
    94   161   160    2
    95     3     2    1
    96   165   163   ar
    97   163   162    1
    98   206   203    1
    99   186   185    1
   100   186   187    2
   101   113   112    1
   102   113   114   ar
   103   185   188    1
   104   188   189    1
   105    12    13    1
   106   229   228    1
   107   160   159    1
   108     6     5    1
   109    86    88   ar
   110    86    84   ar
   111   112   109    1
   112    13    14    1
   113    88    87   ar
   114   162   159    1
   115     2     5    1
   116     2     1    1
   117   159   158    1
   118   203   202    1
   119   203   204    1
   120     5     7    1
   121    83    84   ar
   122    83    81   ar
   123    84    82   ar
   124   228   225    1
   125   108   109    1
   126   108   106   am
   127   202   198   am
   128   105   106    1
   129   105   104    1
   130   109   110    1
   131    87    85   ar
   132   204   205    2
   133    14    15    1
   134   106   107    2
   135    75    76    1
   136    81    80   ar
   137    82    85   ar
   138    82    80   ar
   139    15    16    2
   140   196   197    1
   141    99    98   ar
   142    99    97   ar
   143   110   111    2
   144   110   116   am
   145   198   197    1
   146   198   199    2
   147   225   226    1
   148   225   224    1
   149    98    96   ar
   150   104   102   am
   151   200   197    1
   152   200   201    1
   153    80    79    1
   154   226   227    2
   155   152   151    2
   156   116   117    1
   157    76    79    1
   158    76    77    1
   159   224   214   am
   160    16    18    1
   161    16    17    1
   162    97    95   ar
   163    96    94   ar
   164   102   103    2
   165   102   101    1
   166   143   142    2
   167    77    78    2
   168   151   150    1
   169   154   153    1
   170   154   155    1
   171   117   120    1
   172   117   118    1
   173   150   153    1
   174   150   149    1
   175   214   215    2
   176   214   213    1
   177    95    94   ar
   178    94    93    1
   179   101   100    1
   180   142   149   am
   181   142   141    1
   182    89    90    1
   183   157   155   am
   184   155   156    2
   185   212   213    1
   186   139   137   ar
   187   139   138   ar
   188   213   216    1
   189   118   119    2
   190   216   217    1
   191   137   135   ar
   192   144   141    1
   193   144   145    1
   194   146   147    1
   195   146   145    1
   196   141   140    1
   197    90    93    1
   198    90    91    1
   199   128   126    1
   200   138   136   ar
   201   147   148    1
   202   219   217   ar
   203   219   221   ar
   204   217   218   ar
   205   135   134   ar
   206   126   125    1
   207    91    92    2
   208   132   131    2
   209   136   134   ar
   210   134   133    1
   211   221   222   ar
   212   127   125    1
   213   218   220   ar
   214   125   122    1
   215   131   130    1
   216   222   220   ar
   217   222   223    1
   218   130   133    1
   219   130   129    1
   220   122   121    1
   221   122   123    1
   222   123   124    2
