@<TRIPOS>MOLECULE
tmp/2xllD00.pdb
 84 79 0 0 0
SMALL
GASTEIGER

@<TRIPOS>ATOM
      1  N         -6.7850   -8.0050  -26.9870 N.3   375  LEU375     -0.1245
      2  CA        -5.7120   -7.0300  -26.8010 C.3   375  LEU375      0.1561
      3  C         -4.3900   -7.5950  -27.3120 C.2   375  LEU375      0.2260
      4  O         -3.6620   -8.2520  -26.5640 O.2   375  LEU375     -0.2867
      5  CB        -5.5840   -6.6440  -25.3330 C.3   375  LEU375      0.0270
      6  CG        -4.6080   -5.4880  -25.1240 C.3   375  LEU375      0.0019
      7  CD1       -4.9240   -4.3800  -26.1050 C.3   375  LEU375      0.0001
      8  CD2       -4.6670   -4.9790  -23.6950 C.3   375  LEU375      0.0001
      9  N          0.8530   -4.1970  -26.8920 N.3   378  ASN378     -0.1240
     10  CA         1.1370   -3.0960  -26.0000 C.3   378  ASN378      0.1653
     11  C          2.2560   -2.2800  -26.6000 C.2   378  ASN378      0.2266
     12  O          3.3310   -2.8060  -26.8480 O.2   378  ASN378     -0.2867
     13  CB         1.5570   -3.6180  -24.6290 C.3   378  ASN378      0.1155
     14  CG         0.4240   -4.2960  -23.9050 C.2   378  ASN378      0.2627
     15  OD1       -0.7070   -3.8040  -23.8990 O.2   378  ASN378     -0.2716
     16  ND2        0.7120   -5.4310  -23.2970 N.am  378  ASN378     -0.0877
     17  N         -6.5820    2.5890  -24.8050 N.3   452  VAL452     -0.1245
     18  CA        -6.9050    1.3650  -25.5160 C.3   452  VAL452      0.1561
     19  C         -7.6930    1.7460  -26.7570 C.2   452  VAL452      0.2260
     20  O         -8.6950    2.4740  -26.6730 O.2   452  VAL452     -0.2867
     21  CB        -7.7270    0.3970  -24.6450 C.3   452  VAL452      0.0252
     22  CG1       -8.1810   -0.8030  -25.4610 C.3   452  VAL452      0.0019
     23  CG2       -6.9150   -0.0420  -23.4430 C.3   452  VAL452      0.0019
     24  N         -2.9710   -1.3090  -26.8270 N.3   472  ASN472     -0.1225
     25  CA        -2.8590   -0.3810  -25.7200 C.3   472  ASN472      0.1785
     26  C         -1.5960    0.4570  -25.8930 C.2   472  ASN472      0.2597
     27  O         -0.4880   -0.0750  -25.8930 O.2   472  ASN472     -0.2718
     28  CB        -2.8320   -1.1520  -24.3920 C.3   472  ASN472      0.1169
     29  CG        -3.1360   -0.2700  -23.1720 C.2   472  ASN472      0.2627
     30  OD1       -3.3400    0.9400  -23.2930 O.2   472  ASN472     -0.2716
     31  ND2       -3.1840   -0.9010  -21.9850 N.am  472  ASN472     -0.0877
     32  N         -1.7720    1.7610  -26.0770 N.am  473  ALA473     -0.1966
     33  CA        -0.6580    2.6960  -26.0370 C.3   473  ALA473      0.1728
     34  C         -0.4440    3.0860  -24.5810 C.2   473  ALA473      0.2617
     35  O         -1.2010    3.8820  -24.0260 O.2   473  ALA473     -0.2715
     36  CB        -0.9500    3.9180  -26.8820 C.3   473  ALA473      0.0334
     37  N          0.6020    2.5230  -23.9820 N.am  474  THR474     -0.1937
     38  CA         0.8350    2.5730  -22.5380 C.3   474  THR474      0.2028
     39  C          1.7590    3.7110  -22.0890 C.2   474  THR474      0.2642
     40  O          2.5780    4.1860  -22.8720 O.2   474  THR474     -0.2714
     41  CB         1.4740    1.2490  -22.0750 C.3   474  THR474      0.1808
     42  OG1        2.6730    1.0190  -22.8270 O.3   474  THR474     -0.2208
     43  CG2        0.5130    0.0760  -22.3020 C.3   474  THR474      0.0379
     44  N          1.6060    4.1430  -20.8320 N.am  475  VAL475     -0.1963
     45  CA         2.5470    5.0560  -20.1740 C.3   475  VAL475      0.1727
     46  C          2.8020    4.5400  -18.7630 C.2   475  VAL475      0.2616
     47  O          2.0330    3.7280  -18.2590 O.2   475  VAL475     -0.2715
     48  CB         1.9960    6.4960  -20.0160 C.3   475  VAL475      0.0290
     49  CG1        2.0240    7.2510  -21.3210 C.3   475  VAL475      0.0023
     50  CG2        0.6000    6.4690  -19.4090 C.3   475  VAL475      0.0023
     51  N          3.8660    5.0220  -18.1230 N.am  476  LEU476     -0.1964
     52  CA         4.1650    4.6690  -16.7310 C.3   476  LEU476      0.1713
     53  C          3.2860    5.4780  -15.7820 C.2   476  LEU476      0.2458
     54  O          2.8250    6.5600  -16.1360 O.2   476  LEU476     -0.2730
     55  CB         5.6360    4.9310  -16.4270 C.3   476  LEU476      0.0310
     56  CG         6.6050    4.3930  -17.4870 C.3   476  LEU476      0.0022
     57  CD1        8.0150    4.9760  -17.3060 C.3   476  LEU476      0.0001
     58  CD2        6.6240    2.8700  -17.4960 C.3   476  LEU476      0.0001
     59  N          3.0440    4.9590  -14.5720 N.am  477  PRO477     -0.2727
     60  CA         2.0560    5.5950  -13.6890 C.3   477  PRO477      0.1402
     61  C          2.4210    7.0120  -13.2530 C.2   477  PRO477      0.2269
     62  O          1.5510    7.7410  -12.7750 O.2   477  PRO477     -0.2865
     63  CB         2.0020    4.6550  -12.4870 C.3   477  PRO477      0.0296
     64  CG         2.4450    3.3340  -13.0330 C.3   477  PRO477      0.0237
     65  CD         3.5060    3.6670  -14.0420 C.3   477  PRO477      0.0939
     66  N         -3.9920   10.8530  -17.2300 N.3   483  ALA483     -0.1231
     67  CA        -4.0240    9.6090  -17.9890 C.3   483  ALA483      0.1694
     68  C         -4.9860    8.5780  -17.3850 C.2   483  ALA483      0.2592
     69  O         -5.6140    7.7940  -18.1030 O.2   483  ALA483     -0.2718
     70  CB        -2.6230    9.0230  -18.1090 C.3   483  ALA483      0.0304
     71  N         -5.1020    8.5810  -16.0640 N.am  484  THR484     -0.1953
     72  CA        -5.9260    7.5950  -15.3760 C.3   484  THR484      0.1897
     73  C         -7.4060    7.6240  -15.7690 C.2   484  THR484      0.2313
     74  O         -8.0760    6.5880  -15.7590 O.2   484  THR484     -0.2863
     75  CB        -5.7890    7.7320  -13.8530 C.3   484  THR484      0.1794
     76  OG1       -4.5160    7.2090  -13.4520 O.3   484  THR484     -0.2208
     77  CG2       -6.8980    6.9580  -13.1440 C.3   484  THR484      0.0378
     78  N         -7.5830    6.5690  -20.2890 N.3   487  VAL487     -0.1245
     79  CA        -7.0670    5.3530  -20.9300 C.3   487  VAL487      0.1561
     80  C         -8.1260    4.2780  -21.1960 C.2   487  VAL487      0.2260
     81  O         -8.0190    3.5110  -22.1470 O.2   487  VAL487     -0.2867
     82  CB        -5.9620    4.7000  -20.0820 C.3   487  VAL487      0.0252
     83  CG1       -5.6070    3.3420  -20.6550 C.3   487  VAL487      0.0019
     84  CG2       -4.7330    5.5930  -20.0140 C.3   487  VAL487      0.0019
@<TRIPOS>BOND
     1     3     2    1
     2     3     4    2
     3     1     2    1
     4     9    10    1
     5    36    33    1
     6    12    11    2
     7    24    25    1
     8     2     5    1
     9    19    20    2
    10    19    18    1
    11    11    10    1
    12     7     6    1
    13    32    33    1
    14    32    26   am
    15    33    34    1
    16    10    13    1
    17    26    27    2
    18    26    25    1
    19    25    28    1
    20    18    17    1
    21    18    21    1
    22    22    21    1
    23     5     6    1
    24     6     8    1
    25    21    23    1
    26    13    14    1
    27    34    35    2
    28    34    37   am
    29    28    29    1
    30    37    38    1
    31    14    15    2
    32    14    16   am
    33    30    29    2
    34    29    31   am
    35    40    39    2
    36    42    41    1
    37    38    39    1
    38    38    41    1
    39    43    41    1
    40    81    80    2
    41    39    44   am
    42    49    48    1
    43    80    79    1
    44    79    78    1
    45    79    82    1
    46    44    45    1
    47    83    82    1
    48    45    48    1
    49    45    46    1
    50    82    84    1
    51    48    50    1
    52    46    47    2
    53    46    51   am
    54    51    52    1
    55    70    67    1
    56    69    68    2
    57    67    68    1
    58    67    66    1
    59    58    56    1
    60    56    57    1
    61    56    55    1
    62    68    71   am
    63    52    55    1
    64    52    53    1
    65    54    53    2
    66    71    72    1
    67    53    59   am
    68    73    74    2
    69    73    72    1
    70    72    75    1
    71    59    65    1
    72    59    60    1
    73    65    64    1
    74    75    76    1
    75    75    77    1
    76    60    61    1
    77    60    63    1
    78    61    62    2
    79    64    63    1
