@<TRIPOS>MOLECULE
tmp/2xlnB00.pdb
 129 123 0 0 0
SMALL
GASTEIGER

@<TRIPOS>ATOM
      1  N         56.6150   23.4760   29.8330 N.3    48  ALA48      -0.1231
      2  CA        57.7860   23.0720   30.6270 C.3    48  ALA48       0.1694
      3  C         57.7790   23.8520   31.9450 C.2    48  ALA48       0.2592
      4  O         56.7110   24.0580   32.5280 O.2    48  ALA48      -0.2718
      5  CB        59.0920   23.2570   29.8490 C.3    48  ALA48       0.0304
      6  N         58.9410   24.3100   32.4030 N.am   49  SER49      -0.1952
      7  CA        59.0310   24.9790   33.7040 C.3    49  SER49       0.1924
      8  C         58.3120   26.3310   33.8470 C.2    49  SER49       0.2314
      9  O         58.3420   26.9210   34.9210 O.2    49  SER49      -0.2863
     10  CB        60.4910   25.1110   34.1390 C.3    49  SER49       0.2116
     11  OG        61.0110   23.8660   34.5600 O.3    49  SER49      -0.2180
     12  N         55.7550   26.4960   36.5820 N.3    52  LYS52      -0.1245
     13  CA        56.1420   26.9500   37.9320 C.3    52  LYS52       0.1561
     14  C         55.6270   28.3540   38.2800 C.2    52  LYS52       0.2260
     15  O         55.4660   28.6770   39.4600 O.2    52  LYS52      -0.2867
     16  CB        57.6560   26.8860   38.1250 C.3    52  LYS52       0.0271
     17  CG        58.2350   25.4950   38.0010 C.3    52  LYS52       0.0035
     18  CD        59.6490   25.4220   38.5500 C.3    52  LYS52       0.0206
     19  CE        60.1160   23.9670   38.6390 C.3    52  LYS52       0.1093
     20  NZ        60.5260   23.4050   37.3350 N.3    52  LYS52      -0.1314
     21  N         58.9120   10.2760   32.7290 N.3   139  TRP139     -0.1241
     22  CA        59.7020    9.2250   32.1180 C.3   139  TRP139      0.1605
     23  C         60.6100    8.5900   33.1690 C.2   139  TRP139      0.2264
     24  O         61.2730    9.3140   33.9160 O.2   139  TRP139     -0.2867
     25  CB        60.5420    9.7900   30.9700 C.3   139  TRP139      0.0550
     26  CG        59.7670   10.2810   29.7620 C.ar  139  TRP139      0.0003
     27  CD1       58.4910    9.9400   29.4000 C.ar  139  TRP139      0.0946
     28  CD2       60.2490   11.1710   28.7370 C.ar  139  TRP139      0.0152
     29  NE1       58.1430   10.5830   28.2330 N.ar  139  TRP139     -0.2442
     30  CE2       59.2050   11.3360   27.8010 C.ar  139  TRP139      0.0810
     31  CE3       61.4610   11.8420   28.5220 C.ar  139  TRP139      0.0012
     32  CZ2       59.3360   12.1440   26.6640 C.ar  139  TRP139      0.0191
     33  CZ3       61.5900   12.6510   27.3940 C.ar  139  TRP139      0.0001
     34  CH2       60.5270   12.7980   26.4810 C.ar  139  TRP139      0.0015
     35  N         64.4000    9.3540   33.2390 N.3   142  ASP142     -0.1239
     36  CA        64.8270   10.5820   33.9160 C.3   142  ASP142      0.1674
     37  C         65.0700   10.4170   35.4050 C.2   142  ASP142      0.2266
     38  O         65.6400   11.3090   36.0490 O.2   142  ASP142     -0.2867
     39  CB        63.7900   11.6930   33.7310 C.3   142  ASP142      0.1410
     40  CG        63.8510   12.3300   32.3590 C.2   142  ASP142      0.3668
     41  OD1       64.9390   12.3130   31.7260 O.co2 142  ASP142     -0.2456
     42  OD2       62.8000   12.8480   31.9190 O.co2 142  ASP142     -0.2456
     43  N         66.5580   16.4460   38.7130 N.3   147  TYR147     -0.1241
     44  CA        65.3330   17.1110   38.2760 C.3   147  TYR147      0.1605
     45  C         64.1030   16.2000   38.3270 C.2   147  TYR147      0.2264
     46  O         62.9720   16.6700   38.1790 O.2   147  TYR147     -0.2867
     47  CB        65.5090   17.7540   36.9010 C.3   147  TYR147      0.0534
     48  CG        65.7870   16.7940   35.7730 C.ar  147  TYR147     -0.0201
     49  CD1       64.7420   16.1880   35.0730 C.ar  147  TYR147     -0.0009
     50  CD2       67.0950   16.5140   35.3830 C.ar  147  TYR147     -0.0009
     51  CE1       64.9960   15.3050   34.0280 C.ar  147  TYR147      0.0417
     52  CE2       67.3610   15.6380   34.3420 C.ar  147  TYR147      0.0417
     53  CZ        66.3070   15.0370   33.6680 C.ar  147  TYR147      0.1957
     54  OH        66.5740   14.1660   32.6310 O.3   147  TYR147     -0.2866
     55  N         66.4060   28.7780   39.7660 N.3   297  PHE297     -0.1227
     56  CA        67.0760   27.5770   39.2440 C.3   297  PHE297      0.1736
     57  C         66.0990   26.5220   38.7120 C.2   297  PHE297      0.2596
     58  O         66.5140   25.4640   38.2350 O.2   297  PHE297     -0.2718
     59  CB        67.9900   26.9600   40.3130 C.3   297  PHE297      0.0547
     60  CG        68.9860   27.9260   40.8970 C.ar  297  PHE297     -0.0202
     61  CD1       69.9990   28.4670   40.1110 C.ar  297  PHE297     -0.0042
     62  CD2       68.9130   28.2980   42.2380 C.ar  297  PHE297     -0.0042
     63  CE1       70.9170   29.3510   40.6510 C.ar  297  PHE297     -0.0003
     64  CE2       69.8270   29.1900   42.7810 C.ar  297  PHE297     -0.0003
     65  CZ        70.8310   29.7140   41.9870 C.ar  297  PHE297     -0.0000
     66  N         64.8060   26.8130   38.8050 N.am  298  SER298     -0.1952
     67  CA        63.7590   25.9560   38.2560 C.3   298  SER298      0.1924
     68  C         63.7920   24.5630   38.8950 C.2   298  SER298      0.2314
     69  O         64.0960   23.5630   38.2340 O.2   298  SER298     -0.2863
     70  CB        63.8760   25.8950   36.7310 C.3   298  SER298      0.2116
     71  OG        62.6650   25.4730   36.1470 O.3   298  SER298     -0.2180
     72  N         62.3520   21.3460   40.4010 N.3   300  ASN300     -0.1240
     73  CA        61.1430   20.5460   40.1680 C.3   300  ASN300      0.1653
     74  C         60.5130   20.0010   41.4500 C.2   300  ASN300      0.2266
     75  O         59.2910   20.0350   41.6090 O.2   300  ASN300     -0.2867
     76  CB        61.4360   19.3920   39.2100 C.3   300  ASN300      0.1155
     77  CG        61.7150   19.8450   37.7990 C.2   300  ASN300      0.2627
     78  OD1       61.5020   21.0060   37.4390 O.2   300  ASN300     -0.2716
     79  ND2       62.1850   18.9140   36.9750 N.am  300  ASN300     -0.0877
     80  N         55.6940   21.1590   38.4600 N.3   347  SER347     -0.1202
     81  CA        57.0000   21.5440   37.9180 C.3   347  SER347      0.2020
     82  C         56.9830   21.9510   36.4470 C.2   347  SER347      0.2619
     83  O         57.7470   22.8170   36.0360 O.2   347  SER347     -0.2717
     84  CB        58.0440   20.4520   38.1610 C.3   347  SER347      0.2103
     85  OG        57.6570   19.2140   37.5970 O.3   347  SER347     -0.2182
     86  N         56.1060   21.3310   35.6680 N.am  348  GLY348     -0.1942
     87  CA        56.1540   21.4550   34.2190 C.3   348  GLY348      0.2014
     88  C         56.8720   20.3080   33.5350 C.2   348  GLY348      0.2638
     89  O         56.9150   20.2590   32.3090 O.2   348  GLY348     -0.2714
     90  N         57.4310   19.3910   34.3310 N.am  349  LEU349     -0.1977
     91  CA        58.1360   18.2030   33.8350 C.3   349  LEU349      0.1596
     92  C         57.2020   17.3010   33.0410 C.2   349  LEU349      0.2287
     93  O         57.6070   16.7200   32.0310 O.2   349  LEU349     -0.2864
     94  CB        58.7270   17.3860   34.9980 C.3   349  LEU349      0.0297
     95  CG        60.0840   16.6540   34.8860 C.3   349  LEU349      0.0022
     96  CD1       60.1590   15.4450   35.8310 C.3   349  LEU349      0.0001
     97  CD2       60.4630   16.2390   33.4840 C.3   349  LEU349      0.0001
     98  N         54.5500   16.0250   30.5100 N.3   351  ARG351     -0.1245
     99  CA        54.1440   16.4160   29.1660 C.3   351  ARG351      0.1563
    100  C         52.6240   16.3330   28.9870 C.2   351  ARG351      0.2260
    101  O         52.1130   16.3750   27.8580 O.2   351  ARG351     -0.2867
    102  CB        54.9090   15.5940   28.1210 C.3   351  ARG351      0.0307
    103  CG        56.4200   15.7760   28.2630 C.3   351  ARG351      0.0489
    104  CD        57.2350   14.8920   27.3480 C.3   351  ARG351      0.2205
    105  NE        57.2840   15.4440   25.9980 N.pl3 351  ARG351     -0.0865
    106  CZ        58.2450   16.2390   25.5310 C.cat 351  ARG351      0.5346
    107  NH1       59.2780   16.5840   26.2960 N.pl3 351  ARG351      0.1354
    108  NH2       58.1680   16.6760   24.2820 N.pl3 351  ARG351      0.1354
    109  N         62.5950   24.6080   29.6090 N.3   413  THR413     -0.1203
    110  CA        63.1170   23.7870   28.5230 C.3   413  THR413      0.1994
    111  C         63.0260   22.2970   28.8390 C.2   413  THR413      0.2618
    112  O         63.2740   21.8660   29.9630 O.2   413  THR413     -0.2717
    113  CB        64.5800   24.1690   28.1130 C.3   413  THR413      0.1784
    114  OG1       64.6620   25.5750   27.8120 O.3   413  THR413     -0.2211
    115  CG2       65.0250   23.3830   26.8730 C.3   413  THR413      0.0376
    116  N         62.6170   21.5380   27.8280 N.am  414  MET414     -0.1965
    117  CA        62.8380   20.1040   27.7520 C.3   414  MET414      0.1736
    118  C         62.7610   19.6870   26.2880 C.2   414  MET414      0.2617
    119  O         62.5270   20.5210   25.4160 O.2   414  MET414     -0.2715
    120  CB        61.8610   19.3120   28.6300 C.3   414  MET414      0.0427
    121  CG        60.3900   19.5430   28.3880 C.3   414  MET414      0.0599
    122  SD        59.4690   18.8860   29.7880 S.3   414  MET414     -0.1393
    123  CE        57.8030   19.1200   29.1830 C.3   414  MET414      0.0692
    124  N         62.9790   18.4090   26.0140 N.am  415  SER415     -0.1950
    125  CA        62.9800   17.9170   24.6380 C.3   415  SER415      0.1924
    126  C         61.7420   18.4070   23.8830 C.2   415  SER415      0.2314
    127  O         60.6170   18.0540   24.2330 O.2   415  SER415     -0.2863
    128  CB        63.0700   16.3880   24.6190 C.3   415  SER415      0.2116
    129  OG        63.0790   15.8950   23.2930 O.3   415  SER415     -0.2180
@<TRIPOS>BOND
     1   129   128    1
     2   126   127    2
     3   126   125    1
     4   108   106    1
     5   128   125    1
     6   125   124    1
     7   119   118    2
     8   106   105    2
     9   106   107    1
    10   105   104    1
    11   124   118   am
    12   118   117    1
    13    34    32   ar
    14    34    33   ar
    15    32    30   ar
    16   115   113    1
    17   104   103    1
    18    33    31   ar
    19   117   116    1
    20   117   120    1
    21    30    29   ar
    22    30    28   ar
    23   114   113    1
    24   116   111   am
    25   101   100    2
    26   113   110    1
    27   102   103    1
    28   102    99    1
    29    29    27   ar
    30   121   120    1
    31   121   122    1
    32    31    28   ar
    33   110   111    1
    34   110   109    1
    35    28    26   ar
    36   111   112    2
    37   100    99    1
    38    99    98    1
    39   123   122    1
    40    27    26   ar
    41    26    25    1
    42     1     2    1
    43     5     2    1
    44     2     3    1
    45    25    22    1
    46    41    40   ar
    47    42    40   ar
    48     3     6   am
    49     3     4    2
    50    93    92    2
    51    22    21    1
    52    22    23    1
    53    89    88    2
    54    40    39    1
    55     6     7    1
    56    54    53    1
    57    92    91    1
    58    23    24    2
    59    35    36    1
    60    97    95    1
    61    88    87    1
    62    88    90   am
    63    53    51   ar
    64    53    52   ar
    65     7     8    1
    66     7    10    1
    67    39    36    1
    68    91    90    1
    69    91    94    1
    70     8     9    2
    71    36    37    1
    72    51    49   ar
    73    10    11    1
    74    87    86    1
    75    52    50   ar
    76    95    94    1
    77    95    96    1
    78    49    48   ar
    79    50    48   ar
    80    37    38    2
    81    86    82   am
    82    48    47    1
    83    83    82    2
    84    71    70    1
    85    82    81    1
    86    12    13    1
    87    70    67    1
    88    47    44    1
    89    79    77   am
    90    20    19    1
    91    78    77    2
    92    85    84    1
    93    77    76    1
    94    81    84    1
    95    81    80    1
    96    13    16    1
    97    13    14    1
    98    17    16    1
    99    17    18    1
   100    46    45    2
   101    69    68    2
   102    58    57    2
   103    67    66    1
   104    67    68    1
   105    44    45    1
   106    44    43    1
   107    14    15    2
   108    18    19    1
   109    57    66   am
   110    57    56    1
   111    76    73    1
   112    56    55    1
   113    56    59    1
   114    61    63   ar
   115    61    60   ar
   116    73    72    1
   117    73    74    1
   118    59    60    1
   119    63    65   ar
   120    60    62   ar
   121    74    75    2
   122    65    64   ar
   123    62    64   ar
