@<TRIPOS>MOLECULE
tmp/2xlpB03.pdb
 71 69 0 0 0
SMALL
GASTEIGER

@<TRIPOS>ATOM
      1  N        -22.4030  204.1150   29.8740 N.3    81  ALA81      -0.1245
      2  CA       -22.4040  203.0350   30.8600 C.3    81  ALA81       0.1562
      3  C        -22.4680  201.6170   30.2620 C.2    81  ALA81       0.2260
      4  O        -22.3990  200.6410   30.9880 O.2    81  ALA81      -0.2867
      5  CB       -23.5250  203.2250   31.8660 C.3    81  ALA81       0.0290
      6  N        -17.6580  201.0880   27.1910 N.3    84  THR84      -0.1218
      7  CA       -16.6380  201.9030   27.8490 C.3    84  THR84       0.1862
      8  C        -15.5740  202.3430   26.8550 C.2    84  THR84       0.2287
      9  O        -15.4700  201.8100   25.7500 O.2    84  THR84      -0.2866
     10  CB       -15.9450  201.1480   29.0380 C.3    84  THR84       0.1770
     11  OG1      -15.0640  200.1520   28.5170 O.3    84  THR84      -0.2211
     12  CG2      -16.9400  200.4860   29.9860 C.3    84  THR84       0.0375
     13  N        -27.7010  200.7520   32.9280 N.3   385  PRO385     -0.2102
     14  CA       -26.7520  200.4750   34.0160 C.3   385  PRO385      0.1504
     15  C        -26.6610  201.6830   34.9150 C.2   385  PRO385      0.2576
     16  O        -26.4990  202.7840   34.4330 O.2   385  PRO385     -0.2718
     17  CB       -25.4100  200.2760   33.2900 C.3   385  PRO385      0.0282
     18  CG       -25.7330  199.9430   31.8970 C.3   385  PRO385      0.0208
     19  CD       -27.0860  200.5530   31.5990 C.3   385  PRO385      0.0893
     20  N        -26.7840  201.5180   36.2170 N.am  386  SER386     -0.1938
     21  CA       -26.5840  202.7070   37.0300 C.3   386  SER386      0.2055
     22  C        -25.0830  202.9750   37.1810 C.2   386  SER386      0.2643
     23  O        -24.2750  202.0820   36.9480 O.2   386  SER386     -0.2714
     24  CB       -27.3150  202.6230   38.3660 C.3   386  SER386      0.2130
     25  OG       -26.4990  201.9500   39.2590 O.3   386  SER386     -0.2179
     26  N        -24.7130  204.2100   37.5120 N.am  387  PHE387     -0.1959
     27  CA       -23.3020  204.6050   37.6030 C.3   387  PHE387      0.1771
     28  C        -23.1780  205.7300   38.5860 C.2   387  PHE387      0.2619
     29  O        -24.1660  206.2730   39.0440 O.2   387  PHE387     -0.2715
     30  CB       -22.6680  204.9560   36.2370 C.3   387  PHE387      0.0574
     31  CG       -23.2580  206.1700   35.5410 C.ar  387  PHE387     -0.0200
     32  CD1      -24.3800  206.0610   34.7060 C.ar  387  PHE387     -0.0042
     33  CD2      -22.6630  207.4150   35.6670 C.ar  387  PHE387     -0.0042
     34  CE1      -24.9090  207.1930   34.0510 C.ar  387  PHE387     -0.0003
     35  CE2      -23.1790  208.5570   35.0090 C.ar  387  PHE387     -0.0003
     36  CZ       -24.3000  208.4400   34.2030 C.ar  387  PHE387     -0.0000
     37  N        -21.9620  206.0760   38.9500 N.am  388  ASP388     -0.1971
     38  CA       -21.7940  207.0070   40.0480 C.3   388  ASP388      0.1709
     39  C        -21.9960  208.4640   39.5830 C.2   388  ASP388      0.2293
     40  O        -21.1160  209.0970   38.9670 O.2   388  ASP388     -0.2864
     41  CB       -20.4490  206.7760   40.7390 C.3   388  ASP388      0.1436
     42  CG       -20.3920  207.3980   42.1150 C.2   388  ASP388      0.3671
     43  OD1      -21.1220  208.3740   42.4010 O.co2 388  ASP388     -0.2456
     44  OD2      -19.5880  206.9270   42.9220 O.co2 388  ASP388     -0.2456
     45  N        -15.5960  206.6470   35.6010 N.3   418  LEU418     -0.1231
     46  CA       -16.5780  206.1950   36.5890 C.3   418  LEU418      0.1693
     47  C        -17.2260  204.8790   36.1670 C.2   418  LEU418      0.2592
     48  O        -18.0810  204.3430   36.8730 O.2   418  LEU418     -0.2718
     49  CB       -17.6670  207.2560   36.8400 C.3   418  LEU418      0.0284
     50  CG       -17.3120  208.6770   37.2970 C.3   418  LEU418      0.0019
     51  CD1      -16.3930  208.6500   38.5000 C.3   418  LEU418      0.0001
     52  CD2      -16.7170  209.5090   36.1640 C.3   418  LEU418      0.0001
     53  N        -16.8290  204.3500   35.0250 N.am  419  MET419     -0.1965
     54  CA       -17.3320  203.0500   34.5960 C.3   419  MET419      0.1736
     55  C        -16.3400  201.9380   34.9590 C.2   419  MET419      0.2617
     56  O        -16.7320  200.8840   35.4870 O.2   419  MET419     -0.2715
     57  CB       -17.6310  203.0460   33.0840 C.3   419  MET419      0.0427
     58  CG       -18.4440  204.2430   32.5690 C.3   419  MET419      0.0599
     59  SD       -20.0940  204.3910   33.2720 S.3   419  MET419     -0.1393
     60  CE       -20.5370  206.0930   32.9130 C.3   419  MET419      0.0692
     61  N        -15.0570  202.1990   34.6860 N.am  420  THR420     -0.1937
     62  CA       -13.9710  201.2350   34.8660 C.3   420  THR420      0.2028
     63  C        -13.1200  201.4130   36.1380 C.2   420  THR420      0.2642
     64  O        -12.5430  200.4260   36.5980 O.2   420  THR420     -0.2714
     65  CB       -13.0050  201.1890   33.6490 C.3   420  THR420      0.1808
     66  OG1      -12.2960  202.4320   33.5280 O.3   420  THR420     -0.2208
     67  CG2      -13.7300  200.9070   32.3710 C.3   420  THR420      0.0379
     68  N        -13.0310  202.6330   36.6850 N.am  421  GLY421     -0.1954
     69  CA       -12.1910  202.9270   37.8570 C.3   421  GLY421      0.1869
     70  C        -10.7860  203.4270   37.4990 C.2   421  GLY421      0.2309
     71  O        -10.1650  204.1540   38.2730 O.2   421  GLY421     -0.2863
@<TRIPOS>BOND
     1     9     8    2
     2     8     7    1
     3     6     7    1
     4     7    10    1
     5    11    10    1
     6    10    12    1
     7     1     2    1
     8     3     2    1
     9     3     4    2
    10     2     5    1
    11    19    18    1
    12    19    13    1
    13    18    17    1
    14    67    65    1
    15    58    57    1
    16    58    59    1
    17    60    59    1
    18    13    14    1
    19    57    54    1
    20    17    14    1
    21    66    65    1
    22    65    62    1
    23    14    15    1
    24    34    36   ar
    25    34    32   ar
    26    36    35   ar
    27    16    15    2
    28    54    55    1
    29    54    53    1
    30    61    62    1
    31    61    55   am
    32    32    31   ar
    33    62    63    1
    34    15    20   am
    35    55    56    2
    36    35    33   ar
    37    53    47   am
    38    31    33   ar
    39    31    30    1
    40    45    46    1
    41    63    64    2
    42    63    68   am
    43    52    50    1
    44    47    46    1
    45    47    48    2
    46    20    21    1
    47    30    27    1
    48    46    49    1
    49    68    69    1
    50    49    50    1
    51    23    22    2
    52    21    22    1
    53    21    24    1
    54    22    26   am
    55    50    51    1
    56    70    69    1
    57    70    71    2
    58    26    27    1
    59    27    28    1
    60    24    25    1
    61    28    37   am
    62    28    29    2
    63    37    38    1
    64    40    39    2
    65    39    38    1
    66    38    41    1
    67    41    42    1
    68    42    43   ar
    69    42    44   ar
