@<TRIPOS>MOLECULE
tmp/2xlqA00.pdb
 159 154 0 0 0
SMALL
GASTEIGER

@<TRIPOS>ATOM
      1  N         89.2070   -0.7350    9.0610 N.3    71  PHE71      -0.1241
      2  CA        90.5080   -0.5330    8.4270 C.3    71  PHE71       0.1605
      3  C         90.3310   -0.8840    6.9350 C.2    71  PHE71       0.2264
      4  O         89.9150   -1.9930    6.5730 O.2    71  PHE71      -0.2867
      5  CB        91.5460   -1.4220    9.0620 C.3    71  PHE71       0.0534
      6  CG        92.2310   -0.8340   10.2780 C.ar   71  PHE71      -0.0203
      7  CD1       92.3300    0.5290   10.4810 C.ar   71  PHE71      -0.0042
      8  CD2       92.8390   -1.6750   11.1890 C.ar   71  PHE71      -0.0042
      9  CE1       93.0290    1.0380   11.5850 C.ar   71  PHE71      -0.0003
     10  CE2       93.5180   -1.1870   12.2850 C.ar   71  PHE71      -0.0003
     11  CZ        93.6140    0.1620   12.4900 C.ar   71  PHE71      -0.0000
     12  N         91.4230    7.9210   10.2400 N.3   125  TRP125     -0.1241
     13  CA        92.7750    7.3170   10.2940 C.3   125  TRP125      0.1605
     14  C         93.3820    7.2700    8.8760 C.2   125  TRP125      0.2264
     15  O         92.7220    6.7980    7.9510 O.2   125  TRP125     -0.2867
     16  CB        92.5870    5.8900   10.8190 C.3   125  TRP125      0.0550
     17  CG        93.7310    4.9950   10.7880 C.ar  125  TRP125      0.0003
     18  CD1       94.2170    4.3040    9.6960 C.ar  125  TRP125      0.0946
     19  CD2       94.5280    4.5920   11.9080 C.ar  125  TRP125      0.0152
     20  NE1       95.2980    3.5620   10.0620 N.ar  125  TRP125     -0.2442
     21  CE2       95.5010    3.7040   11.4200 C.ar  125  TRP125      0.0810
     22  CE3       94.5310    4.9280   13.2690 C.ar  125  TRP125      0.0012
     23  CZ2       96.4650    3.1270   12.2500 C.ar  125  TRP125      0.0191
     24  CZ3       95.4980    4.3670   14.1050 C.ar  125  TRP125      0.0001
     25  CH2       96.4480    3.4700   13.5860 C.ar  125  TRP125      0.0015
     26  N        104.0390    6.8030   10.0580 N.3   163  ARG163     -0.1231
     27  CA       103.3430    5.7530    9.3460 C.3   163  ARG163      0.1694
     28  C        101.8300    5.9730    9.2830 C.2   163  ARG163      0.2592
     29  O        101.1970    5.5700    8.3250 O.2   163  ARG163     -0.2718
     30  CB       103.6780    4.3910    9.9840 C.3   163  ARG163      0.0321
     31  CG       105.0110    3.8440    9.5240 C.3   163  ARG163      0.0489
     32  CD       105.6230    2.8420   10.4630 C.3   163  ARG163      0.2205
     33  NE       104.6460    1.8920   10.9790 N.pl3 163  ARG163     -0.0865
     34  CZ       104.1190    0.9040   10.2840 C.cat 163  ARG163      0.5346
     35  NH1      104.4510    0.7160    9.0110 N.pl3 163  ARG163      0.1354
     36  NH2      103.2360    0.1120   10.8660 N.pl3 163  ARG163      0.1354
     37  N        101.2490    6.5770   10.3040 N.am  164  PHE164     -0.1976
     38  CA        99.8260    6.9140   10.2860 C.3   164  PHE164      0.1639
     39  C         99.5790    8.2490   10.9830 C.2   164  PHE164      0.2290
     40  O        100.3940    8.7360   11.7410 O.2   164  PHE164     -0.2864
     41  CB        98.9730    5.8840   11.0270 C.3   164  PHE164      0.0560
     42  CG        99.2710    4.4700   10.6930 C.ar  164  PHE164     -0.0200
     43  CD1       98.6480    3.8540    9.6350 C.ar  164  PHE164     -0.0042
     44  CD2      100.1330    3.7330   11.4690 C.ar  164  PHE164     -0.0042
     45  CE1       98.8990    2.5010    9.3270 C.ar  164  PHE164     -0.0003
     46  CE2      100.3980    2.3950   11.1730 C.ar  164  PHE164     -0.0003
     47  CZ        99.7810    1.7780   10.0930 C.ar  164  PHE164     -0.0000
     48  N        101.5210    8.8320   14.2950 N.3   177  TYR177     -0.1241
     49  CA       102.0490    7.5000   14.5540 C.3   177  TYR177      0.1605
     50  C        103.4460    7.3670   13.9770 C.2   177  TYR177      0.2264
     51  O        103.6350    7.3720   12.7660 O.2   177  TYR177     -0.2867
     52  CB       101.0980    6.4540   13.9580 C.3   177  TYR177      0.0534
     53  CG        99.8480    6.2510   14.7770 C.ar  177  TYR177     -0.0201
     54  CD1       98.7390    7.0770   14.6380 C.ar  177  TYR177     -0.0009
     55  CD2       99.7810    5.2160   15.6970 C.ar  177  TYR177     -0.0009
     56  CE1       97.5720    6.8720   15.4360 C.ar  177  TYR177      0.0417
     57  CE2       98.6580    5.0040   16.4650 C.ar  177  TYR177      0.0417
     58  CZ        97.5510    5.8220   16.3440 C.ar  177  TYR177      0.1957
     59  OH        96.4530    5.5360   17.1520 O.3   177  TYR177     -0.2866
     60  N        107.4780    5.4930   13.9600 N.3   179  ARG179     -0.1245
     61  CA       108.2490    4.3050   14.2490 C.3   179  ARG179      0.1563
     62  C        109.6750    4.7310   14.5340 C.2   179  ARG179      0.2260
     63  O        110.2990    5.4330   13.7350 O.2   179  ARG179     -0.2867
     64  CB       108.2250    3.3030   13.1130 C.3   179  ARG179      0.0307
     65  CG       109.0570    2.0400   13.4310 C.3   179  ARG179      0.0489
     66  CD       108.8930    1.0210   12.3600 C.3   179  ARG179      0.2205
     67  NE       107.7760    0.1270   12.6450 N.pl3 179  ARG179     -0.0865
     68  CZ       107.1910   -0.6450   11.7420 C.cat 179  ARG179      0.5346
     69  NH1      107.6140   -0.6360   10.4790 N.pl3 179  ARG179      0.1354
     70  NH2      106.1770   -1.4360   12.1120 N.pl3 179  ARG179      0.1354
     71  N        106.4490    1.3090   17.6900 N.3   218  CYS218     -0.1235
     72  CA       105.4250    2.2250   17.2300 C.3   218  CYS218      0.1677
     73  C        104.8660    3.0020   18.4150 C.2   218  CYS218      0.2270
     74  O        104.5120    2.4290   19.4370 O.2   218  CYS218     -0.2867
     75  CB       104.3350    1.4760   16.4700 C.3   218  CYS218      0.0956
     76  SG       102.7690    2.3520   16.3470 S.3   218  CYS218     -0.0801
     77  N        102.2500    0.8000   21.7170 N.3   236  TYR236     -0.1241
     78  CA       101.3720   -0.2520   21.2470 C.3   236  TYR236      0.1605
     79  C        102.0610   -1.6090   21.1280 C.2   236  TYR236      0.2264
     80  O        103.2300   -1.6760   20.7170 O.2   236  TYR236     -0.2867
     81  CB       100.8240    0.1680   19.8920 C.3   236  TYR236      0.0534
     82  CG        99.6830    1.1860   19.9650 C.ar  236  TYR236     -0.0201
     83  CD1       98.3810    0.7740   20.2170 C.ar  236  TYR236     -0.0009
     84  CD2       99.9090    2.5380   19.7790 C.ar  236  TYR236     -0.0009
     85  CE1       97.3210    1.6780   20.2590 C.ar  236  TYR236      0.0417
     86  CE2       98.8460    3.4750   19.8340 C.ar  236  TYR236      0.0417
     87  CZ        97.5580    3.0270   20.0770 C.ar  236  TYR236      0.1957
     88  OH        96.4970    3.9090   20.1180 O.3   236  TYR236     -0.2866
     89  N        100.9160   -5.2500   19.2880 N.3   238  LEU238     -0.1245
     90  CA        99.9120   -5.7790   18.3470 C.3   238  LEU238      0.1561
     91  C         99.8630   -7.3180   18.3460 C.2   238  LEU238      0.2260
     92  O        100.8850   -7.9640   18.3920 O.2   238  LEU238     -0.2867
     93  CB       100.2030   -5.2810   16.9250 C.3   238  LEU238      0.0270
     94  CG       100.4180   -3.7810   16.7080 C.3   238  LEU238      0.0019
     95  CD1      100.5410   -3.4640   15.2070 C.3   238  LEU238      0.0001
     96  CD2       99.3110   -2.8970   17.4210 C.3   238  LEU238      0.0001
     97  N         95.0140   -5.9400   20.5100 N.3   269  VAL269     -0.1245
     98  CA        96.0160   -4.8720   20.5760 C.3   269  VAL269      0.1561
     99  C         95.9160   -4.2130   21.9400 C.2   269  VAL269      0.2260
    100  O         94.8060   -4.0270   22.4410 O.2   269  VAL269     -0.2867
    101  CB        95.7460   -3.8020   19.5290 C.3   269  VAL269      0.0252
    102  CG1       96.5780   -2.4990   19.8220 C.3   269  VAL269      0.0019
    103  CG2       95.9450   -4.3850   18.0770 C.3   269  VAL269      0.0019
    104  N         92.2980   -3.0010   21.3810 N.3   284  GLU284     -0.1245
    105  CA        91.5320   -3.2600   20.1510 C.3   284  GLU284      0.1567
    106  C         91.3450   -4.7380   19.9910 C.2   284  GLU284      0.2260
    107  O         92.1650   -5.5130   20.4630 O.2   284  GLU284     -0.2867
    108  CB        92.2160   -2.7170   18.8790 C.3   284  GLU284      0.0388
    109  CG        92.9150   -1.3830   19.0550 C.3   284  GLU284      0.1160
    110  CD        93.5170   -0.8400   17.7650 C.2   284  GLU284      0.3649
    111  OE1       93.8810   -1.6100   16.8210 O.co2 284  GLU284     -0.2457
    112  OE2       93.6470    0.3880   17.7140 O.co2 284  GLU284     -0.2457
    113  N         91.8480   -8.4550   10.3600 N.3   291  MET291     -0.1245
    114  CA        92.6660   -7.3870   10.9260 C.3   291  MET291      0.1570
    115  C         94.1630   -7.6750   10.7850 C.2   291  MET291      0.2261
    116  O         94.9140   -6.7960   10.3580 O.2   291  MET291     -0.2867
    117  CB        92.3280   -7.2130   12.4190 C.3   291  MET291      0.0387
    118  CG        92.9900   -6.0200   13.0580 C.3   291  MET291      0.0595
    119  SD        92.6020   -5.8380   14.8000 S.3   291  MET291     -0.1393
    120  CE        93.6160   -4.3880   15.1690 C.3   291  MET291      0.0692
    121  N         97.1760   -5.4170    9.0250 N.3   295  LEU295     -0.1245
    122  CA        98.2790   -4.8920    9.8290 C.3   295  LEU295      0.1561
    123  C         99.6050   -5.3690    9.2270 C.2   295  LEU295      0.2260
    124  O        100.5640   -4.5870    9.1350 O.2   295  LEU295     -0.2867
    125  CB        98.1440   -5.3110   11.3000 C.3   295  LEU295      0.0270
    126  CG        97.3950   -4.3680   12.2840 C.3   295  LEU295      0.0019
    127  CD1       96.1640   -3.8070   11.7100 C.3   295  LEU295      0.0001
    128  CD2       97.0570   -5.0890   13.6000 C.3   295  LEU295      0.0001
    129  N        100.5370   -3.4370    6.1840 N.3   298  TRP298     -0.1241
    130  CA       101.0900   -2.1410    6.6060 C.3   298  TRP298      0.1605
    131  C        102.5090   -2.1920    7.1800 C.2   298  TRP298      0.2264
    132  O        103.0660   -1.1740    7.5530 O.2   298  TRP298     -0.2867
    133  CB       100.1640   -1.5180    7.6480 C.3   298  TRP298      0.0550
    134  CG        98.8240   -1.0900    7.1070 C.ar  298  TRP298      0.0003
    135  CD1       98.4580   -0.9720    5.7950 C.ar  298  TRP298      0.0946
    136  CD2       97.6960   -0.6580    7.8750 C.ar  298  TRP298      0.0152
    137  NE1       97.1690   -0.5070    5.7040 N.ar  298  TRP298     -0.2442
    138  CE2       96.6800   -0.3110    6.9680 C.ar  298  TRP298      0.0810
    139  CE3       97.4420   -0.5580    9.2440 C.ar  298  TRP298      0.0012
    140  CZ2       95.4360    0.1350    7.3830 C.ar  298  TRP298      0.0191
    141  CZ3       96.2280   -0.0870    9.6540 C.ar  298  TRP298      0.0001
    142  CH2       95.2340    0.2570    8.7310 C.ar  298  TRP298      0.0015
    143  N        103.2620   -3.5720    9.9810 N.3   300  CYS300     -0.1221
    144  CA       103.2080   -3.6050   11.4410 C.3   300  CYS300      0.1808
    145  C        103.9030   -4.8430   11.9430 C.2   300  CYS300      0.2601
    146  O        103.8950   -5.8140   11.2620 O.2   300  CYS300     -0.2717
    147  CB       101.7630   -3.6490   11.9360 C.3   300  CYS300      0.0970
    148  SG       100.8130   -2.1610   11.6190 S.3   300  CYS300     -0.0800
    149  N        104.4860   -4.7870   13.1440 N.am  301  PHE301     -0.1976
    150  CA       105.0970   -5.9380   13.8220 C.3   301  PHE301      0.1639
    151  C        104.2560   -6.4500   14.9950 C.2   301  PHE301      0.2290
    152  O        103.7350   -5.6730   15.8150 O.2   301  PHE301     -0.2864
    153  CB       106.5060   -5.5830   14.3390 C.3   301  PHE301      0.0560
    154  CG       107.4000   -4.9720   13.2890 C.ar  301  PHE301     -0.0200
    155  CD1      107.3890   -5.4480   11.9680 C.ar  301  PHE301     -0.0042
    156  CD2      108.2490   -3.9210   13.6040 C.ar  301  PHE301     -0.0042
    157  CE1      108.2170   -4.8610   10.9830 C.ar  301  PHE301     -0.0003
    158  CE2      109.0770   -3.3620   12.6400 C.ar  301  PHE301     -0.0003
    159  CZ       109.0490   -3.8180   11.3350 C.ar  301  PHE301     -0.0000
@<TRIPOS>BOND
     1   137   135   ar
     2   137   138   ar
     3   135   134   ar
     4   129   130    1
     5     4     3    2
     6   130   131    1
     7   130   133    1
     8     3     2    1
     9   138   140   ar
    10   138   136   ar
    11   134   133    1
    12   134   136   ar
    13   131   132    2
    14   140   142   ar
    15   136   139   ar
    16    15    14    2
    17    29    28    2
    18     2     1    1
    19     2     5    1
    20   142   141   ar
    21    14    13    1
    22    35    34    1
    23   121   122    1
    24     5     6    1
    25   124   123    2
    26   123   122    1
    27   139   141   ar
    28    28    27    1
    29    28    37   am
    30    45    43   ar
    31    45    47   ar
    32    27    30    1
    33    27    26    1
    34    31    30    1
    35    31    32    1
    36    43    42   ar
    37    18    20   ar
    38    18    17   ar
    39   122   125    1
    40   143   144    1
    41    20    21   ar
    42    47    46   ar
    43    12    13    1
    44     6     7   ar
    45     6     8   ar
    46    34    36    1
    47    34    33    2
    48    38    37    1
    49    38    39    1
    50    38    41    1
    51    13    16    1
    52   116   115    2
    53   113   114    1
    54    32    33    1
    55    69    68    1
    56     7     9   ar
    57    42    41    1
    58    42    44   ar
    59   115   114    1
    60    17    16    1
    61    17    19   ar
    62   114   117    1
    63    39    40    2
    64   157   159   ar
    65   157   155   ar
    66    46    44   ar
    67     8    10   ar
    68   146   145    2
    69   125   126    1
    70   159   158   ar
    71    21    19   ar
    72    21    23   ar
    73   144   147    1
    74   144   145    1
    75     9    11   ar
    76   148   147    1
    77   127   126    1
    78    68    70    1
    79    68    67    2
    80    19    22   ar
    81   145   149   am
    82   155   154   ar
    83    23    25   ar
    84   126   128    1
    85    10    11   ar
    86    66    67    1
    87    66    65    1
    88   117   118    1
    89   158   156   ar
    90    51    50    2
    91   118   119    1
    92    64    65    1
    93    64    61    1
    94   149   150    1
    95    22    24   ar
    96   154   156   ar
    97   154   153    1
    98    25    24   ar
    99    63    62    2
   100   150   153    1
   101   150   151    1
   102    52    49    1
   103    52    53    1
   104    60    61    1
   105    50    49    1
   106    61    62    1
   107    48    49    1
   108    54    53   ar
   109    54    56   ar
   110    53    55   ar
   111   119   120    1
   112   151   152    2
   113    95    94    1
   114    56    58   ar
   115    55    57   ar
   116    58    57   ar
   117    58    59    1
   118    76    75    1
   119    75    72    1
   120    94    93    1
   121    94    96    1
   122   111   110   ar
   123    93    90    1
   124    72    71    1
   125    72    73    1
   126   112   110   ar
   127   110   109    1
   128   103   101    1
   129    91    90    1
   130    91    92    2
   131    90    89    1
   132    73    74    2
   133   108   109    1
   134   108   105    1
   135   101   102    1
   136   101    98    1
   137    84    86   ar
   138    84    82   ar
   139    86    87   ar
   140    81    82    1
   141    81    78    1
   142    82    83   ar
   143   106   105    1
   144   106   107    2
   145    87    88    1
   146    87    85   ar
   147   105   104    1
   148    83    85   ar
   149    97    98    1
   150    98    99    1
   151    80    79    2
   152    79    78    1
   153    78    77    1
   154    99   100    2
