@<TRIPOS>MOLECULE
tmp/2xlrC01.pdb
 247 245 0 0 0
SMALL
GASTEIGER

@<TRIPOS>ATOM
      1  N        -17.2010  -97.4000    3.3950 N.3    74  ASP74      -0.1225
      2  CA       -16.1510  -97.9080    4.2450 C.3    74  ASP74       0.1805
      3  C        -16.5620  -97.8340    5.7010 C.2    74  ASP74       0.2598
      4  O        -15.9940  -98.4850    6.5510 O.2    74  ASP74      -0.2718
      5  CB       -14.8370  -97.1300    4.0030 C.3    74  ASP74       0.1424
      6  CG       -14.9090  -95.6360    4.4460 C.2    74  ASP74       0.3668
      7  OD1      -13.8340  -94.9720    4.4220 O.co2  74  ASP74      -0.2456
      8  OD2      -16.0130  -95.1010    4.8110 O.co2  74  ASP74      -0.2456
      9  N        -17.5170  -96.9670    5.9660 N.am   75  GLY75      -0.1957
     10  CA       -18.0650  -96.7690    7.3040 C.3    75  GLY75       0.1869
     11  C        -19.5700  -96.9550    7.2800 C.2    75  GLY75       0.2309
     12  O        -20.1710  -97.1730    6.2330 O.2    75  GLY75      -0.2863
     13  N         -7.6650  -86.5380   -2.6130 N.3   166  PHE166     -0.1241
     14  CA        -7.4250  -87.9650   -2.7730 C.3   166  PHE166      0.1605
     15  C         -7.3350  -88.3520   -4.2110 C.2   166  PHE166      0.2264
     16  O         -7.7760  -89.4430   -4.5680 O.2   166  PHE166     -0.2867
     17  CB        -8.5000  -88.8420   -2.0630 C.3   166  PHE166      0.0534
     18  CG        -8.4890  -88.7060   -0.5650 C.ar  166  PHE166     -0.0203
     19  CD1       -7.2900  -88.7550    0.1400 C.ar  166  PHE166     -0.0042
     20  CD2       -9.6630  -88.4420    0.1310 C.ar  166  PHE166     -0.0042
     21  CE1       -7.2670  -88.5970    1.5600 C.ar  166  PHE166     -0.0003
     22  CE2       -9.6380  -88.2720    1.5380 C.ar  166  PHE166     -0.0003
     23  CZ        -8.4370  -88.3710    2.2650 C.ar  166  PHE166     -0.0000
     24  N          0.5980  -90.2770   -4.2800 N.3   170  TYR170     -0.1241
     25  CA         1.9500  -90.3370   -3.8030 C.3   170  TYR170      0.1605
     26  C          2.5230  -91.7080   -4.2450 C.2   170  TYR170      0.2264
     27  O          2.0050  -92.7580   -3.8800 O.2   170  TYR170     -0.2867
     28  CB         1.9980  -90.0850   -2.2790 C.3   170  TYR170      0.0534
     29  CG         3.3580  -90.2700   -1.7170 C.ar  170  TYR170     -0.0201
     30  CD1        4.3770  -89.3590   -2.0140 C.ar  170  TYR170     -0.0009
     31  CD2        3.6640  -91.3810   -0.9520 C.ar  170  TYR170     -0.0009
     32  CE1        5.6860  -89.5250   -1.5290 C.ar  170  TYR170      0.0417
     33  CE2        4.9500  -91.5910   -0.4530 C.ar  170  TYR170      0.0417
     34  CZ         5.9750  -90.6500   -0.7480 C.ar  170  TYR170      0.1957
     35  OH         7.2600  -90.8610   -0.2790 O.3   170  TYR170     -0.2866
     36  N          5.9210  -93.7370   -4.3710 N.3   172  PRO172     -0.2116
     37  CA         7.3500  -93.8560   -4.1140 C.3   172  PRO172      0.1372
     38  C          8.0220  -94.8490   -5.0530 C.2   172  PRO172      0.2244
     39  O          7.3690  -95.7090   -5.6360 O.2   172  PRO172     -0.2868
     40  CB         7.4010  -94.3620   -2.6640 C.3   172  PRO172      0.0268
     41  CG         6.0590  -95.0010   -2.4580 C.3   172  PRO172      0.0207
     42  CD         5.1130  -94.2150   -3.2580 C.3   172  PRO172      0.0892
     43  N         10.7110  -97.9660   -5.6620 N.3   174  PHE174     -0.1241
     44  CA        11.5260  -99.0120   -5.1100 C.3   174  PHE174      0.1605
     45  C         12.5550  -99.5630   -6.1270 C.2   174  PHE174      0.2264
     46  O         12.2890  -99.6210   -7.3360 O.2   174  PHE174     -0.2867
     47  CB        10.5960 -100.1080   -4.6770 C.3   174  PHE174      0.0534
     48  CG         9.8450  -99.7600   -3.4580 C.ar  174  PHE174     -0.0203
     49  CD1       10.2950 -100.1810   -2.2020 C.ar  174  PHE174     -0.0042
     50  CD2        8.6960  -98.9740   -3.5250 C.ar  174  PHE174     -0.0042
     51  CE1        9.6060  -99.8360   -1.0450 C.ar  174  PHE174     -0.0003
     52  CE2        8.0050  -98.6430   -2.3700 C.ar  174  PHE174     -0.0003
     53  CZ         8.4570  -99.0780   -1.1260 C.ar  174  PHE174     -0.0000
     54  N         -2.8720  -97.3760   -6.2290 N.3   187  ALA187     -0.1245
     55  CA        -4.3020  -97.5980   -5.8400 C.3   187  ALA187      0.1562
     56  C         -5.2690  -96.7470   -6.6340 C.2   187  ALA187      0.2260
     57  O         -6.3680  -97.1860   -6.9900 O.2   187  ALA187     -0.2867
     58  CB        -4.4770  -97.3350   -4.3660 C.3   187  ALA187      0.0290
     59  N          1.4790 -102.5390   -1.2630 N.3   204  VAL204     -0.1231
     60  CA         2.4220 -101.7910   -0.4660 C.3   204  VAL204      0.1692
     61  C          1.6610 -100.7080    0.2690 C.2   204  VAL204      0.2593
     62  O          0.9780  -99.9220   -0.3640 O.2   204  VAL204     -0.2718
     63  CB         3.4710 -101.1500   -1.3810 C.3   204  VAL204      0.0266
     64  CG1        4.5090 -100.4100   -0.6090 C.3   204  VAL204      0.0020
     65  CG2        4.1060 -102.2180   -2.2230 C.3   204  VAL204      0.0020
     66  N          1.7830 -100.6610    1.5850 N.am  205  GLY205     -0.1942
     67  CA         1.0870  -99.6910    2.4180 C.3   205  GLY205      0.2014
     68  C          0.1810 -100.3830    3.4150 C.2   205  GLY205      0.2640
     69  O         -0.1030 -101.5930    3.2930 O.2   205  GLY205     -0.2714
     70  N         -0.2830  -99.6400    4.4100 N.am  206  SER206     -0.1935
     71  CA        -0.9880 -100.2660    5.5200 C.3   206  SER206      0.2055
     72  C         -2.2170  -99.4740    5.9950 C.2   206  SER206      0.2644
     73  O         -2.6160  -99.5230    7.1750 O.2   206  SER206     -0.2714
     74  CB        -0.0350 -100.5800    6.6950 C.3   206  SER206      0.2130
     75  OG         0.6710  -99.4350    7.1300 O.3   206  SER206     -0.2179
     76  N         -2.8410  -98.7440    5.0760 N.am  207  SER207     -0.1935
     77  CA        -4.0100  -97.9670    5.4560 C.3   207  SER207      0.2055
     78  C         -5.2700  -98.4400    4.7290 C.2   207  SER207      0.2643
     79  O         -5.3300  -99.5930    4.3080 O.2   207  SER207     -0.2714
     80  CB        -3.7050  -96.5160    5.2280 C.3   207  SER207      0.2130
     81  OG        -4.7070  -95.7470    5.8220 O.3   207  SER207     -0.2179
     82  N         -6.2610  -97.5630    4.5700 N.am  208  TYR208     -0.1959
     83  CA        -7.5640  -97.9460    4.0100 C.3   208  TYR208      0.1771
     84  C         -7.5020  -98.5730    2.6490 C.2   208  TYR208      0.2620
     85  O         -8.1730  -99.5610    2.3970 O.2   208  TYR208     -0.2715
     86  CB        -8.5050  -96.7740    3.9470 C.3   208  TYR208      0.0574
     87  CG        -8.8750  -96.2630    5.3080 C.ar  208  TYR208     -0.0198
     88  CD1      -10.0560  -96.7150    5.9530 C.ar  208  TYR208     -0.0009
     89  CD2       -8.0740  -95.3210    5.9710 C.ar  208  TYR208     -0.0009
     90  CE1      -10.4330  -96.2370    7.2280 C.ar  208  TYR208      0.0417
     91  CE2       -8.4230  -94.8470    7.2420 C.ar  208  TYR208      0.0417
     92  CZ        -9.6010  -95.3140    7.8690 C.ar  208  TYR208      0.1957
     93  OH        -9.9420  -94.8300    9.1210 O.3   208  TYR208     -0.2866
     94  N         -6.7020  -97.9920    1.7700 N.am  209  SER209     -0.1950
     95  CA        -6.4910  -98.5480    0.4350 C.3   209  SER209      0.1924
     96  C         -6.0160  -99.9740    0.4460 C.2   209  SER209      0.2314
     97  O         -6.4750 -100.7700   -0.3360 O.2   209  SER209     -0.2863
     98  CB        -5.4270  -97.7600   -0.3070 C.3   209  SER209      0.2116
     99  OG        -5.9850  -96.6250   -0.7690 O.3   209  SER209     -0.2180
    100  N          4.3090 -103.3180    5.1380 N.3   229  TYR229     -0.1227
    101  CA         4.1420 -102.0850    5.8440 C.3   229  TYR229      0.1736
    102  C          5.4860 -101.4240    6.1020 C.2   229  TYR229      0.2595
    103  O          6.4630 -102.0880    6.3720 O.2   229  TYR229     -0.2718
    104  CB         3.3930 -102.3510    7.1540 C.3   229  TYR229      0.0548
    105  CG         4.0980 -103.3140    8.0690 C.ar  229  TYR229     -0.0200
    106  CD1        3.8410 -104.6750    7.9870 C.ar  229  TYR229     -0.0009
    107  CD2        5.0470 -102.8660    9.0240 C.ar  229  TYR229     -0.0009
    108  CE1        4.4910 -105.5780    8.8090 C.ar  229  TYR229      0.0417
    109  CE2        5.6990 -103.7670    9.8480 C.ar  229  TYR229      0.0417
    110  CZ         5.4110 -105.1220    9.7240 C.ar  229  TYR229      0.1957
    111  OH         6.0120 -106.0740   10.4980 O.3   229  TYR229     -0.2866
    112  N          5.5200 -100.1030    5.9820 N.am  230  ARG230     -0.1966
    113  CA         6.7220  -99.3240    6.2350 C.3   230  ARG230      0.1729
    114  C          7.0070  -99.2280    7.7400 C.2   230  ARG230      0.2617
    115  O          8.1130  -99.4680    8.1940 O.2   230  ARG230     -0.2715
    116  CB         6.5810  -97.9190    5.6520 C.3   230  ARG230      0.0348
    117  CG         7.7150  -96.9340    6.0150 C.3   230  ARG230      0.0492
    118  CD         7.6460  -95.6700    5.1990 C.3   230  ARG230      0.2205
    119  NE         6.5420  -94.8260    5.6390 N.pl3 230  ARG230     -0.0865
    120  CZ         6.0250  -93.8200    4.9290 C.cat 230  ARG230      0.5346
    121  NH1        6.5120  -93.5230    3.7360 N.pl3 230  ARG230      0.1354
    122  NH2        5.0050  -93.1100    5.3840 N.pl3 230  ARG230      0.1354
    123  N          6.0060  -98.8650    8.5180 N.am  231  THR231     -0.1937
    124  CA         6.2420  -98.6680    9.9360 C.3   231  THR231      0.2028
    125  C          5.5220  -99.6280   10.9190 C.2   231  THR231      0.2642
    126  O          6.1820 -100.2370   11.7520 O.2   231  THR231     -0.2714
    127  CB         6.0880  -97.1830   10.3710 C.3   231  THR231      0.1808
    128  OG1        5.4440  -97.1700   11.6370 O.3   231  THR231     -0.2208
    129  CG2        5.2470  -96.3910    9.4510 C.3   231  THR231      0.0379
    130  N          4.2010  -99.7810   10.8290 N.am  232  ALA232     -0.1977
    131  CA         3.5050 -100.8020   11.6490 C.3   232  ALA232      0.1597
    132  C          2.4780 -101.6700   10.8750 C.2   232  ALA232      0.2287
    133  O          1.8220 -101.1780    9.9360 O.2   232  ALA232     -0.2864
    134  CB         2.8520 -100.1570   12.8370 C.3   232  ALA232      0.0319
    135  N          8.5710 -104.0640    5.1720 N.3   247  ASN247     -0.1240
    136  CA         8.6150 -103.3560    3.9170 C.3   247  ASN247      0.1653
    137  C          9.3860 -104.0430    2.7790 C.2   247  ASN247      0.2266
    138  O         10.3540 -104.7440    3.0120 O.2   247  ASN247     -0.2867
    139  CB         9.0380 -101.8920    4.1100 C.3   247  ASN247      0.1155
    140  CG         8.3150 -100.9440    3.1170 C.2   247  ASN247      0.2627
    141  OD1        7.2980 -101.3200    2.4810 O.2   247  ASN247     -0.2716
    142  ND2        8.8190  -99.7070    3.0030 N.am  247  ASN247     -0.0877
    143  N         -0.3690  -98.7380   -2.4070 N.3   272  CYS272     -0.1221
    144  CA        -1.4270  -98.1180   -1.6420 C.3   272  CYS272      0.1808
    145  C         -0.8600  -97.0290   -0.6960 C.2   272  CYS272      0.2602
    146  O         -0.9710  -97.1120    0.5090 O.2   272  CYS272     -0.2717
    147  CB        -2.1760  -99.2150   -0.9070 C.3   272  CYS272      0.0970
    148  SG        -2.8960 -100.4680   -2.0490 S.3   272  CYS272     -0.0800
    149  N         -0.2560  -95.9960   -1.2890 N.am  273  THR273     -0.1939
    150  CA         0.6740  -95.1690   -0.5600 C.3   273  THR273      0.2028
    151  C          0.1960  -93.7900   -0.3310 C.2   273  THR273      0.2643
    152  O          0.9510  -92.9620    0.1630 O.2   273  THR273     -0.2714
    153  CB         2.0760  -95.1630   -1.1880 C.3   273  THR273      0.1808
    154  OG1        1.9510  -95.0890   -2.6040 O.3   273  THR273     -0.2208
    155  CG2        2.7800  -96.4720   -0.8300 C.3   273  THR273      0.0379
    156  N         -1.0540  -93.5330   -0.6790 N.am  274  GLY274     -0.1939
    157  CA        -1.6250  -92.2420   -0.4140 C.3   274  GLY274      0.2014
    158  C         -1.5960  -91.2130   -1.5340 C.2   274  GLY274      0.2638
    159  O         -1.3600  -91.5460   -2.6800 O.2   274  GLY274     -0.2714
    160  N         -1.8660  -89.9570   -1.1680 N.am  275  TYR275     -0.1973
    161  CA        -2.1370  -88.8630   -2.0950 C.3   275  TYR275      0.1639
    162  C         -1.4540  -87.6230   -1.6440 C.2   275  TYR275      0.2290
    163  O         -1.0730  -87.5150   -0.4880 O.2   275  TYR275     -0.2864
    164  CB        -3.6550  -88.6040   -2.2630 C.3   275  TYR275      0.0560
    165  CG        -4.3360  -89.7970   -2.8730 C.ar  275  TYR275     -0.0198
    166  CD1       -4.4410  -89.9580   -4.2780 C.ar  275  TYR275     -0.0009
    167  CD2       -4.8100  -90.8100   -2.0580 C.ar  275  TYR275     -0.0009
    168  CE1       -5.0260  -91.0840   -4.8190 C.ar  275  TYR275      0.0417
    169  CE2       -5.4010  -91.9380   -2.6080 C.ar  275  TYR275      0.0417
    170  CZ        -5.4980  -92.0660   -3.9880 C.ar  275  TYR275      0.1957
    171  OH        -6.0960  -93.1800   -4.5360 O.3   275  TYR275     -0.2866
    172  N         -1.5730  -84.9930    4.6200 N.3   292  ASN292     -0.1240
    173  CA        -2.9150  -85.3280    5.0330 C.3   292  ASN292      0.1653
    174  C         -3.0020  -85.4820    6.5540 C.2   292  ASN292      0.2266
    175  O         -2.3540  -86.3500    7.1150 O.2   292  ASN292     -0.2867
    176  CB        -3.3010  -86.6470    4.3930 C.3   292  ASN292      0.1155
    177  CG        -4.7720  -86.9120    4.5240 C.2   292  ASN292      0.2627
    178  OD1       -5.5780  -85.9970    4.3910 O.2   292  ASN292     -0.2716
    179  ND2       -5.1340  -88.1450    4.7980 N.am  292  ASN292     -0.0877
    180  N         -7.9880  -84.3740    6.6010 N.3   318  ASP318     -0.1225
    181  CA        -8.3040  -85.7960    6.6430 C.3   318  ASP318      0.1805
    182  C         -9.7890  -86.0460    7.0580 C.2   318  ASP318      0.2598
    183  O        -10.3430  -85.3410    7.8740 O.2   318  ASP318     -0.2718
    184  CB        -7.3990  -86.4820    7.6440 C.3   318  ASP318      0.1424
    185  CG        -7.2970  -87.9720    7.4130 C.2   318  ASP318      0.3668
    186  OD1       -7.8420  -88.4950    6.4140 O.co2 318  ASP318     -0.2456
    187  OD2       -6.6360  -88.6330    8.2240 O.co2 318  ASP318     -0.2456
    188  N        -10.4110  -87.0670    6.5300 N.am  319  GLN319     -0.1965
    189  CA       -11.8330  -87.1990    6.6700 C.3   319  GLN319      0.1733
    190  C        -12.2580  -88.3510    7.5520 C.2   319  GLN319      0.2616
    191  O        -12.3170  -89.4380    7.0790 O.2   319  GLN319     -0.2715
    192  CB       -12.4830  -87.2970    5.2620 C.3   319  GLN319      0.0408
    193  CG       -12.4440  -85.9080    4.5090 C.3   319  GLN319      0.0908
    194  CD       -12.5640  -85.9910    2.9620 C.2   319  GLN319      0.2608
    195  OE1      -12.8800  -87.0340    2.3950 O.2   319  GLN319     -0.2717
    196  NE2      -12.3430  -84.8710    2.2870 N.am  319  GLN319     -0.0878
    197  N        -12.5590  -88.1220    8.8280 N.am  320  TRP320     -0.1974
    198  CA       -13.1730  -89.1560    9.6630 C.3   320  TRP320      0.1640
    199  C        -14.6710  -89.0240    9.5190 C.2   320  TRP320      0.2290
    200  O        -15.3600  -89.9700    9.1610 O.2   320  TRP320     -0.2864
    201  CB       -12.7130  -89.0190   11.1050 C.3   320  TRP320      0.0576
    202  CG       -11.2510  -89.2820   11.2080 C.ar  320  TRP320      0.0006
    203  CD1      -10.2670  -88.6230   10.5380 C.ar  320  TRP320      0.0946
    204  CD2      -10.6040  -90.3030   11.9570 C.ar  320  TRP320      0.0152
    205  NE1       -9.0570  -89.1660   10.8210 N.ar  320  TRP320     -0.2442
    206  CE2       -9.2230  -90.1950   11.6950 C.ar  320  TRP320      0.0810
    207  CE3      -11.0530  -91.3080   12.8080 C.ar  320  TRP320      0.0012
    208  CZ2       -8.2770  -91.0300   12.2740 C.ar  320  TRP320      0.0191
    209  CZ3      -10.1200  -92.1660   13.3790 C.ar  320  TRP320      0.0001
    210  CH2       -8.7410  -92.0120   13.1160 C.ar  320  TRP320      0.0015
    211  N        -11.7880  -88.9620   16.3150 N.3   370  TYR370     -0.1241
    212  CA       -13.1950  -88.7370   16.0160 C.3   370  TYR370      0.1605
    213  C        -13.7350  -87.6560   16.8790 C.2   370  TYR370      0.2264
    214  O        -14.5070  -86.7910   16.4300 O.2   370  TYR370     -0.2867
    215  CB       -14.0580  -89.9420   16.3290 C.3   370  TYR370      0.0534
    216  CG       -14.0020  -90.8820   15.2750 C.ar  370  TYR370     -0.0201
    217  CD1      -14.5010  -90.5350   14.0260 C.ar  370  TYR370     -0.0009
    218  CD2      -13.4040  -92.0780   15.4690 C.ar  370  TYR370     -0.0009
    219  CE1      -14.4020  -91.3640   12.9730 C.ar  370  TYR370      0.0417
    220  CE2      -13.2970  -92.9550   14.4470 C.ar  370  TYR370      0.0417
    221  CZ       -13.7930  -92.5990   13.1770 C.ar  370  TYR370      0.1957
    222  OH       -13.6930  -93.4830   12.1400 O.3   370  TYR370     -0.2866
    223  N        -19.1350  -94.7560   15.2890 N.3   398  PHE398     -0.1241
    224  CA       -17.8120  -94.9620   14.7300 C.3   398  PHE398      0.1605
    225  C        -17.0220  -96.0020   15.5020 C.2   398  PHE398      0.2264
    226  O        -16.3930  -96.8510   14.9090 O.2   398  PHE398     -0.2867
    227  CB       -17.0130  -93.6460   14.6750 C.3   398  PHE398      0.0534
    228  CG       -17.2880  -92.8210   13.4540 C.ar  398  PHE398     -0.0203
    229  CD1      -17.1570  -93.3630   12.1870 C.ar  398  PHE398     -0.0042
    230  CD2      -17.6620  -91.4870   13.5560 C.ar  398  PHE398     -0.0042
    231  CE1      -17.3960  -92.5800   11.0110 C.ar  398  PHE398     -0.0003
    232  CE2      -17.9160  -90.7170   12.3820 C.ar  398  PHE398     -0.0003
    233  CZ       -17.7760  -91.2760   11.1210 C.ar  398  PHE398     -0.0000
    234  N        -18.0300  -99.5360   14.7790 N.3   401  TRP401     -0.1241
    235  CA       -17.5210  -99.9540   13.4950 C.3   401  TRP401      0.1605
    236  C        -16.0380 -100.3020   13.5660 C.2   401  TRP401      0.2264
    237  O        -15.6020 -101.2250   12.9480 O.2   401  TRP401     -0.2867
    238  CB       -17.7520  -98.8370   12.5010 C.3   401  TRP401      0.0550
    239  CG       -16.9310  -98.8690   11.2640 C.ar  401  TRP401      0.0003
    240  CD1      -17.0190  -99.7450   10.2350 C.ar  401  TRP401      0.0946
    241  CD2      -15.9230  -97.9540   10.9140 C.ar  401  TRP401      0.0152
    242  NE1      -16.1080  -99.4470    9.2690 N.ar  401  TRP401     -0.2442
    243  CE2      -15.4290  -98.3340    9.6590 C.ar  401  TRP401      0.0810
    244  CE3      -15.3690  -96.8580   11.5490 C.ar  401  TRP401      0.0012
    245  CZ2      -14.4140  -97.6370    9.0140 C.ar  401  TRP401      0.0191
    246  CZ3      -14.3670  -96.1800   10.9130 C.ar  401  TRP401      0.0001
    247  CH2      -13.8940  -96.5710    9.6490 C.ar  401  TRP401      0.0015
@<TRIPOS>BOND
     1    46    45    2
     2    57    56    2
     3    56    55    1
     4    54    55    1
     5    45    44    1
     6    55    58    1
     7    43    44    1
     8    39    38    2
     9    44    47    1
    10    38    37    1
    11   168   166   ar
    12   168   170   ar
    13    47    48    1
    14    16    15    2
    15   171   170    1
    16    36    37    1
    17    36    42    1
    18    24    25    1
    19   166   165   ar
    20    26    27    2
    21    26    25    1
    22    15    14    1
    23    37    40    1
    24   170   169   ar
    25    25    28    1
    26    50    48   ar
    27    50    52   ar
    28    48    49   ar
    29    42    41    1
    30   165   164    1
    31   165   167   ar
    32    14    13    1
    33    14    17    1
    34   159   158    2
    35    40    41    1
    36   169   167   ar
    37   154   153    1
    38   143   144    1
    39    52    53   ar
    40    28    29    1
    41   164   161    1
    42    65    63    1
    43    49    51   ar
    44   161   162    1
    45   161   160    1
    46    17    18    1
    47   148   147    1
    48    30    29   ar
    49    30    32   ar
    50    29    31   ar
    51   162   163    2
    52   144   147    1
    53   144   145    1
    54   158   160   am
    55   158   157    1
    56    32    34   ar
    57    63    64    1
    58    63    60    1
    59   149   145   am
    60   149   150    1
    61    59    60    1
    62   153   155    1
    63   153   150    1
    64    53    51   ar
    65    31    33   ar
    66    99    98    1
    67    34    33   ar
    68    34    35    1
    69   145   146    2
    70   156   157    1
    71   156   151   am
    72    18    20   ar
    73    18    19   ar
    74   150   151    1
    75    60    61    1
    76    62    61    2
    77    97    96    2
    78   151   152    2
    79    98    95    1
    80    20    22   ar
    81    19    21   ar
    82    61    66   am
    83    95    96    1
    84    95    94    1
    85    22    23   ar
    86    21    23   ar
    87    66    67    1
    88    94    84   am
    89   196   194   am
    90   195   194    2
    91    85    84    2
    92    67    68    1
    93   141   140    2
    94    84    83    1
    95   137   138    2
    96   137   136    1
    97   194   193    1
    98   142   140   am
    99   140   139    1
   100    69    68    2
   101     1     2    1
   102    68    70   am
   103   121   120    1
   104   136   139    1
   105   136   135    1
   106    86    83    1
   107    86    87    1
   108     5     2    1
   109     5     6    1
   110    83    82    1
   111     2     3    1
   112    79    78    2
   113   178   177    2
   114   176   177    1
   115   176   173    1
   116    70    71    1
   117     7     6   ar
   118     6     8   ar
   119   193   192    1
   120   177   179   am
   121    82    78   am
   122   172   173    1
   123    78    77    1
   124   120   122    1
   125   120   119    2
   126   173   174    1
   127    76    77    1
   128    76    72   am
   129   100   101    1
   130   118   119    1
   131   118   117    1
   132    80    77    1
   133    80    81    1
   134   192   189    1
   135    87    88   ar
   136    87    89   ar
   137    71    72    1
   138    71    74    1
   139   116   117    1
   140   116   113    1
   141     3     9   am
   142     3     4    2
   143   101   102    1
   144   101   104    1
   145    88    90   ar
   146     9    10    1
   147    89    91   ar
   148   112   102   am
   149   112   113    1
   150    72    73    2
   151   102   103    2
   152    12    11    2
   153   113   114    1
   154   186   185   ar
   155   188   189    1
   156   188   182   am
   157   174   175    2
   158   180   181    1
   159   181   182    1
   160   181   184    1
   161   189   190    1
   162    74    75    1
   163   182   183    2
   164   191   190    2
   165   104   105    1
   166    90    92   ar
   167    91    92   ar
   168    11    10    1
   169   185   184    1
   170   185   187   ar
   171   190   197   am
   172   114   115    2
   173   114   123   am
   174    92    93    1
   175   106   105   ar
   176   106   108   ar
   177   105   107   ar
   178   123   124    1
   179   108   110   ar
   180   197   198    1
   181   245   247   ar
   182   245   243   ar
   183   107   109   ar
   184   200   199    2
   185   242   243   ar
   186   242   240   ar
   187   129   127    1
   188   199   198    1
   189   247   246   ar
   190   243   241   ar
   191   198   201    1
   192   110   109   ar
   193   110   111    1
   194   133   132    2
   195   124   127    1
   196   124   125    1
   197   240   239   ar
   198   127   128    1
   199   203   205   ar
   200   203   202   ar
   201   205   206   ar
   202   130   125   am
   203   130   131    1
   204   132   131    1
   205   246   244   ar
   206   241   239   ar
   207   241   244   ar
   208   125   126    2
   209   231   233   ar
   210   231   229   ar
   211   201   202    1
   212   233   232   ar
   213   202   204   ar
   214   239   238    1
   215   131   134    1
   216   206   204   ar
   217   206   208   ar
   218   204   207   ar
   219   222   221    1
   220   229   228   ar
   221   208   210   ar
   222   232   230   ar
   223   238   235    1
   224   207   209   ar
   225   237   236    2
   226   219   221   ar
   227   219   217   ar
   228   210   209   ar
   229   221   220   ar
   230   228   230   ar
   231   228   227    1
   232   235   236    1
   233   235   234    1
   234   217   216   ar
   235   220   218   ar
   236   227   224    1
   237   224   223    1
   238   224   225    1
   239   226   225    2
   240   216   218   ar
   241   216   215    1
   242   212   211    1
   243   212   215    1
   244   212   213    1
   245   214   213    2
