@<TRIPOS>MOLECULE
tmp/2xlsB01.pdb
 176 170 0 0 0
SMALL
GASTEIGER

@<TRIPOS>ATOM
      1  N         68.4980   72.0380   27.1940 N.3    73  LYS73      -0.1245
      2  CA        67.8620   73.0880   27.9650 C.3    73  LYS73       0.1561
      3  C         67.9780   72.8900   29.4690 C.2    73  LYS73       0.2260
      4  O         67.7570   73.8210   30.2590 O.2    73  LYS73      -0.2867
      5  CB        66.4040   73.1740   27.5670 C.3    73  LYS73       0.0271
      6  CG        65.5410   72.1640   28.2100 C.3    73  LYS73       0.0035
      7  CD        64.1120   72.6920   28.1540 C.3    73  LYS73       0.0206
      8  CE        63.1780   71.8220   29.0390 C.3    73  LYS73       0.1093
      9  NZ        61.7940   72.4190   29.1710 N.3    73  LYS73      -0.1314
     10  N         54.9170   68.6330   20.2330 N.3   165  PHE165     -0.1241
     11  CA        55.5190   69.9560   20.0930 C.3   165  PHE165      0.1605
     12  C         55.7250   70.3320   18.6460 C.2   165  PHE165      0.2264
     13  O         56.6890   71.0210   18.3240 O.2   165  PHE165     -0.2867
     14  CB        56.8340   70.0580   20.8410 C.3   165  PHE165      0.0534
     15  CG        56.6920   70.0150   22.3180 C.ar  165  PHE165     -0.0203
     16  CD1       55.7210   70.7930   22.9670 C.ar  165  PHE165     -0.0042
     17  CD2       57.5220   69.1950   23.0830 C.ar  165  PHE165     -0.0042
     18  CE1       55.5780   70.7530   24.3620 C.ar  165  PHE165     -0.0003
     19  CE2       57.3790   69.1450   24.4800 C.ar  165  PHE165     -0.0003
     20  CZ        56.4030   69.9320   25.1230 C.ar  165  PHE165     -0.0000
     21  N         50.3610   76.3890   18.1890 N.3   169  TYR169     -0.1241
     22  CA        49.1680   77.0860   18.5350 C.3   169  TYR169      0.1605
     23  C         49.4990   78.5080   18.1680 C.2   169  TYR169      0.2264
     24  O         50.4650   79.0390   18.6720 O.2   169  TYR169     -0.2867
     25  CB        48.8920   76.9560   20.0100 C.3   169  TYR169      0.0534
     26  CG        47.8360   77.9130   20.4720 C.ar  169  TYR169     -0.0201
     27  CD1       46.5600   77.8840   19.9180 C.ar  169  TYR169     -0.0009
     28  CD2       48.1130   78.8670   21.4490 C.ar  169  TYR169     -0.0009
     29  CE1       45.5780   78.7710   20.3200 C.ar  169  TYR169      0.0417
     30  CE2       47.1330   79.7630   21.8770 C.ar  169  TYR169      0.0417
     31  CZ        45.8610   79.6990   21.3050 C.ar  169  TYR169      0.1957
     32  OH        44.8700   80.5660   21.7040 O.3   169  TYR169     -0.2866
     33  N         47.8040   82.1730   17.8940 N.3   171  PRO171     -0.2116
     34  CA        46.6590   83.0550   18.1260 C.3   171  PRO171      0.1372
     35  C         46.7700   84.2470   17.2710 C.2   171  PRO171      0.2244
     36  O         47.8630   84.5850   16.8920 O.2   171  PRO171     -0.2868
     37  CB        46.8080   83.4720   19.5850 C.3   171  PRO171      0.0268
     38  CG        48.1700   83.2850   19.9090 C.3   171  PRO171      0.0207
     39  CD        48.7040   82.1730   19.0580 C.3   171  PRO171      0.0892
     40  N         46.3470   88.3970   16.4900 N.3   173  PHE173     -0.1241
     41  CA        46.2510   89.6670   17.1640 C.3   173  PHE173      0.1605
     42  C         45.7580   90.6660   16.1640 C.2   173  PHE173      0.2264
     43  O         45.9930   90.5030   14.9550 O.2   173  PHE173     -0.2867
     44  CB        47.6120   90.0590   17.6740 C.3   173  PHE173      0.0534
     45  CG        48.0380   89.2740   18.8400 C.ar  173  PHE173     -0.0203
     46  CD1       47.8830   89.7770   20.1170 C.ar  173  PHE173     -0.0042
     47  CD2       48.5910   88.0210   18.6670 C.ar  173  PHE173     -0.0042
     48  CE1       48.2870   89.0500   21.2350 C.ar  173  PHE173     -0.0003
     49  CE2       49.0000   87.2660   19.7610 C.ar  173  PHE173     -0.0003
     50  CZ        48.8470   87.7750   21.0670 C.ar  173  PHE173     -0.0000
     51  N         57.3950   80.0970   16.6950 N.3   186  ALA186     -0.1245
     52  CA        58.6630   79.5380   17.1360 C.3   186  ALA186      0.1562
     53  C         59.0630   78.2650   16.3410 C.2   186  ALA186      0.2260
     54  O         60.2520   77.8530   16.2510 O.2   186  ALA186     -0.2867
     55  CB        58.5920   79.2390   18.6520 C.3   186  ALA186      0.0290
     56  N         56.3130   86.9420   21.4450 N.3   203  VAL203     -0.1231
     57  CA        55.0700   86.8330   22.2240 C.3   203  VAL203      0.1692
     58  C         55.0930   85.5240   23.0420 C.2   203  VAL203      0.2593
     59  O         55.0750   84.4420   22.4900 O.2   203  VAL203     -0.2718
     60  CB        53.8580   86.8380   21.2480 C.3   203  VAL203      0.0266
     61  CG1       52.5860   86.7950   21.9840 C.3   203  VAL203      0.0020
     62  CG2       53.9160   88.0160   20.3360 C.3   203  VAL203      0.0020
     63  N         55.1490   85.5920   24.3500 N.am  204  GLY204     -0.1942
     64  CA        55.0110   84.3610   25.1240 C.3   204  GLY204      0.2014
     65  C         55.9270   84.4500   26.3010 C.2   204  GLY204      0.2640
     66  O         56.7920   85.3080   26.3230 O.2   204  GLY204     -0.2714
     67  N         55.7630   83.5830   27.2780 N.am  205  SER205     -0.1935
     68  CA        56.6120   83.6750   28.4440 C.3   205  SER205      0.2055
     69  C         57.0470   82.2860   28.9430 C.2   205  SER205      0.2644
     70  O         57.1120   82.0130   30.1610 O.2   205  SER205     -0.2714
     71  CB        55.8870   84.4590   29.5280 C.3   205  SER205      0.2130
     72  OG        54.8550   83.6800   30.1220 O.3   205  SER205     -0.2179
     73  N         57.3600   81.3940   27.9960 N.am  206  SER206     -0.1935
     74  CA        57.8650   80.0660   28.3540 C.3   206  SER206      0.2055
     75  C         59.2230   79.7460   27.6920 C.2   206  SER206      0.2643
     76  O         59.9380   80.6470   27.1920 O.2   206  SER206     -0.2714
     77  CB        56.8110   79.0500   27.9770 C.3   206  SER206      0.2130
     78  OG        56.9270   77.9190   28.7640 O.3   206  SER206     -0.2179
     79  N         59.5820   78.4660   27.6690 N.am  207  TYR207     -0.1959
     80  CA        60.8930   78.0950   27.1980 C.3   207  TYR207      0.1771
     81  C         61.2200   78.5820   25.7820 C.2   207  TYR207      0.2620
     82  O         62.3050   79.0960   25.5690 O.2   207  TYR207     -0.2715
     83  CB        61.1310   76.6230   27.3560 C.3   207  TYR207      0.0574
     84  CG        62.4460   76.2090   26.7410 C.ar  207  TYR207     -0.0198
     85  CD1       62.4970   75.5900   25.4520 C.ar  207  TYR207     -0.0009
     86  CD2       63.6650   76.4580   27.4170 C.ar  207  TYR207     -0.0009
     87  CE1       63.7440   75.2280   24.8700 C.ar  207  TYR207      0.0417
     88  CE2       64.9000   76.0980   26.8540 C.ar  207  TYR207      0.0417
     89  CZ        64.9390   75.4950   25.6030 C.ar  207  TYR207      0.1957
     90  OH        66.1730   75.1650   25.1170 O.3   207  TYR207     -0.2866
     91  N         60.3060   78.4630   24.8220 N.am  208  SER208     -0.1950
     92  CA        60.5290   79.0240   23.4890 C.3   208  SER208      0.1924
     93  C         60.9490   80.4660   23.5470 C.2   208  SER208      0.2314
     94  O         61.9320   80.8310   22.9130 O.2   208  SER208     -0.2863
     95  CB        59.2620   78.9780   22.7020 C.3   208  SER208      0.2116
     96  OG        59.1450   77.7530   22.0170 O.3   208  SER208     -0.2180
     97  N         51.1960   87.1330   28.5600 N.3   229  ARG229     -0.1231
     98  CA        49.7690   87.1600   28.7220 C.3   229  ARG229      0.1694
     99  C         49.3730   87.0920   30.2090 C.2   229  ARG229      0.2592
    100  O         48.4040   87.7290   30.6200 O.2   229  ARG229     -0.2718
    101  CB        49.1450   86.0070   27.9390 C.3   229  ARG229      0.0321
    102  CG        47.7140   85.7460   28.2960 C.3   229  ARG229      0.0489
    103  CD        47.0900   84.7330   27.4020 C.3   229  ARG229      0.2205
    104  NE        47.3000   83.3790   27.8890 N.pl3 229  ARG229     -0.0865
    105  CZ        46.9470   82.2770   27.2250 C.cat 229  ARG229      0.5346
    106  NH1       46.3640   82.3640   26.0410 N.pl3 229  ARG229      0.1354
    107  NH2       47.1900   81.0830   27.7340 N.pl3 229  ARG229      0.1354
    108  N         50.1150   86.3240   31.0020 N.am  230  THR230     -0.1953
    109  CA        49.7660   86.1420   32.3990 C.3   230  THR230      0.1897
    110  C         50.7530   86.8080   33.3530 C.2   230  THR230      0.2313
    111  O         50.3850   87.6310   34.1620 O.2   230  THR230     -0.2863
    112  CB        49.7070   84.6480   32.7610 C.3   230  THR230      0.1794
    113  OG1       48.8110   84.0020   31.8780 O.3   230  THR230     -0.2208
    114  CG2       49.2430   84.4570   34.2060 C.3   230  THR230      0.0378
    115  N         51.0000   92.1540   27.6170 N.3   246  ASN246     -0.1240
    116  CA        50.6640   91.5990   26.3150 C.3   246  ASN246      0.1653
    117  C         50.4090   92.5740   25.1940 C.2   246  ASN246      0.2266
    118  O         50.0170   93.7060   25.4000 O.2   246  ASN246     -0.2867
    119  CB        49.4810   90.6360   26.4400 C.3   246  ASN246      0.1155
    120  CG        49.6180   89.3970   25.5240 C.2   246  ASN246      0.2627
    121  OD1       50.6830   89.1230   24.9590 O.2   246  ASN246     -0.2716
    122  ND2       48.5360   88.6510   25.3970 N.am  246  ASN246     -0.0877
    123  N         55.6420   82.7640   20.3040 N.3   271  CYS271     -0.1221
    124  CA        56.1980   81.6890   21.1020 C.3   271  CYS271      0.1808
    125  C         55.1090   81.1640   21.9990 C.2   271  CYS271      0.2602
    126  O         55.2840   81.0890   23.2380 O.2   271  CYS271     -0.2717
    127  CB        57.3690   82.1880   21.9580 C.3   271  CYS271      0.0970
    128  SG        58.8440   82.6550   20.9980 S.3   271  CYS271     -0.0800
    129  N         54.0020   80.7920   21.3710 N.am  272  THR272     -0.1939
    130  CA        52.7600   80.5560   22.0680 C.3   272  THR272      0.2028
    131  C         52.4400   79.0640   22.2900 C.2   272  THR272      0.2643
    132  O         51.2800   78.7310   22.6290 O.2   272  THR272     -0.2714
    133  CB        51.6750   81.1390   21.2350 C.3   272  THR272      0.1808
    134  OG1       51.9850   80.8220   19.8920 O.3   272  THR272     -0.2208
    135  CG2       51.7030   82.6350   21.3030 C.3   272  THR272      0.0379
    136  N         53.4380   78.1700   22.1330 N.am  273  GLY273     -0.1939
    137  CA        53.2140   76.7240   22.3060 C.3   273  GLY273      0.2014
    138  C         52.5720   75.9820   21.1230 C.2   273  GLY273      0.2638
    139  O         52.3780   76.5320   20.0060 O.2   273  GLY273     -0.2714
    140  N         52.2190   74.7270   21.4080 N.am  274  TYR274     -0.1973
    141  CA        51.7550   73.7650   20.4130 C.3   274  TYR274      0.1639
    142  C         50.4270   73.1110   20.8120 C.2   274  TYR274      0.2290
    143  O         49.9670   73.2630   21.9580 O.2   274  TYR274     -0.2864
    144  CB        52.8360   72.7020   20.2460 C.3   274  TYR274      0.0560
    145  CG        54.1400   73.2890   19.8080 C.ar  274  TYR274     -0.0198
    146  CD1       54.4240   73.4650   18.4510 C.ar  274  TYR274     -0.0009
    147  CD2       55.0810   73.6870   20.7470 C.ar  274  TYR274     -0.0009
    148  CE1       55.6120   74.0210   18.0410 C.ar  274  TYR274      0.0417
    149  CE2       56.2820   74.2420   20.3610 C.ar  274  TYR274      0.0417
    150  CZ        56.5470   74.4070   18.9970 C.ar  274  TYR274      0.1957
    151  OH        57.7570   74.9650   18.5710 O.3   274  TYR274     -0.2866
    152  N         48.8320   71.1100   27.2080 N.3   291  ASN291     -0.1240
    153  CA        50.1060   70.6670   27.7150 C.3   291  ASN291      0.1653
    154  C         50.1930   70.5830   29.2450 C.2   291  ASN291      0.2266
    155  O         50.1770   71.6030   29.8720 O.2   291  ASN291     -0.2867
    156  CB        51.1750   71.6110   27.1820 C.3   291  ASN291      0.1155
    157  CG        52.5350   70.9810   27.1960 C.2   291  ASN291      0.2627
    158  OD1       52.6730   69.7440   27.4070 O.2   291  ASN291     -0.2716
    159  ND2       53.5540   71.7960   26.9800 N.am  291  ASN291     -0.0877
    160  N         53.8900   66.8930   29.6300 N.3   317  ASP317     -0.1225
    161  CA        54.8090   68.0030   29.6030 C.3   317  ASP317      0.1805
    162  C         56.1040   67.4760   30.1530 C.2   317  ASP317      0.2597
    163  O         56.1080   66.5610   30.9740 O.2   317  ASP317     -0.2718
    164  CB        54.3240   69.1350   30.4980 C.3   317  ASP317      0.1424
    165  CG        54.9350   70.4960   30.1050 C.2   317  ASP317      0.3668
    166  OD1       55.3990   70.6760   28.9400 O.co2 317  ASP317     -0.2456
    167  OD2       54.9610   71.4020   30.9660 O.co2 317  ASP317     -0.2456
    168  N         57.2100   68.0650   29.7350 N.am  318  GLN318     -0.1979
    169  CA        58.5100   67.4770   29.9970 C.3   318  GLN318      0.1601
    170  C         59.4750   68.2210   30.9160 C.2   318  GLN318      0.2287
    171  O         60.0710   69.2000   30.5140 O.2   318  GLN318     -0.2864
    172  CB        59.1570   67.2280   28.6510 C.3   318  GLN318      0.0394
    173  CG        58.6300   65.9380   28.0770 C.3   318  GLN318      0.0908
    174  CD        58.5100   65.9410   26.5920 C.2   318  GLN318      0.2608
    175  OE1       59.3590   66.5070   25.8700 O.2   318  GLN318     -0.2717
    176  NE2       57.4570   65.2700   26.1040 N.am  318  GLN318     -0.0878
@<TRIPOS>BOND
     1    43    42    2
     2    42    41    1
     3    54    53    2
     4    53    52    1
     5    40    41    1
     6    51    52    1
     7    36    35    2
     8    52    55    1
     9    41    44    1
    10    35    34    1
    11    44    45    1
    12    33    34    1
    13    33    39    1
    14   148   146   ar
    15   148   150   ar
    16    34    37    1
    17    23    22    1
    18    23    24    2
    19    21    22    1
    20    13    12    2
    21   146   145   ar
    22    22    25    1
    23   151   150    1
    24    12    11    1
    25    47    45   ar
    26    47    49   ar
    27    45    46   ar
    28   150   149   ar
    29    39    38    1
    30    37    38    1
    31    49    50   ar
    32   145   144    1
    33   145   147   ar
    34   134   133    1
    35    27    29   ar
    36    27    26   ar
    37   139   138    2
    38    25    26    1
    39    11    10    1
    40    11    14    1
    41    46    48   ar
    42   144   141    1
    43   123   124    1
    44    29    31   ar
    45    62    60    1
    46   149   147   ar
    47   141   142    1
    48   141   140    1
    49    26    28   ar
    50   142   143    2
    51    14    15    1
    52   128   127    1
    53    50    48   ar
    54   124   127    1
    55   124   125    1
    56   138   140   am
    57   138   137    1
    58   133   135    1
    59   133   130    1
    60    60    61    1
    61    60    57    1
    62    31    32    1
    63    31    30   ar
    64   129   125   am
    65   129   130    1
    66    56    57    1
    67    28    30   ar
    68   125   126    2
    69    96    95    1
    70   130   131    1
    71   136   131   am
    72   136   137    1
    73    57    58    1
    74   131   132    2
    75    15    16   ar
    76    15    17   ar
    77    59    58    2
    78    95    92    1
    79    94    93    2
    80    16    18   ar
    81    58    63   am
    82    17    19   ar
    83    92    93    1
    84    92    91    1
    85    63    64    1
    86    18    20   ar
    87    19    20   ar
    88    91    81   am
    89    87    85   ar
    90    87    89   ar
    91   121   120    2
    92    90    89    1
    93    64    65    1
    94   117   118    2
    95   117   116    1
    96   122   120   am
    97    85    84   ar
    98   120   119    1
    99    82    81    2
   100    89    88   ar
   101    81    80    1
   102   175   174    2
   103   106   105    1
   104   176   174   am
   105    65    66    2
   106    65    67   am
   107   116   119    1
   108   116   115    1
   109   174   173    1
   110    84    83    1
   111    84    86   ar
   112    88    86   ar
   113   159   157   am
   114   156   157    1
   115   156   153    1
   116    76    75    2
   117     1     2    1
   118   157   158    2
   119    80    83    1
   120    80    79    1
   121   152   153    1
   122   105   107    1
   123   105   104    2
   124    67    68    1
   125   103   104    1
   126   103   102    1
   127     5     2    1
   128     5     6    1
   129    79    75   am
   130    75    74    1
   131   153   154    1
   132   101   102    1
   133   101    98    1
   134     2     3    1
   135    77    74    1
   136    77    78    1
   137    73    74    1
   138    73    69   am
   139   173   172    1
   140     7     6    1
   141     7     8    1
   142    68    69    1
   143    68    71    1
   144    97    98    1
   145   172   169    1
   146    98    99    1
   147   166   165   ar
   148    69    70    2
   149     8     9    1
   150   154   155    2
   151     3     4    2
   152    71    72    1
   153   161   160    1
   154   161   162    1
   155   161   164    1
   156   168   169    1
   157   168   162   am
   158   169   170    1
   159   165   164    1
   160   165   167   ar
   161   162   163    2
   162    99   100    2
   163    99   108   am
   164   171   170    2
   165   108   109    1
   166   113   112    1
   167   109   112    1
   168   109   110    1
   169   112   114    1
   170   110   111    2
