@<TRIPOS>MOLECULE
tmp/2xm1B00.pdb
 159 153 0 0 0
SMALL
GASTEIGER

@<TRIPOS>ATOM
      1  N          1.2900  -39.3840   36.1450 N.3   131  GLY131     -0.1210
      2  CA         1.8670  -38.2280   35.4610 C.3   131  GLY131      0.1956
      3  C          1.5810  -36.8610   36.0560 C.2   131  GLY131      0.2612
      4  O          1.7390  -35.8420   35.3820 O.2   131  GLY131     -0.2717
      5  N          1.1850  -36.8420   37.3230 N.am  132  PHE132     -0.1962
      6  CA         0.7160  -35.6250   37.9900 C.3   132  PHE132      0.1771
      7  C          1.8400  -34.8500   38.6940 C.2   132  PHE132      0.2619
      8  O          2.9710  -35.3610   38.8620 O.2   132  PHE132     -0.2715
      9  CB        -0.3940  -35.9900   39.0000 C.3   132  PHE132      0.0574
     10  CG         0.0070  -37.0910   39.9750 C.ar  132  PHE132     -0.0200
     11  CD1        0.8980  -36.8290   41.0350 C.ar  132  PHE132     -0.0042
     12  CD2       -0.4900  -38.3940   39.8190 C.ar  132  PHE132     -0.0042
     13  CE1        1.2840  -37.8590   41.9200 C.ar  132  PHE132     -0.0003
     14  CE2       -0.1080  -39.4270   40.7090 C.ar  132  PHE132     -0.0003
     15  CZ         0.7810  -39.1490   41.7530 C.ar  132  PHE132     -0.0000
     16  N          1.5200  -33.6160   39.0990 N.am  133  TYR133     -0.1974
     17  CA         2.3560  -32.8320   40.0260 C.3   133  TYR133      0.1639
     18  C          1.9310  -33.1620   41.4500 C.2   133  TYR133      0.2290
     19  O          0.7560  -33.3810   41.7080 O.2   133  TYR133     -0.2864
     20  CB         2.2000  -31.3290   39.7820 C.3   133  TYR133      0.0560
     21  CG         2.7670  -30.8760   38.4560 C.ar  133  TYR133     -0.0198
     22  CD1        4.1180  -30.5860   38.3220 C.ar  133  TYR133     -0.0009
     23  CD2        1.9450  -30.7530   37.3360 C.ar  133  TYR133     -0.0009
     24  CE1        4.6580  -30.1690   37.0840 C.ar  133  TYR133      0.0417
     25  CE2        2.4650  -30.3630   36.0970 C.ar  133  TYR133      0.0417
     26  CZ         3.8110  -30.0790   35.9880 C.ar  133  TYR133      0.1957
     27  OH         4.2990  -29.6930   34.7740 O.3   133  TYR133     -0.2866
     28  N          5.7560  -35.9870   37.7860 N.3   162  LYS162     -0.1245
     29  CA         6.4140  -34.7320   37.4440 C.3   162  LYS162      0.1561
     30  C          7.4860  -34.3540   38.4600 C.2   162  LYS162      0.2260
     31  O          8.5010  -33.7380   38.0960 O.2   162  LYS162     -0.2867
     32  CB         5.3870  -33.5890   37.3770 C.3   162  LYS162      0.0271
     33  CG         4.5030  -33.5880   36.1270 C.3   162  LYS162      0.0035
     34  CD         5.3130  -33.1850   34.8630 C.3   162  LYS162      0.0206
     35  CE         4.3740  -32.9730   33.6370 C.3   162  LYS162      0.1093
     36  NZ         3.8970  -34.2840   33.0810 N.3   162  LYS162     -0.1314
     37  N          5.6160  -32.3120   27.5570 N.3   238  ASP238     -0.1225
     38  CA         4.4790  -31.4850   27.9810 C.3   238  ASP238      0.1805
     39  C          4.8650  -30.4600   29.0390 C.2   238  ASP238      0.2597
     40  O          5.7380  -30.7350   29.8890 O.2   238  ASP238     -0.2718
     41  CB         3.3740  -32.3810   28.5620 C.3   238  ASP238      0.1424
     42  CG         3.8720  -33.2590   29.7230 C.2   238  ASP238      0.3668
     43  OD1        3.1530  -33.3640   30.7420 O.co2 238  ASP238     -0.2456
     44  OD2        4.9880  -33.8260   29.6250 O.co2 238  ASP238     -0.2456
     45  N          4.2130  -29.3070   29.0140 N.am  239  ASP239     -0.1974
     46  CA         4.3600  -28.3200   30.0730 C.3   239  ASP239      0.1709
     47  C          5.8130  -27.8460   30.2210 C.2   239  ASP239      0.2293
     48  O          6.3020  -27.6420   31.3130 O.2   239  ASP239     -0.2864
     49  CB         3.8320  -28.8800   31.3980 C.3   239  ASP239      0.1436
     50  CG         3.1440  -27.8320   32.2590 C.2   239  ASP239      0.3671
     51  OD1        3.0190  -26.6740   31.8200 O.co2 239  ASP239     -0.2456
     52  OD2        2.7360  -28.1720   33.3890 O.co2 239  ASP239     -0.2456
     53  N          4.7080  -37.8450   24.5110 N.3   274  CYS274     -0.1235
     54  CA         3.7000  -36.8460   24.8170 C.3   274  CYS274      0.1677
     55  C          4.1380  -35.5240   24.1860 C.2   274  CYS274      0.2270
     56  O          5.2270  -35.0230   24.4920 O.2   274  CYS274     -0.2867
     57  CB         3.4960  -36.6390   26.3280 C.3   274  CYS274      0.0956
     58  SG         2.0810  -35.4980   26.6360 S.3   274  CYS274     -0.0801
     59  N         -0.5110  -30.7190   23.3480 N.3   278  TYR278     -0.1241
     60  CA        -1.1850  -31.9620   23.7250 C.3   278  TYR278      0.1605
     61  C         -2.6930  -31.7920   23.8940 C.2   278  TYR278      0.2264
     62  O         -3.3750  -32.7110   24.3390 O.2   278  TYR278     -0.2867
     63  CB        -0.5510  -32.6170   24.9680 C.3   278  TYR278      0.0534
     64  CG        -0.4460  -31.7100   26.1570 C.ar  278  TYR278     -0.0201
     65  CD1       -1.5200  -31.5790   27.0460 C.ar  278  TYR278     -0.0009
     66  CD2        0.7150  -30.9890   26.4060 C.ar  278  TYR278     -0.0009
     67  CE1       -1.4370  -30.7480   28.1370 C.ar  278  TYR278      0.0417
     68  CE2        0.8050  -30.1610   27.4910 C.ar  278  TYR278      0.0417
     69  CZ        -0.2590  -30.0510   28.3520 C.ar  278  TYR278      0.1957
     70  OH        -0.1330  -29.2090   29.4180 O.3   278  TYR278     -0.2866
     71  N         -4.6480  -35.0940   25.2740 N.3   306  THR306     -0.1218
     72  CA        -5.5990  -34.9350   26.4000 C.3   306  THR306      0.1862
     73  C         -7.0070  -34.4580   25.9680 C.2   306  THR306      0.2287
     74  O         -7.9040  -34.3000   26.7990 O.2   306  THR306     -0.2866
     75  CB        -5.0330  -33.9970   27.5320 C.3   306  THR306      0.1770
     76  OG1       -5.0440  -32.6260   27.0950 O.3   306  THR306     -0.2211
     77  CG2       -3.6000  -34.3640   27.9270 C.3   306  THR306      0.0375
     78  N         -6.8290  -29.0220   28.1360 N.3   310  VAL310     -0.1231
     79  CA        -5.9890  -29.6480   29.1510 C.3   310  VAL310      0.1692
     80  C         -6.8110  -30.6770   29.9180 C.2   310  VAL310      0.2591
     81  O         -6.4290  -31.8480   30.0060 O.2   310  VAL310     -0.2718
     82  CB        -5.3780  -28.5950   30.1080 C.3   310  VAL310      0.0266
     83  CG1       -4.5380  -29.2780   31.2250 C.3   310  VAL310      0.0020
     84  CG2       -4.5300  -27.6420   29.3280 C.3   310  VAL310      0.0020
     85  N         -7.9680  -30.2520   30.4300 N.am  311  ILE311     -0.1980
     86  CA        -8.8680  -31.1850   31.0750 C.3   311  ILE311      0.1595
     87  C        -10.1200  -31.2760   30.2430 C.2   311  ILE311      0.2287
     88  O        -10.8850  -30.2990   30.1530 O.2   311  ILE311     -0.2864
     89  CB        -9.2750  -30.7500   32.5070 C.3   311  ILE311      0.0276
     90  CG1       -8.1200  -30.0480   33.2410 C.3   311  ILE311      0.0022
     91  CG2       -9.8300  -31.9710   33.2690 C.3   311  ILE311      0.0022
     92  CD1       -6.9160  -30.9690   33.5660 C.3   311  ILE311      0.0001
     93  N         -4.3950  -39.4520   26.8800 N.3   333  TRP333     -0.1241
     94  CA        -3.9970  -39.1360   28.2550 C.3   333  TRP333      0.1605
     95  C         -5.1820  -38.3610   28.8200 C.2   333  TRP333      0.2264
     96  O         -5.3800  -37.1970   28.4910 O.2   333  TRP333     -0.2867
     97  CB        -2.7150  -38.2950   28.2440 C.3   333  TRP333      0.0550
     98  CG        -2.2060  -37.6980   29.5820 C.ar  333  TRP333      0.0003
     99  CD1       -2.9570  -37.1720   30.6130 C.ar  333  TRP333      0.0946
    100  CD2       -0.8230  -37.5410   29.9790 C.ar  333  TRP333      0.0152
    101  NE1       -2.1180  -36.7190   31.6180 N.ar  333  TRP333     -0.2442
    102  CE2       -0.8140  -36.9340   31.2530 C.ar  333  TRP333      0.0810
    103  CE3        0.4040  -37.8840   29.3830 C.ar  333  TRP333      0.0012
    104  CZ2        0.3660  -36.6610   31.9470 C.ar  333  TRP333      0.0191
    105  CZ3        1.5890  -37.5930   30.0690 C.ar  333  TRP333      0.0001
    106  CH2        1.5620  -36.9860   31.3390 C.ar  333  TRP333      0.0015
    107  N         -7.1120  -36.5350   31.6820 N.3   335  ASN335     -0.1240
    108  CA        -6.8230  -35.8390   32.9380 C.3   335  ASN335      0.1653
    109  C         -7.9640  -35.8390   33.9730 C.2   335  ASN335      0.2266
    110  O         -8.4570  -34.8040   34.3560 O.2   335  ASN335     -0.2867
    111  CB        -6.2930  -34.4260   32.6740 C.3   335  ASN335      0.1155
    112  CG        -4.8090  -34.4090   32.3670 C.2   335  ASN335      0.2627
    113  OD1       -4.0320  -35.0650   33.0280 O.2   335  ASN335     -0.2716
    114  ND2       -4.4280  -33.6670   31.3550 N.am  335  ASN335     -0.0877
    115  N         -7.0580  -36.7690   38.1950 N.3   338  VAL338     -0.1245
    116  CA        -5.9770  -35.9200   38.6730 C.3   338  VAL338      0.1561
    117  C         -6.5160  -34.6400   39.3210 C.2   338  VAL338      0.2260
    118  O         -7.3450  -33.9790   38.7600 O.2   338  VAL338     -0.2867
    119  CB        -4.9320  -35.5930   37.5780 C.3   338  VAL338      0.0252
    120  CG1       -5.5890  -34.9850   36.3290 C.3   338  VAL338      0.0019
    121  CG2       -3.8260  -34.6970   38.1390 C.3   338  VAL338      0.0019
    122  N         -4.3150  -32.2960   40.8460 N.3   340  ASP340     -0.1225
    123  CA        -3.0900  -31.5610   41.1810 C.3   340  ASP340      0.1805
    124  C         -3.2430  -30.0280   41.0370 C.2   340  ASP340      0.2597
    125  O         -2.3560  -29.2690   41.4320 O.2   340  ASP340     -0.2718
    126  CB        -1.8360  -32.1150   40.4460 C.3   340  ASP340      0.1424
    127  CG        -1.8620  -31.8950   38.9360 C.2   340  ASP340      0.3668
    128  OD1       -2.6750  -31.0710   38.4600 O.co2 340  ASP340     -0.2456
    129  OD2       -1.0330  -32.5530   38.2190 O.co2 340  ASP340     -0.2456
    130  N         -4.3730  -29.6000   40.4830 N.am  341  TYR341     -0.1976
    131  CA        -4.6650  -28.1780   40.3220 C.3   341  TYR341      0.1639
    132  C         -5.8850  -27.7600   41.1990 C.2   341  TYR341      0.2290
    133  O         -6.2590  -26.5750   41.2310 O.2   341  TYR341     -0.2864
    134  CB        -4.8740  -27.8280   38.8330 C.3   341  TYR341      0.0560
    135  CG        -6.0300  -28.5870   38.1860 C.ar  341  TYR341     -0.0198
    136  CD1       -5.8580  -29.8930   37.7130 C.ar  341  TYR341     -0.0009
    137  CD2       -7.3070  -28.0050   38.0740 C.ar  341  TYR341     -0.0009
    138  CE1       -6.9100  -30.5990   37.1420 C.ar  341  TYR341      0.0417
    139  CE2       -8.3800  -28.7170   37.4870 C.ar  341  TYR341      0.0417
    140  CZ        -8.1720  -30.0060   37.0250 C.ar  341  TYR341      0.1957
    141  OH        -9.2190  -30.7120   36.4570 O.3   341  TYR341     -0.2866
    142  N         -4.7910  -40.2060   34.1650 N.3   368  ASN368     -0.1240
    143  CA        -3.8860  -39.5110   35.0490 C.3   368  ASN368      0.1653
    144  C         -4.6320  -39.2610   36.3510 C.2   368  ASN368      0.2266
    145  O         -5.5670  -38.4880   36.3730 O.2   368  ASN368     -0.2867
    146  CB        -3.4810  -38.1880   34.4220 C.3   368  ASN368      0.1155
    147  CG        -2.3580  -37.5120   35.1640 C.2   368  ASN368      0.2627
    148  OD1       -1.5560  -38.1570   35.8150 O.2   368  ASN368     -0.2716
    149  ND2       -2.2890  -36.2060   35.0440 N.am  368  ASN368     -0.0877
    150  N         -9.0850  -24.3890   34.7620 N.3   429  HIS429     -0.1241
    151  CA        -9.3400  -25.2250   33.5900 C.3   429  HIS429      0.1621
    152  C        -10.8010  -25.2950   33.2160 C.2   429  HIS429      0.2264
    153  O        -11.1440  -25.9120   32.2050 O.2   429  HIS429     -0.2867
    154  CB        -8.7910  -26.6420   33.7900 C.3   429  HIS429      0.0745
    155  CG        -7.3050  -26.6910   33.8390 C.ar  429  HIS429      0.0817
    156  ND1       -6.5170  -26.0520   32.9090 N.ar  429  HIS429     -0.2268
    157  CD2       -6.4580  -27.2710   34.7180 C.ar  429  HIS429      0.1154
    158  CE1       -5.2440  -26.2510   33.2020 C.ar  429  HIS429      0.1986
    159  NE2       -5.1820  -26.9840   34.3000 N.ar  429  HIS429     -0.2212
@<TRIPOS>BOND
     1    59    60    1
     2    60    61    1
     3    60    63    1
     4    61    62    2
     5    55    56    2
     6    55    54    1
     7    53    54    1
     8    54    57    1
     9    63    64    1
    10    71    72    1
    11    73    72    1
    12    73    74    2
    13    64    66   ar
    14    64    65   ar
    15    57    58    1
    16    72    75    1
    17    66    68   ar
    18    93    94    1
    19    65    67   ar
    20    76    75    1
    21    68    69   ar
    22    75    77    1
    23    37    38    1
    24    38    41    1
    25    38    39    1
    26    78    79    1
    27    67    69   ar
    28    97    94    1
    29    97    98    1
    30    94    95    1
    31    69    70    1
    32    96    95    2
    33    41    42    1
    34    45    39   am
    35    45    46    1
    36    39    40    2
    37    79    80    1
    38    79    82    1
    39    84    82    1
    40   103   100   ar
    41   103   105   ar
    42    98   100   ar
    43    98    99   ar
    44    44    42   ar
    45    42    43   ar
    46    80    81    2
    47    80    85   am
    48   100   102   ar
    49   105   106   ar
    50    46    47    1
    51    46    49    1
    52    82    83    1
    53    88    87    2
    54    47    48    2
    55    87    86    1
    56    85    86    1
    57    99   101   ar
    58    86    89    1
    59   102   101   ar
    60   102   104   ar
    61   106   104   ar
    62   114   112   am
    63    49    50    1
    64   107   108    1
    65    51    50   ar
    66   153   152    2
    67    50    52   ar
    68   112   111    1
    69   112   113    2
    70    89    90    1
    71    89    91    1
    72   111   108    1
    73   156   158   ar
    74   156   155   ar
    75   108   109    1
    76    36    35    1
    77   158   159   ar
    78   152   151    1
    79    90    92    1
    80   151   154    1
    81   151   150    1
    82    35    34    1
    83   154   155    1
    84   155   157   ar
    85   109   110    2
    86   142   143    1
    87   159   157   ar
    88   146   143    1
    89   146   147    1
    90    27    26    1
    91    34    33    1
    92   149   147   am
    93   143   144    1
    94   147   148    2
    95     4     3    2
    96     2     3    1
    97     2     1    1
    98    26    25   ar
    99    26    24   ar
   100     3     5   am
   101    25    23   ar
   102    33    32    1
   103   120   119    1
   104   144   145    2
   105   141   140    1
   106   140   138   ar
   107   140   139   ar
   108    24    22   ar
   109   138   136   ar
   110     5     6    1
   111    23    21   ar
   112    32    29    1
   113    29    28    1
   114    29    30    1
   115   139   137   ar
   116   119   121    1
   117   119   116    1
   118   136   135   ar
   119     6     7    1
   120     6     9    1
   121   137   135   ar
   122    31    30    2
   123   135   134    1
   124   115   116    1
   125   129   127   ar
   126    22    21   ar
   127    21    20    1
   128   128   127   ar
   129   116   117    1
   130     7     8    2
   131     7    16   am
   132   118   117    2
   133   134   131    1
   134   127   126    1
   135     9    10    1
   136    16    17    1
   137    20    17    1
   138    12    10   ar
   139    12    14   ar
   140    10    11   ar
   141    17    18    1
   142   131   130    1
   143   131   132    1
   144   126   123    1
   145   130   124   am
   146    14    15   ar
   147   122   123    1
   148    11    13   ar
   149   124   123    1
   150   124   125    2
   151   132   133    2
   152    18    19    2
   153    15    13   ar
