@<TRIPOS>MOLECULE
tmp/2xm2A00.pdb
 173 168 0 0 0
SMALL
GASTEIGER

@<TRIPOS>ATOM
      1  N          8.7450   -4.1580    0.3630 N.3   125  GLY125     -0.1210
      2  CA         9.3710   -5.2980    1.0410 C.3   125  GLY125      0.1956
      3  C          9.0890   -6.6420    0.4200 C.2   125  GLY125      0.2612
      4  O          9.2790   -7.6800    1.0540 O.2   125  GLY125     -0.2717
      5  N          8.6260   -6.6260   -0.8320 N.am  126  PHE126     -0.1962
      6  CA         8.1710   -7.8590   -1.5110 C.3   126  PHE126      0.1771
      7  C          9.3320   -8.5270   -2.2340 C.2   126  PHE126      0.2619
      8  O         10.3980   -7.8810   -2.4480 O.2   126  PHE126     -0.2715
      9  CB         7.0480   -7.5310   -2.4840 C.3   126  PHE126      0.0574
     10  CG         7.4000   -6.4140   -3.4330 C.ar  126  PHE126     -0.0200
     11  CD1        8.2520   -6.6400   -4.5090 C.ar  126  PHE126     -0.0042
     12  CD2        6.9380   -5.1180   -3.1950 C.ar  126  PHE126     -0.0042
     13  CE1        8.6210   -5.5520   -5.3640 C.ar  126  PHE126     -0.0003
     14  CE2        7.3150   -4.0520   -4.0130 C.ar  126  PHE126     -0.0003
     15  CZ         8.1520   -4.2720   -5.0860 C.ar  126  PHE126     -0.0000
     16  N          9.1050   -9.7860   -2.6050 N.am  127  TYR127     -0.1974
     17  CA         9.9330  -10.5570   -3.5440 C.3   127  TYR127      0.1639
     18  C          9.4940  -10.2340   -4.9570 C.2   127  TYR127      0.2290
     19  O          8.2930  -10.0560   -5.2150 O.2   127  TYR127     -0.2864
     20  CB         9.7890  -12.0670   -3.3370 C.3   127  TYR127      0.0560
     21  CG        10.3490  -12.5570   -2.0360 C.ar  127  TYR127     -0.0198
     22  CD1       11.7010  -12.8360   -1.8970 C.ar  127  TYR127     -0.0009
     23  CD2        9.5040  -12.7810   -0.9450 C.ar  127  TYR127     -0.0009
     24  CE1       12.2160  -13.3130   -0.6840 C.ar  127  TYR127      0.0417
     25  CE2        9.9900  -13.2410    0.2560 C.ar  127  TYR127      0.0417
     26  CZ        11.3440  -13.4980    0.3850 C.ar  127  TYR127      0.1957
     27  OH        11.8250  -13.9430    1.5940 O.3   127  TYR127     -0.2866
     28  N         13.2360   -7.4960   -1.2660 N.3   156  LYS156     -0.1245
     29  CA        13.9520   -8.7340   -1.0110 C.3   156  LYS156      0.1561
     30  C         15.0170   -9.0870   -2.0620 C.2   156  LYS156      0.2260
     31  O         16.0200   -9.8020   -1.7610 O.2   156  LYS156     -0.2867
     32  CB        13.0010   -9.9440   -0.8540 C.3   156  LYS156      0.0271
     33  CG        12.1320   -9.9130    0.4470 C.3   156  LYS156      0.0035
     34  CD        12.9570  -10.3030    1.7610 C.3   156  LYS156      0.0206
     35  CE        11.9600  -10.5580    2.9260 C.3   156  LYS156      0.1093
     36  NZ        11.4920   -9.1630    3.3810 N.3   156  LYS156     -0.1314
     37  N         13.3090  -11.3930    8.8970 N.3   232  ASP232     -0.1225
     38  CA        12.2190  -12.2350    8.4270 C.3   232  ASP232      0.1805
     39  C         12.6590  -13.2610    7.3810 C.2   232  ASP232      0.2597
     40  O         13.5700  -13.0240    6.6070 O.2   232  ASP232     -0.2718
     41  CB        11.0890  -11.3770    7.8650 C.3   232  ASP232      0.1424
     42  CG        11.5400  -10.4960    6.7080 C.2   232  ASP232      0.3668
     43  OD1       12.6380   -9.9410    6.7900 O.co2 232  ASP232     -0.2456
     44  OD2       10.7950  -10.3680    5.7330 O.co2 232  ASP232     -0.2456
     45  N         11.9830  -14.4020    7.3540 N.am  233  ASP233     -0.1974
     46  CA        12.2010  -15.3770    6.2970 C.3   233  ASP233      0.1709
     47  C         13.6150  -15.9170    6.2630 C.2   233  ASP233      0.2293
     48  O         14.1860  -16.0540    5.1930 O.2   233  ASP233     -0.2864
     49  CB        11.9230  -14.7370    4.9400 C.3   233  ASP233      0.1436
     50  CG        10.4700  -14.7710    4.5680 C.2   233  ASP233      0.3671
     51  OD1        9.6330  -14.4050    5.4130 O.co2 233  ASP233     -0.2456
     52  OD2       10.1680  -15.1580    3.4230 O.co2 233  ASP233     -0.2456
     53  N         12.2210   -5.9460   12.0630 N.3   268  CYS268     -0.1235
     54  CA        11.2050   -6.9410   11.7880 C.3   268  CYS268      0.1677
     55  C         11.7160   -8.2470   12.3870 C.2   268  CYS268      0.2270
     56  O         12.7950   -8.6910   12.0640 O.2   268  CYS268     -0.2867
     57  CB        10.9530   -7.1220   10.2980 C.3   268  CYS268      0.0956
     58  SG         9.6570   -8.3900    9.9240 S.3   268  CYS268     -0.0801
     59  N          7.2750  -13.1850   13.0870 N.3   272  TYR272     -0.1241
     60  CA         6.6590  -11.8880   12.7300 C.3   272  TYR272      0.1605
     61  C          5.1430  -11.9480   12.5290 C.2   272  TYR272      0.2264
     62  O          4.5200  -10.9920   12.1090 O.2   272  TYR272     -0.2867
     63  CB         7.3670  -11.2670   11.5050 C.3   272  TYR272      0.0534
     64  CG         7.3460  -12.1500   10.3100 C.ar  272  TYR272     -0.0201
     65  CD1        6.2530  -12.1590    9.4560 C.ar  272  TYR272     -0.0009
     66  CD2        8.4330  -12.9810   10.0270 C.ar  272  TYR272     -0.0009
     67  CE1        6.2110  -13.0190    8.3190 C.ar  272  TYR272      0.0417
     68  CE2        8.4150  -13.8250    8.9190 C.ar  272  TYR272      0.0417
     69  CZ         7.3140  -13.8450    8.0820 C.ar  272  TYR272      0.1957
     70  OH         7.3380  -14.7140    7.0040 O.3   272  TYR272     -0.2866
     71  N          3.6400  -18.2240   12.8720 N.3   276  TRP276     -0.1241
     72  CA         5.0850  -18.4270   12.7240 C.3   276  TRP276      0.1605
     73  C          5.8240  -18.1820   14.0490 C.2   276  TRP276      0.2264
     74  O          7.0600  -18.2070   14.1100 O.2   276  TRP276     -0.2867
     75  CB         5.6460  -17.5050   11.6210 C.3   276  TRP276      0.0550
     76  CG         5.4500  -18.0350   10.2160 C.ar  276  TRP276      0.0003
     77  CD1        4.3640  -18.7120    9.7310 C.ar  276  TRP276      0.0946
     78  CD2        6.3880  -17.9360    9.1230 C.ar  276  TRP276      0.0152
     79  NE1        4.5640  -19.0390    8.4030 N.ar  276  TRP276     -0.2442
     80  CE2        5.7900  -18.5650    8.0000 C.ar  276  TRP276      0.0810
     81  CE3        7.6790  -17.3840    8.9930 C.ar  276  TRP276      0.0012
     82  CZ2        6.4400  -18.6650    6.7360 C.ar  276  TRP276      0.0191
     83  CZ3        8.3390  -17.4700    7.7200 C.ar  276  TRP276      0.0001
     84  CH2        7.7070  -18.1170    6.6160 C.ar  276  TRP276      0.0015
     85  N          3.0110   -8.8480   11.2390 N.3   300  THR300     -0.1218
     86  CA         2.0320   -8.9370   10.1120 C.3   300  THR300      0.1862
     87  C          0.6550   -9.5060   10.5210 C.2   300  THR300      0.2287
     88  O         -0.2330   -9.6610    9.6710 O.2   300  THR300     -0.2866
     89  CB         2.5730   -9.7440    8.9050 C.3   300  THR300      0.1770
     90  OG1        2.6150  -11.1280    9.2470 O.3   300  THR300     -0.2211
     91  CG2        3.9620   -9.3030    8.4910 C.3   300  THR300      0.0375
     92  N          1.0320  -14.8420    8.0620 N.3   304  VAL304     -0.1231
     93  CA         1.8860  -14.0410    7.1400 C.3   304  VAL304      0.1692
     94  C          0.9980  -13.0340    6.4410 C.2   304  VAL304      0.2591
     95  O          1.3290  -11.8450    6.3680 O.2   304  VAL304     -0.2718
     96  CB         2.5380  -14.9460    6.0590 C.3   304  VAL304      0.0266
     97  CG1        3.3070  -14.0720    4.9640 C.3   304  VAL304      0.0020
     98  CG2        3.4340  -15.9410    6.6870 C.3   304  VAL304      0.0020
     99  N         -0.1220  -13.5240    5.8910 N.am  305  ILE305     -0.1980
    100  CA        -1.1200  -12.6640    5.2740 C.3   305  ILE305      0.1595
    101  C         -2.3300  -12.6850    6.1430 C.2   305  ILE305      0.2287
    102  O         -2.9910  -13.7450    6.2880 O.2   305  ILE305     -0.2864
    103  CB        -1.5680  -13.0840    3.8390 C.3   305  ILE305      0.0276
    104  CG1       -0.3800  -13.6240    3.0170 C.3   305  ILE305      0.0022
    105  CG2       -2.1830  -11.8700    3.1570 C.3   305  ILE305      0.0022
    106  CD1        0.8150  -12.6750    2.8850 C.3   305  ILE305      0.0001
    107  N          3.0800   -4.4520    9.7930 N.3   327  TRP327     -0.1241
    108  CA         3.5000   -4.6660    8.4140 C.3   327  TRP327      0.1605
    109  C          2.3460   -5.3950    7.7420 C.2   327  TRP327      0.2264
    110  O          2.1940   -6.5920    7.9320 O.2   327  TRP327     -0.2867
    111  CB         4.7770   -5.5110    8.3870 C.3   327  TRP327      0.0550
    112  CG         5.2550   -6.0210    7.0420 C.ar  327  TRP327      0.0003
    113  CD1        4.4960   -6.5050    6.0170 C.ar  327  TRP327      0.0946
    114  CD2        6.6200   -6.1280    6.6070 C.ar  327  TRP327      0.0152
    115  NE1        5.2990   -6.8940    4.9750 N.ar  327  TRP327     -0.2442
    116  CE2        6.6050   -6.6700    5.3110 C.ar  327  TRP327      0.0810
    117  CE3        7.8490   -5.8080    7.1860 C.ar  327  TRP327      0.0012
    118  CZ2        7.7720   -6.8990    4.5870 C.ar  327  TRP327      0.0191
    119  CZ3        9.0030   -6.0440    6.4680 C.ar  327  TRP327      0.0001
    120  CH2        8.9570   -6.5770    5.1820 C.ar  327  TRP327      0.0015
    121  N          0.4780   -7.2480    4.9220 N.3   329  ASN329     -0.1240
    122  CA         0.7840   -7.9240    3.6320 C.3   329  ASN329      0.1653
    123  C         -0.3710   -7.9010    2.6440 C.2   329  ASN329      0.2266
    124  O         -0.8740   -8.9220    2.2300 O.2   329  ASN329     -0.2867
    125  CB         1.3540   -9.3480    3.8240 C.3   329  ASN329      0.1155
    126  CG         2.8470   -9.3220    4.1600 C.2   329  ASN329      0.2627
    127  OD1        3.6250   -8.5710    3.5400 O.2   329  ASN329     -0.2716
    128  ND2        3.2460  -10.1030    5.1450 N.am  329  ASN329     -0.0877
    129  N          0.3950   -6.9110   -1.6550 N.3   332  VAL332     -0.1245
    130  CA         1.5110   -7.7090   -2.1660 C.3   332  VAL332      0.1561
    131  C          0.9950   -8.9910   -2.8290 C.2   332  VAL332      0.2260
    132  O          0.1410   -9.6760   -2.2650 O.2   332  VAL332     -0.2867
    133  CB         2.5640   -8.0640   -1.0470 C.3   332  VAL332      0.0252
    134  CG1        1.8650   -8.6900    0.2170 C.3   332  VAL332      0.0019
    135  CG2        3.6750   -9.0020   -1.6130 C.3   332  VAL332      0.0019
    136  N          3.2350  -11.2930   -4.3870 N.3   334  ASP334     -0.1225
    137  CA         4.4480  -12.0220   -4.7900 C.3   334  ASP334      0.1805
    138  C          4.3250  -13.4950   -4.6510 C.2   334  ASP334      0.2597
    139  O          5.2210  -14.2170   -5.0670 O.2   334  ASP334     -0.2718
    140  CB         5.7300  -11.5040   -4.0850 C.3   334  ASP334      0.1424
    141  CG         5.6890  -11.6680   -2.5710 C.2   334  ASP334      0.3668
    142  OD1        4.7830  -12.3780   -2.0650 O.co2 334  ASP334     -0.2456
    143  OD2        6.5420  -11.0260   -1.8780 O.co2 334  ASP334     -0.2456
    144  N          3.2090  -13.9580   -4.0900 N.am  335  TYR335     -0.1976
    145  CA         2.9570  -15.4040   -3.9460 C.3   335  TYR335      0.1639
    146  C          1.7520  -15.8790   -4.7900 C.2   335  TYR335      0.2290
    147  O          1.4640  -17.0460   -4.8020 O.2   335  TYR335     -0.2864
    148  CB         2.7630  -15.8060   -2.4510 C.3   335  TYR335      0.0560
    149  CG         1.6030  -15.0830   -1.8140 C.ar  335  TYR335     -0.0198
    150  CD1        1.7430  -13.7510   -1.4370 C.ar  335  TYR335     -0.0009
    151  CD2        0.3900  -15.7410   -1.5620 C.ar  335  TYR335     -0.0009
    152  CE1        0.7090  -13.0570   -0.8390 C.ar  335  TYR335      0.0417
    153  CE2       -0.6650  -15.0720   -0.9460 C.ar  335  TYR335      0.0417
    154  CZ        -0.4950  -13.7160   -0.6080 C.ar  335  TYR335      0.1957
    155  OH        -1.4920  -13.0170   -0.0110 O.3   335  TYR335     -0.2866
    156  N          2.6250   -3.5670    2.5150 N.3   362  ASN362     -0.1240
    157  CA         3.5180   -4.2110    1.5670 C.3   362  ASN362      0.1653
    158  C          2.7720   -4.4110    0.2390 C.2   362  ASN362      0.2266
    159  O          1.8530   -5.2020    0.1540 O.2   362  ASN362     -0.2867
    160  CB         4.0330   -5.5370    2.1070 C.3   362  ASN362      0.1155
    161  CG         5.1410   -6.1220    1.2640 C.2   362  ASN362      0.2627
    162  OD1        5.8350   -5.4100    0.5640 O.2   362  ASN362     -0.2716
    163  ND2        5.3090   -7.4260    1.3360 N.am  362  ASN362     -0.0877
    164  N         -1.1970  -19.4310    1.5340 N.3   423  HIS423     -0.1241
    165  CA        -1.4700  -18.5790    2.6890 C.3   423  HIS423      0.1621
    166  C         -2.9330  -18.5210    3.1670 C.2   423  HIS423      0.2264
    167  O         -3.1960  -17.8680    4.1590 O.2   423  HIS423     -0.2867
    168  CB        -0.9790  -17.1550    2.3880 C.3   423  HIS423      0.0745
    169  CG         0.5060  -17.0390    2.3690 C.ar  423  HIS423      0.0817
    170  ND1        1.3110  -17.7210    3.2640 N.ar  423  HIS423     -0.2268
    171  CD2        1.3400  -16.3260    1.5710 C.ar  423  HIS423      0.1154
    172  CE1        2.5760  -17.3970    3.0390 C.ar  423  HIS423      0.1986
    173  NE2        2.6210  -16.5530    2.0150 N.ar  423  HIS423     -0.2212
@<TRIPOS>BOND
     1    13    15   ar
     2    13    11   ar
     3    19    18    2
     4    15    14   ar
     5   139   138    2
     6    18    17    1
     7   147   146    2
     8   137   138    1
     9   137   136    1
    10   137   140    1
    11   146   145    1
    12   138   144   am
    13    11    10   ar
    14   144   145    1
    15   140   141    1
    16    14    12   ar
    17   145   148    1
    18    17    20    1
    19    17    16    1
    20    10    12   ar
    21    10     9    1
    22    20    21    1
    23   131   132    2
    24   131   130    1
    25    16     7   am
    26   141   142   ar
    27   141   143   ar
    28     9     6    1
    29   148   149    1
    30     8     7    2
    31     7     6    1
    32   130   129    1
    33   130   133    1
    34    30    31    2
    35    30    29    1
    36    21    22   ar
    37    21    23   ar
    38    22    24   ar
    39   149   151   ar
    40   149   150   ar
    41   135   133    1
    42   151   153   ar
    43     6     5    1
    44   150   152   ar
    45    28    29    1
    46   133   134    1
    47    29    32    1
    48   153   154   ar
    49    23    25   ar
    50    32    33    1
    51   152   154   ar
    52     5     3   am
    53    24    26   ar
    54   154   155    1
    55   159   158    2
    56   158   157    1
    57    25    26   ar
    58     1     2    1
    59    26    27    1
    60     3     2    1
    61     3     4    2
    62    33    34    1
    63   162   161    2
    64   161   163   am
    65   161   160    1
    66   164   165    1
    67   157   160    1
    68   157   156    1
    69   171   173   ar
    70   171   169   ar
    71    34    35    1
    72   173   172   ar
    73   124   123    2
    74   169   168    1
    75   169   170   ar
    76   168   165    1
    77   123   122    1
    78   165   166    1
    79   106   104    1
    80    35    36    1
    81   104   103    1
    82   172   170   ar
    83   105   103    1
    84   166   167    2
    85    52    50   ar
    86   127   126    2
    87   122   125    1
    88   122   121    1
    89   125   126    1
    90   103   100    1
    91   126   128   am
    92    50    49    1
    93    50    51   ar
    94   118   120   ar
    95   118   116   ar
    96    49    46    1
    97    97    96    1
    98   115   116   ar
    99   115   113   ar
   100   120   119   ar
   101    48    47    2
   102   100    99    1
   103   100   101    1
   104   116   114   ar
   105    44    42   ar
   106    99    94   am
   107   113   112   ar
   108    96    98    1
   109    96    93    1
   110   101   102    2
   111    47    46    1
   112    46    45    1
   113    95    94    2
   114    94    93    1
   115   119   117   ar
   116   114   112   ar
   117   114   117   ar
   118    40    39    2
   119    84    82   ar
   120    84    83   ar
   121    42    43   ar
   122    42    41    1
   123    82    80   ar
   124    70    69    1
   125   112   111    1
   126    93    92    1
   127    45    39   am
   128    39    38    1
   129    83    81   ar
   130   109   110    2
   131   109   108    1
   132    41    38    1
   133    80    79   ar
   134    80    78   ar
   135    69    67   ar
   136    69    68   ar
   137    67    65   ar
   138   111   108    1
   139    79    77   ar
   140   108   107    1
   141    38    37    1
   142    91    89    1
   143    89    90    1
   144    89    86    1
   145    68    66   ar
   146    81    78   ar
   147    78    76   ar
   148    65    64   ar
   149    88    87    2
   150    77    76   ar
   151    58    57    1
   152    66    64   ar
   153    86    87    1
   154    86    85    1
   155    76    75    1
   156    57    54    1
   157    64    63    1
   158    63    60    1
   159    75    72    1
   160    54    53    1
   161    54    55    1
   162    56    55    2
   163    62    61    2
   164    61    60    1
   165    72    71    1
   166    72    73    1
   167    60    59    1
   168    73    74    2
