@<TRIPOS>MOLECULE
tmp/2xm8A00.pdb
 153 142 0 0 0
SMALL
GASTEIGER

@<TRIPOS>ATOM
      1  N          7.3610  -53.1170    6.2770 N.3    16  LEU16      -0.1245
      2  CA         7.2720  -51.8760    7.0390 C.3    16  LEU16       0.1561
      3  C          6.8210  -50.7130    6.1600 C.2    16  LEU16       0.2260
      4  O          6.0520  -49.8580    6.5950 O.2    16  LEU16      -0.2867
      5  CB         8.6170  -51.5510    7.6920 C.3    16  LEU16       0.0270
      6  CG         9.1900  -52.6350    8.6080 C.3    16  LEU16       0.0019
      7  CD1       10.5580  -52.2270    9.1330 C.3    16  LEU16       0.0001
      8  CD2        8.2370  -52.9290    9.7570 C.3    16  LEU16       0.0001
      9  N          9.2390  -46.6980   -2.2510 N.3    17  GLY17      -0.1210
     10  CA         8.5560  -47.9650   -2.0680 C.3    17  GLY17       0.1956
     11  C          8.5220  -48.4010   -0.6160 C.2    17  GLY17       0.2612
     12  O          8.9710  -47.6720    0.2690 O.2    17  GLY17      -0.2717
     13  N          7.9890  -49.5940   -0.3710 N.am   18  GLU18      -0.1965
     14  CA         7.8990  -50.1320    0.9840 C.3    18  GLU18       0.1733
     15  C          9.1130  -50.9900    1.3420 C.2    18  GLU18       0.2616
     16  O          9.6710  -51.6880    0.4930 O.2    18  GLU18      -0.2715
     17  CB         6.6050  -50.9300    1.1670 C.3    18  GLU18       0.0429
     18  CG         6.4940  -52.1770    0.4170 C.3    18  GLU18       0.1163
     19  CD         5.1040  -52.9460    0.6340 C.2    18  GLU18       0.3649
     20  OE1        4.3610  -52.5480    1.4790 O.co2  18  GLU18      -0.2457
     21  OE2        5.0210  -53.8140   -0.1150 O.co2  18  GLU18      -0.2457
     22  N          9.5080  -50.9340    2.6110 N.am   19  VAL19      -0.1977
     23  CA        10.7110  -51.6060    3.0930 C.3    19  VAL19       0.1596
     24  C         10.3650  -52.7610    4.0340 C.2    19  VAL19       0.2287
     25  O          9.3510  -52.7170    4.7280 O.2    19  VAL19      -0.2864
     26  CB        11.6410  -50.6020    3.8070 C.3    19  VAL19       0.0276
     27  CG1       12.6260  -51.3140    4.7150 C.3    19  VAL19       0.0022
     28  CG2       12.3610  -49.7300    2.7860 C.3    19  VAL19       0.0022
     29  N         16.2600  -52.9140    9.2970 N.3    32  ALA32      -0.1245
     30  CA        15.3620  -52.7650    8.1540 C.3    32  ALA32       0.1562
     31  C         16.1360  -52.7100    6.8410 C.2    32  ALA32       0.2260
     32  O         17.1650  -52.0410    6.7470 O.2    32  ALA32      -0.2867
     33  CB        14.5000  -51.5250    8.3160 C.3    32  ALA32       0.0290
     34  N         15.9770  -51.9030    2.7010 N.3    34  LYS34      -0.1245
     35  CA        15.2450  -51.2050    1.6490 C.3    34  LYS34       0.1561
     36  C         14.9290  -52.1100    0.4620 C.2    34  LYS34       0.2260
     37  O         15.7520  -52.9320    0.0550 O.2    34  LYS34      -0.2867
     38  CB        16.0270  -49.9760    1.1780 C.3    34  LYS34       0.0271
     39  CG        16.2080  -48.9050    2.2450 C.3    34  LYS34       0.0035
     40  CD        16.5970  -47.5740    1.6190 C.3    34  LYS34       0.0206
     41  CE        16.2080  -46.3820    2.4790 C.3    34  LYS34       0.1093
     42  NZ        16.8340  -45.1500    1.9870 N.3    34  LYS34      -0.1314
     43  N         19.3570  -41.5420    7.7770 N.3    53  ILE53      -0.1245
     44  CA        19.5050  -42.9890    7.6810 C.3    53  ILE53       0.1561
     45  C         20.9490  -43.3580    7.3560 C.2    53  ILE53       0.2260
     46  O         21.5590  -42.7820    6.4530 O.2    53  ILE53      -0.2867
     47  CB        18.5880  -43.5770    6.5980 C.3    53  ILE53       0.0252
     48  CG1       18.3100  -45.0580    6.8860 C.3    53  ILE53       0.0019
     49  CG2       19.1510  -43.3100    5.1770 C.3    53  ILE53       0.0019
     50  CD1       17.5430  -45.3580    8.2070 C.3    53  ILE53       0.0001
     51  N         19.7280  -50.9570    6.6630 N.3    68  LEU68      -0.1231
     52  CA        20.1610  -49.8700    7.5320 C.3    68  LEU68       0.1693
     53  C         19.7170  -50.1200    8.9680 C.2    68  LEU68       0.2592
     54  O         18.7110  -50.7870    9.2060 O.2    68  LEU68      -0.2718
     55  CB        19.5920  -48.5340    7.0480 C.3    68  LEU68       0.0284
     56  CG        19.5540  -48.2900    5.5390 C.3    68  LEU68       0.0019
     57  CD1       18.2400  -48.7830    4.9560 C.3    68  LEU68       0.0001
     58  CD2       19.7370  -46.8130    5.2410 C.3    68  LEU68       0.0001
     59  N         20.4700  -49.5830    9.9230 N.am   69  GLU69      -0.1966
     60  CA        20.0950  -49.6750   11.3290 C.3    69  GLU69       0.1733
     61  C         18.6480  -49.2290   11.5050 C.2    69  GLU69       0.2616
     62  O         18.2920  -48.1010   11.1650 O.2    69  GLU69      -0.2715
     63  CB        21.0360  -48.8300   12.1890 C.3    69  GLU69       0.0429
     64  CG        21.5680  -47.5790   11.4940 C.3    69  GLU69       0.1163
     65  CD        20.8170  -46.3210   11.8860 C.2    69  GLU69       0.3649
     66  OE1       20.8240  -45.3540   11.0940 O.co2  69  GLU69      -0.2457
     67  OE2       20.2200  -46.3010   12.9830 O.co2  69  GLU69      -0.2457
     68  N         17.8180  -50.1250   12.0320 N.am   70  LEU70      -0.1963
     69  CA        16.3740  -49.9040   12.0760 C.3    70  LEU70       0.1728
     70  C         15.9390  -48.8020   13.0390 C.2    70  LEU70       0.2616
     71  O         16.4580  -48.6870   14.1500 O.2    70  LEU70      -0.2715
     72  CB        15.6360  -51.2100   12.4000 C.3    70  LEU70       0.0311
     73  CG        14.1220  -51.1120   12.6230 C.3    70  LEU70       0.0022
     74  CD1       13.4100  -52.3460   12.0860 C.3    70  LEU70       0.0001
     75  CD2       13.7940  -50.8980   14.0960 C.3    70  LEU70       0.0001
     76  N         14.9750  -47.9980   12.5990 N.am   71  MET71      -0.1963
     77  CA        14.3320  -47.0120   13.4580 C.3    71  MET71       0.1736
     78  C         13.0400  -47.5830   14.0260 C.2    71  MET71       0.2616
     79  O         12.1160  -47.9180   13.2830 O.2    71  MET71      -0.2715
     80  CB        14.0450  -45.7270   12.6810 C.3    71  MET71       0.0427
     81  CG        15.2900  -44.9450   12.3150 C.3    71  MET71       0.0599
     82  SD        16.1230  -44.2590   13.7580 S.3    71  MET71      -0.1393
     83  CE        15.5100  -42.5790   13.7340 C.3    71  MET71       0.0692
     84  N         12.9860  -47.6990   15.3470 N.am   72  GLU72      -0.1977
     85  CA        11.8220  -48.2600   16.0210 C.3    72  GLU72       0.1602
     86  C         10.6320  -47.3070   15.9630 C.2    72  GLU72       0.2287
     87  O          9.4910  -47.7320   15.7820 O.2    72  GLU72      -0.2864
     88  CB        12.1580  -48.5880   17.4780 C.3    72  GLU72       0.0415
     89  CG        11.0250  -49.1880   18.2530 C.3    72  GLU72       0.1163
     90  CD        11.3440  -49.6360   19.6460 C.2    72  GLU72       0.3649
     91  OE1       12.4430  -49.4240   20.1130 O.co2  72  GLU72      -0.2457
     92  OE2       10.4740  -50.0790   20.4120 O.co2  72  GLU72      -0.2457
     93  N          9.3210  -45.5440   13.8620 N.3    74  GLY74      -0.1210
     94  CA         8.4660  -45.6260   12.6930 C.3    74  GLY74       0.1956
     95  C          8.3890  -44.3040   11.9520 C.2    74  GLY74       0.2611
     96  O          9.3270  -43.5050   11.9870 O.2    74  GLY74      -0.2717
     97  N          7.2640  -44.0690   11.2820 N.am   75  GLU75      -0.1979
     98  CA         7.0690  -42.8490   10.5060 C.3    75  GLU75       0.1602
     99  C          6.5760  -41.7040   11.3790 C.2    75  GLU75       0.2287
    100  O          5.7240  -41.9010   12.2470 O.2    75  GLU75      -0.2864
    101  CB         6.0610  -43.0900    9.3810 C.3    75  GLU75       0.0415
    102  CG         6.4210  -44.2290    8.4500 C.3    75  GLU75       0.1163
    103  CD         5.3320  -44.5030    7.4330 C.2    75  GLU75       0.3649
    104  OE1        5.4900  -45.4480    6.6320 O.co2  75  GLU75      -0.2457
    105  OE2        4.3160  -43.7750    7.4370 O.co2  75  GLU75      -0.2457
    106  N          2.6830  -41.4980   10.9990 N.3    78  ASP78      -0.1239
    107  CA         1.8570  -42.2360   11.9500 C.3    78  ASP78       0.1674
    108  C          1.5130  -41.4250   13.1960 C.2    78  ASP78       0.2266
    109  O          0.3860  -41.4780   13.6890 O.2    78  ASP78      -0.2867
    110  CB         2.5420  -43.5450   12.3580 C.3    78  ASP78       0.1410
    111  CG         2.3930  -44.6370   11.3140 C.2    78  ASP78       0.3668
    112  OD1        1.5130  -44.5080   10.4380 O.co2  78  ASP78      -0.2456
    113  OD2        3.1540  -45.6290   11.3730 O.co2  78  ASP78      -0.2456
    114  N          6.1660  -39.0570    6.4390 N.3   118  GLU118     -0.1231
    115  CA         6.4670  -40.4610    6.1900 C.3   118  GLU118      0.1699
    116  C          7.9760  -40.6750    6.1910 C.2   118  GLU118      0.2592
    117  O          8.4990  -41.4820    6.9570 O.2   118  GLU118     -0.2718
    118  CB         5.8860  -40.9120    4.8470 C.3   118  GLU118      0.0402
    119  CG         4.3900  -40.7070    4.6920 C.3   118  GLU118      0.1161
    120  CD         4.0390  -39.3410    4.1330 C.2   118  GLU118      0.3649
    121  OE1        4.8090  -38.3840    4.3600 O.co2 118  GLU118     -0.2457
    122  OE2        2.9880  -39.2220    3.4670 O.co2 118  GLU118     -0.2457
    123  N          8.6680  -39.9340    5.3310 N.am  119  ASN119     -0.1974
    124  CA        10.1130  -40.0550    5.1920 C.3   119  ASN119      0.1688
    125  C         10.8960  -39.5200    6.3900 C.2   119  ASN119      0.2292
    126  O         12.1240  -39.4650    6.3600 O.2   119  ASN119     -0.2864
    127  CB        10.5860  -39.3720    3.9080 C.3   119  ASN119      0.1181
    128  CG        10.0440  -40.0390    2.6590 C.2   119  ASN119      0.2629
    129  OD1        9.3790  -41.0760    2.7300 O.2   119  ASN119     -0.2716
    130  ND2       10.3300  -39.4470    1.5030 N.am  119  ASN119     -0.0877
    131  N         11.6780  -40.5990    9.9320 N.3   121  LEU121     -0.1245
    132  CA        11.5970  -41.7100   10.8760 C.3   121  LEU121      0.1561
    133  C         12.0240  -41.2850   12.2780 C.2   121  LEU121      0.2260
    134  O         12.7480  -40.3040   12.4430 O.2   121  LEU121     -0.2867
    135  CB        12.4470  -42.8910   10.3960 C.3   121  LEU121      0.0270
    136  CG        12.0280  -43.5870    9.0970 C.3   121  LEU121      0.0019
    137  CD1       10.5570  -43.9480    9.1370 C.3   121  LEU121      0.0001
    138  CD2       12.3220  -42.7210    7.8880 C.3   121  LEU121      0.0001
    139  N         14.6920  -40.7390    5.3270 N.3   134  THR134     -0.1203
    140  CA        15.0760  -41.7730    4.3720 C.3   134  THR134      0.1994
    141  C         14.5140  -41.5070    2.9820 C.2   134  THR134      0.2617
    142  O         14.1620  -40.3790    2.6480 O.2   134  THR134     -0.2717
    143  CB        14.6370  -43.1760    4.8370 C.3   134  THR134      0.1784
    144  OG1       13.2080  -43.2490    4.8690 O.3   134  THR134     -0.2211
    145  CG2       15.1890  -43.4770    6.2200 C.3   134  THR134      0.0376
    146  N         14.4360  -42.5620    2.1770 N.am  135  ASP135     -0.1973
    147  CA        13.9150  -42.4700    0.8170 C.3   135  ASP135      0.1709
    148  C         14.6140  -41.3790    0.0090 C.2   135  ASP135      0.2293
    149  O         14.0310  -40.3320   -0.2790 O.2   135  ASP135     -0.2864
    150  CB        12.4020  -42.2360    0.8330 C.3   135  ASP135      0.1436
    151  CG        11.7410  -42.5930   -0.4850 C.2   135  ASP135      0.3671
    152  OD1       12.4430  -42.6330   -1.5170 O.co2 135  ASP135     -0.2456
    153  OD2       10.5160  -42.8360   -0.4870 O.co2 135  ASP135     -0.2456
@<TRIPOS>BOND
     1     9    10    1
     2    10    11    1
     3   152   151   ar
     4    11    13   am
     5    11    12    2
     6   153   151   ar
     7   151   150    1
     8    13    14    1
     9   149   148    2
    10    21    19   ar
    11   148   147    1
    12    37    36    2
    13    18    19    1
    14    18    17    1
    15    36    35    1
    16    16    15    2
    17    19    20   ar
    18   147   150    1
    19   147   146    1
    20    14    17    1
    21    14    15    1
    22    38    35    1
    23    38    39    1
    24    15    22   am
    25   130   128   am
    26    40    39    1
    27    40    41    1
    28    35    34    1
    29    42    41    1
    30   146   141   am
    31    22    23    1
    32   142   141    2
    33   128   129    2
    34   128   127    1
    35    28    26    1
    36   141   140    1
    37    23    26    1
    38    23    24    1
    39   122   120   ar
    40    26    27    1
    41   127   124    1
    42    24    25    2
    43   120   121   ar
    44   120   119    1
    45   140   143    1
    46   140   139    1
    47   119   118    1
    48   143   144    1
    49   143   145    1
    50   118   115    1
    51    57    56    1
    52    49    47    1
    53   124   123    1
    54   124   125    1
    55    58    56    1
    56   123   116   am
    57    56    55    1
    58     3     4    2
    59     3     2    1
    60   115   116    1
    61   115   114    1
    62   116   117    2
    63     1     2    1
    64   126   125    2
    65    46    45    2
    66    47    48    1
    67    47    44    1
    68   104   103   ar
    69    51    52    1
    70    32    31    2
    71    31    30    1
    72    48    50    1
    73     2     5    1
    74    55    52    1
    75    45    44    1
    76   103   105   ar
    77   103   102    1
    78    52    53    1
    79    44    43    1
    80     5     6    1
    81   138   136    1
    82    30    33    1
    83    30    29    1
    84   102   101    1
    85     6     7    1
    86     6     8    1
    87    53    54    2
    88    53    59   am
    89   136   137    1
    90   136   135    1
    91   101    98    1
    92    59    60    1
    93   131   132    1
    94   135   132    1
    95   112   111   ar
    96    98    97    1
    97    98    99    1
    98   132   133    1
    99   106   107    1
   100    66    65   ar
   101    62    61    2
   102    97    95   am
   103   111   113   ar
   104   111   110    1
   105    60    61    1
   106    60    63    1
   107    99   100    2
   108    64    65    1
   109    64    63    1
   110    61    68   am
   111    65    67   ar
   112   107   110    1
   113   107   108    1
   114    95    96    2
   115    95    94    1
   116    68    69    1
   117    69    72    1
   118    69    70    1
   119    74    73    1
   120   133   134    2
   121    81    80    1
   122    81    82    1
   123    72    73    1
   124    76    70   am
   125    76    77    1
   126    73    75    1
   127    80    77    1
   128    94    93    1
   129    70    71    2
   130   108   109    2
   131    79    78    2
   132    77    78    1
   133    83    82    1
   134    78    84   am
   135    84    85    1
   136    87    86    2
   137    86    85    1
   138    85    88    1
   139    88    89    1
   140    89    90    1
   141    90    91   ar
   142    90    92   ar
