@<TRIPOS>MOLECULE
tmp/2xm9A00.pdb
 186 173 0 0 0
SMALL
GASTEIGER

@<TRIPOS>ATOM
      1  N         50.6230  -22.5040   -8.3160 N.3    16  LEU16      -0.1231
      2  CA        49.5580  -21.9920   -7.4510 C.3    16  LEU16       0.1693
      3  C         48.1850  -21.9890   -8.1330 C.2    16  LEU16       0.2593
      4  O         47.1880  -22.4200   -7.5380 O.2    16  LEU16      -0.2718
      5  CB        49.9020  -20.5870   -6.9350 C.3    16  LEU16       0.0284
      6  CG        51.2080  -20.3920   -6.1490 C.3    16  LEU16       0.0019
      7  CD1       51.5380  -18.9080   -5.9920 C.3    16  LEU16       0.0001
      8  CD2       51.1380  -21.0720   -4.7990 C.3    16  LEU16       0.0001
      9  N         48.1390  -21.5000   -9.3740 N.am   17  GLY17      -0.1942
     10  CA        46.8970  -21.4140  -10.1360 C.3    17  GLY17       0.2014
     11  C         47.0980  -21.4050  -11.6470 C.2    17  GLY17       0.2639
     12  O         48.2400  -21.3640  -12.1210 O.2    17  GLY17      -0.2714
     13  N         45.9950  -21.4450  -12.4020 N.am   18  SER18      -0.1949
     14  CA        46.0520  -21.4540  -13.8750 C.3    18  SER18       0.1924
     15  C         45.1630  -20.3900  -14.5400 C.2    18  SER18       0.2314
     16  O         44.0410  -20.1290  -14.1040 O.2    18  SER18      -0.2863
     17  CB        45.7200  -22.8470  -14.4390 C.3    18  SER18       0.2116
     18  OG        46.8260  -23.7350  -14.3450 O.3    18  SER18      -0.2180
     19  N         50.6970  -19.7380  -12.7810 N.3    21  VAL21      -0.1245
     20  CA        51.3150  -18.9490  -11.7080 C.3    21  VAL21       0.1561
     21  C         52.0750  -19.8150  -10.7010 C.2    21  VAL21       0.2260
     22  O         51.5140  -20.7190  -10.0880 O.2    21  VAL21      -0.2867
     23  CB        50.2820  -18.0690  -10.9630 C.3    21  VAL21       0.0252
     24  CG1       50.8700  -17.5480   -9.6640 C.3    21  VAL21       0.0019
     25  CG2       49.8210  -16.9040  -11.8450 C.3    21  VAL21       0.0019
     26  N         55.0560  -14.1010   -6.3420 N.3    34  ALA34      -0.1245
     27  CA        54.3410  -14.8780   -7.3480 C.3    34  ALA34       0.1562
     28  C         54.9120  -14.5990   -8.7400 C.2    34  ALA34       0.2260
     29  O         55.2670  -13.4620   -9.0690 O.2    34  ALA34      -0.2867
     30  CB        52.8480  -14.5900   -7.2980 C.3    34  ALA34       0.0290
     31  N         53.9490  -15.0650  -12.6940 N.3    36  LYS36      -0.1245
     32  CA        52.9930  -15.3740  -13.7500 C.3    36  LYS36       0.1561
     33  C         53.7390  -15.6470  -15.0590 C.2    36  LYS36       0.2260
     34  O         54.4810  -14.7890  -15.5770 O.2    36  LYS36      -0.2867
     35  CB        52.0020  -14.2160  -13.9160 C.3    36  LYS36       0.0271
     36  CG        50.7410  -14.5070  -14.7420 C.3    36  LYS36       0.0035
     37  CD        50.0160  -13.1880  -15.0470 C.3    36  LYS36       0.0206
     38  CE        48.6950  -13.3760  -15.7870 C.3    36  LYS36       0.1093
     39  NZ        47.9940  -12.0650  -16.0040 N.3    36  LYS36      -0.1314
     40  N         49.0300   -5.1940  -19.9280 N.3    48  GLU48      -0.1245
     41  CA        48.9080   -5.5040  -18.5110 C.3    48  GLU48       0.1567
     42  C         50.1020   -4.9090  -17.7810 C.2    48  GLU48       0.2260
     43  O         49.9740   -4.2860  -16.7140 O.2    48  GLU48      -0.2867
     44  CB        48.8150   -7.0130  -18.2620 C.3    48  GLU48       0.0388
     45  CG        48.7080   -7.3390  -16.7610 C.3    48  GLU48       0.1160
     46  CD        48.2350   -8.7630  -16.4790 C.2    48  GLU48       0.3649
     47  OE1       47.7050   -9.0130  -15.3670 O.co2  48  GLU48      -0.2457
     48  OE2       48.3900   -9.6310  -17.3710 O.co2  48  GLU48      -0.2457
     49  N         49.7970   -2.1230  -15.0260 N.3    52  LEU52      -0.1245
     50  CA        50.1620   -2.3820  -13.6370 C.3    52  LEU52       0.1561
     51  C         51.3370   -1.5240  -13.1690 C.2    52  LEU52       0.2260
     52  O         51.4330   -1.1750  -11.9900 O.2    52  LEU52      -0.2867
     53  CB        50.4690   -3.8650  -13.4310 C.3    52  LEU52       0.0270
     54  CG        49.2510   -4.7810  -13.5630 C.3    52  LEU52       0.0019
     55  CD1       49.6250   -6.2140  -13.2300 C.3    52  LEU52       0.0001
     56  CD2       48.0830   -4.2950  -12.6860 C.3    52  LEU52       0.0001
     57  N         46.6410   -5.4360   -7.8250 N.3    61  ILE61      -0.1245
     58  CA        47.9140   -6.1640   -7.7340 C.3    61  ILE61       0.1561
     59  C         49.1180   -5.3980   -8.3260 C.2    61  ILE61       0.2260
     60  O         49.0390   -4.8190   -9.4180 O.2    61  ILE61      -0.2867
     61  CB        47.8050   -7.5380   -8.4190 C.3    61  ILE61       0.0252
     62  CG1       48.8630   -8.5040   -7.8890 C.3    61  ILE61       0.0019
     63  CG2       47.8830   -7.3880   -9.9220 C.3    61  ILE61       0.0019
     64  CD1       48.5580   -9.0160   -6.5040 C.3    61  ILE61       0.0001
     65  N         56.1170  -12.6440  -15.3760 N.3    74  ILE74      -0.1245
     66  CA        55.7450  -11.4760  -14.5920 C.3    74  ILE74       0.1561
     67  C         55.8270  -11.7830  -13.1070 C.2    74  ILE74       0.2260
     68  O         55.2560  -12.7570  -12.6350 O.2    74  ILE74      -0.2867
     69  CB        54.3460  -10.9760  -14.9700 C.3    74  ILE74       0.0252
     70  CG1       54.2830  -10.7670  -16.4910 C.3    74  ILE74       0.0019
     71  CG2       54.0170   -9.6900  -14.2010 C.3    74  ILE74       0.0019
     72  CD1       52.9810  -10.1800  -17.0000 C.3    74  ILE74       0.0001
     73  N         54.9310  -10.8590   -9.4640 N.3    76  LEU76      -0.1231
     74  CA        54.0020  -10.1000   -8.6260 C.3    76  LEU76       0.1693
     75  C         54.1310  -10.4270   -7.1390 C.2    76  LEU76       0.2592
     76  O         54.6270  -11.5000   -6.7470 O.2    76  LEU76      -0.2718
     77  CB        52.5440  -10.3730   -9.0300 C.3    76  LEU76       0.0284
     78  CG        51.9840  -10.1670  -10.4460 C.3    76  LEU76       0.0019
     79  CD1       52.3650   -8.7990  -11.0300 C.3    76  LEU76       0.0001
     80  CD2       52.3580  -11.3230  -11.3650 C.3    76  LEU76       0.0001
     81  N         53.6450   -9.5020   -6.3190 N.am   77  GLU77      -0.1966
     82  CA        53.4650   -9.7670   -4.9040 C.3    77  GLU77       0.1733
     83  C         52.5310  -10.9630   -4.7550 C.2    77  GLU77       0.2616
     84  O         51.5900  -11.1220   -5.5240 O.2    77  GLU77      -0.2715
     85  CB        52.9170   -8.5330   -4.1800 C.3    77  GLU77       0.0429
     86  CG        51.5690   -8.0210   -4.7010 C.3    77  GLU77       0.1163
     87  CD        51.1520   -6.6900   -4.0720 C.2    77  GLU77       0.3649
     88  OE1       51.7060   -6.3170   -3.0090 O.co2  77  GLU77      -0.2457
     89  OE2       50.2670   -6.0190   -4.6450 O.co2  77  GLU77      -0.2457
     90  N         52.8150  -11.8180   -3.7800 N.am   78  LEU78      -0.1963
     91  CA        52.0780  -13.0620   -3.6100 C.3    78  LEU78       0.1728
     92  C         50.7920  -12.8560   -2.8250 C.2    78  LEU78       0.2616
     93  O         50.7630  -12.0850   -1.8630 O.2    78  LEU78      -0.2715
     94  CB        52.9400  -14.0930   -2.8900 C.3    78  LEU78       0.0311
     95  CG        52.2210  -15.4200   -2.6770 C.3    78  LEU78       0.0022
     96  CD1       51.7950  -15.9750   -4.0310 C.3    78  LEU78       0.0001
     97  CD2       53.0760  -16.4250   -1.9150 C.3    78  LEU78       0.0001
     98  N         49.7370  -13.5540   -3.2350 N.am   79  MET79      -0.1963
     99  CA        48.4560  -13.5100   -2.5320 C.3    79  MET79       0.1736
    100  C         48.1790  -14.8570   -1.8850 C.2    79  MET79       0.2616
    101  O         47.6950  -15.7750   -2.5390 O.2    79  MET79      -0.2715
    102  CB        47.3140  -13.1350   -3.4790 C.3    79  MET79       0.0427
    103  CG        47.4360  -11.7520   -4.0840 C.3    79  MET79       0.0599
    104  SD        47.4450  -10.4370   -2.8510 S.3    79  MET79      -0.1393
    105  CE        45.7290  -10.3970   -2.3960 C.3    79  MET79       0.0692
    106  N         48.4740  -14.9580   -0.5930 N.am   80  GLU80      -0.1977
    107  CA        48.4290  -16.2340    0.1200 C.3    80  GLU80       0.1602
    108  C         47.0350  -16.8590    0.2110 C.2    80  GLU80       0.2287
    109  O         46.8990  -18.0830    0.2170 O.2    80  GLU80      -0.2864
    110  CB        49.0420  -16.0820    1.5170 C.3    80  GLU80       0.0415
    111  CG        50.5090  -15.6720    1.4980 C.3    80  GLU80       0.1163
    112  CD        51.3340  -16.3760    2.5650 C.2    80  GLU80       0.3649
    113  OE1       51.5550  -15.7760    3.6410 O.co2  80  GLU80      -0.2457
    114  OE2       51.7630  -17.5290    2.3220 O.co2  80  GLU80      -0.2457
    115  N         44.6110  -16.9820   -1.9780 N.3    82  GLY82      -0.1210
    116  CA        44.0890  -17.5820   -3.1950 C.3    82  GLY82       0.1956
    117  C         42.9200  -16.8510   -3.8470 C.2    82  GLY82       0.2611
    118  O         42.6440  -15.6660   -3.5510 O.2    82  GLY82      -0.2717
    119  N         42.2300  -17.5680   -4.7350 N.am   83  GLU83      -0.1979
    120  CA        41.1210  -17.0060   -5.5060 C.3    83  GLU83       0.1602
    121  C         39.8200  -16.9230   -4.7250 C.2    83  GLU83       0.2287
    122  O         39.4860  -17.8310   -3.9780 O.2    83  GLU83      -0.2864
    123  CB        40.8780  -17.8210   -6.7800 C.3    83  GLU83       0.0415
    124  CG        42.0590  -17.8550   -7.7190 C.3    83  GLU83       0.1163
    125  CD        41.8440  -18.8130   -8.8710 C.2    83  GLU83       0.3649
    126  OE1       40.7460  -19.3940   -8.9680 O.co2  83  GLU83      -0.2457
    127  OE2       42.7700  -18.9840   -9.6870 O.co2  83  GLU83      -0.2457
    128  N         37.4200  -19.9440   -5.0980 N.3    86  ASP86      -0.1239
    129  CA        37.4150  -21.0780   -4.1710 C.3    86  ASP86       0.1674
    130  C         36.4710  -20.8940   -2.9860 C.2    86  ASP86       0.2266
    131  O         36.0040  -21.8720   -2.4060 O.2    86  ASP86      -0.2867
    132  CB        38.8260  -21.3960   -3.6580 C.3    86  ASP86       0.1410
    133  CG        39.7510  -21.9060   -4.7580 C.2    86  ASP86       0.3668
    134  OD1       39.3040  -22.7350   -5.5940 O.co2  86  ASP86      -0.2456
    135  OD2       40.9310  -21.4730   -4.7830 O.co2  86  ASP86      -0.2456
    136  N         37.5980  -15.6720  -10.1600 N.3   126  GLU126     -0.1231
    137  CA        38.9260  -16.2230  -10.4500 C.3   126  GLU126      0.1699
    138  C         40.0140  -15.1520  -10.4840 C.2   126  GLU126      0.2592
    139  O         41.1920  -15.4510  -10.3050 O.2   126  GLU126     -0.2718
    140  CB        38.9250  -16.9640  -11.7920 C.3   126  GLU126      0.0402
    141  CG        37.9970  -18.1650  -11.8570 C.3   126  GLU126      0.1161
    142  CD        36.5650  -17.8030  -12.2160 C.2   126  GLU126      0.3649
    143  OE1       36.0210  -16.8070  -11.6850 O.co2 126  GLU126     -0.2457
    144  OE2       35.9680  -18.5340  -13.0310 O.co2 126  GLU126     -0.2457
    145  N         39.6110  -13.9070  -10.7230 N.am  127  ASN127     -0.1974
    146  CA        40.5540  -12.8170  -10.9150 C.3   127  ASN127      0.1688
    147  C         40.5420  -11.8580   -9.7490 C.2   127  ASN127      0.2292
    148  O         41.0560  -10.7390   -9.8430 O.2   127  ASN127     -0.2864
    149  CB        40.2680  -12.0790  -12.2270 C.3   127  ASN127      0.1181
    150  CG        40.4920  -12.9620  -13.4530 C.2   127  ASN127      0.2629
    151  OD1       41.1940  -13.9810  -13.3910 O.2   127  ASN127     -0.2716
    152  ND2       39.9020  -12.5730  -14.5740 N.am  127  ASN127     -0.0877
    153  N         41.8060  -11.8420   -5.8280 N.3   129  LEU129     -0.1245
    154  CA        42.6390  -12.6150   -4.9140 C.3   129  LEU129      0.1561
    155  C         42.5800  -12.0960   -3.4920 C.2   129  LEU129      0.2260
    156  O         42.4950  -10.8840   -3.2590 O.2   129  LEU129     -0.2867
    157  CB        44.0880  -12.6660   -5.3930 C.3   129  LEU129      0.0270
    158  CG        44.2680  -13.0940   -6.8430 C.3   129  LEU129      0.0019
    159  CD1       45.7050  -13.4370   -7.0620 C.3   129  LEU129      0.0001
    160  CD2       43.3740  -14.2670   -7.2090 C.3   129  LEU129      0.0001
    161  N         43.3310   -8.8630  -10.1930 N.3   142  THR142     -0.1203
    162  CA        44.4100   -9.2800  -11.0740 C.3   142  THR142      0.1994
    163  C         43.9240   -9.5120  -12.5100 C.2   142  THR142      0.2618
    164  O         42.7580   -9.2450  -12.8320 O.2   142  THR142     -0.2717
    165  CB        44.9980  -10.5890  -10.5760 C.3   142  THR142      0.1784
    166  OG1       44.0180  -11.6230  -10.7080 O.3   142  THR142     -0.2211
    167  CG2       45.4080  -10.4650   -9.1130 C.3   142  THR142      0.0376
    168  N         44.8250  -10.0200  -13.3570 N.am  143  ASP143     -0.1959
    169  CA        44.5270  -10.4010  -14.7550 C.3   143  ASP143      0.1840
    170  C         44.0420   -9.2720  -15.6480 C.2   143  ASP143      0.2622
    171  O         42.8930   -9.2680  -16.0930 O.2   143  ASP143     -0.2715
    172  CB        43.5100  -11.5390  -14.8080 C.3   143  ASP143      0.1450
    173  CG        44.1270  -12.8790  -14.4950 C.2   143  ASP143      0.3671
    174  OD1       44.2310  -13.7040  -15.4260 O.co2 143  ASP143     -0.2456
    175  OD2       44.5000  -13.1110  -13.3240 O.co2 143  ASP143     -0.2456
    176  N         44.9220   -8.3230  -15.9170 N.am  144  PHE144     -0.1974
    177  CA        44.5490   -7.1620  -16.6960 C.3   144  PHE144      0.1639
    178  C         44.7990   -7.3340  -18.1930 C.2   144  PHE144      0.2290
    179  O         44.8420   -6.3570  -18.9230 O.2   144  PHE144     -0.2864
    180  CB        45.2760   -5.9300  -16.1760 C.3   144  PHE144      0.0560
    181  CG        44.7310   -5.4170  -14.8830 C.ar  144  PHE144     -0.0200
    182  CD1       45.0210   -6.0580  -13.6920 C.ar  144  PHE144     -0.0042
    183  CD2       43.9150   -4.2970  -14.8570 C.ar  144  PHE144     -0.0042
    184  CE1       44.5140   -5.5900  -12.4890 C.ar  144  PHE144     -0.0003
    185  CE2       43.4080   -3.8220  -13.6570 C.ar  144  PHE144     -0.0003
    186  CZ        43.7100   -4.4690  -12.4730 C.ar  144  PHE144     -0.0000
@<TRIPOS>BOND
     1    40    41    1
     2   179   178    2
     3    41    44    1
     4    41    42    1
     5    44    45    1
     6   178   177    1
     7    42    43    2
     8    48    46   ar
     9    72    70    1
    10    45    46    1
    11   177   180    1
    12   177   176    1
    13    70    69    1
    14    46    47   ar
    15   180   181    1
    16   171   170    2
    17    39    38    1
    18   176   170   am
    19    38    37    1
    20   170   169    1
    21    34    33    2
    22   174   173   ar
    23    65    66    1
    24    33    32    1
    25    37    36    1
    26    49    50    1
    27    69    66    1
    28    69    71    1
    29   181   183   ar
    30   181   182   ar
    31   183   185   ar
    32   172   169    1
    33   172   173    1
    34   169   168    1
    35    36    35    1
    36    66    67    1
    37   152   150   am
    38    15    16    2
    39    15    14    1
    40   173   175   ar
    41    17    18    1
    42    17    14    1
    43    35    32    1
    44    14    13    1
    45    32    31    1
    46   182   184   ar
    47   185   186   ar
    48    50    53    1
    49    50    51    1
    50    54    53    1
    51    54    55    1
    52    54    56    1
    53   150   151    2
    54   150   149    1
    55   168   163   am
    56    51    52    2
    57    67    68    2
    58   144   142   ar
    59   164   163    2
    60    19    20    1
    61   163   162    1
    62   184   186   ar
    63    13    11   am
    64   149   146    1
    65   142   141    1
    66   142   143   ar
    67    12    11    2
    68   141   140    1
    69    25    23    1
    70   140   137    1
    71    20    23    1
    72    20    21    1
    73    11    10    1
    74    80    78    1
    75   162   165    1
    76   162   161    1
    77    79    78    1
    78    23    24    1
    79   146   145    1
    80   146   147    1
    81   145   138   am
    82   166   165    1
    83    21    22    2
    84   165   167    1
    85   138   137    1
    86   138   139    2
    87   137   136    1
    88    78    77    1
    89    10     9    1
    90    63    61    1
    91   148   147    2
    92   127   125   ar
    93    73    74    1
    94    60    59    2
    95     9     3   am
    96    29    28    2
    97    77    74    1
    98   126   125   ar
    99   125   124    1
   100    28    27    1
   101    74    75    1
   102    61    62    1
   103    61    58    1
   104    59    58    1
   105     1     2    1
   106     3     4    2
   107     3     2    1
   108    62    64    1
   109    57    58    1
   110   124   123    1
   111     2     5    1
   112    27    30    1
   113    27    26    1
   114   160   158    1
   115    75    76    2
   116    75    81   am
   117   159   158    1
   118     5     6    1
   119   158   157    1
   120   123   120    1
   121    81    82    1
   122     6     7    1
   123     6     8    1
   124   153   154    1
   125   134   133   ar
   126    84    83    2
   127   120   119    1
   128   120   121    1
   129   157   154    1
   130   128   129    1
   131   154   155    1
   132    82    83    1
   133    82    85    1
   134   135   133   ar
   135   133   132    1
   136    83    90   am
   137   119   117   am
   138   121   122    2
   139    86    85    1
   140    86    87    1
   141    89    87   ar
   142   129   132    1
   143   129   130    1
   144   103   102    1
   145   103   104    1
   146    87    88   ar
   147    96    95    1
   148   117   118    2
   149   117   116    1
   150    90    91    1
   151    91    94    1
   152    91    92    1
   153   155   156    2
   154   102    99    1
   155    98    92   am
   156    98    99    1
   157   116   115    1
   158   130   131    2
   159    94    95    1
   160   104   105    1
   161    92    93    2
   162    95    97    1
   163   101   100    2
   164    99   100    1
   165   100   106   am
   166   106   107    1
   167   107   108    1
   168   107   110    1
   169   108   109    2
   170   111   110    1
   171   111   112    1
   172   114   112   ar
   173   112   113   ar
