@<TRIPOS>MOLECULE
tmp/2xmdA00.pdb
 99 97 0 0 0
SMALL
GASTEIGER

@<TRIPOS>ATOM
      1  N         18.5200   33.4760   36.1590 N.3   113  GLY113     -0.1210
      2  CA        17.7240   34.5570   36.6800 C.3   113  GLY113      0.1956
      3  C         18.0830   35.9810   36.2310 C.2   113  GLY113      0.2612
      4  O         18.8520   36.2400   35.2280 O.2   113  GLY113     -0.2717
      5  N         17.4500   36.9290   36.9030 N.am  114  GLY114     -0.1942
      6  CA        17.5200   38.3120   36.5030 C.3   114  GLY114      0.2014
      7  C         16.1700   39.0420   36.6060 C.2   114  GLY114      0.2638
      8  O         15.8530   39.9090   35.7850 O.2   114  GLY114     -0.2714
      9  N         15.3740   38.7410   37.6440 N.am  115  HIS115     -0.1973
     10  CA        14.0480   39.3420   37.7380 C.3   115  HIS115      0.1656
     11  C         13.1760   39.1530   36.4630 C.2   115  HIS115      0.2291
     12  O         12.2440   39.8860   36.3170 O.2   115  HIS115     -0.2864
     13  CB        14.1360   40.8650   37.8860 C.3   115  HIS115      0.0771
     14  CG        14.8250   41.3330   39.0870 C.ar  115  HIS115      0.0820
     15  ND1       16.1930   41.2980   39.2070 N.ar  115  HIS115     -0.2267
     16  CD2       14.3540   41.9570   40.1990 C.ar  115  HIS115      0.1154
     17  CE1       16.5400   41.8410   40.3620 C.ar  115  HIS115      0.1986
     18  NE2       15.4440   42.2730   40.9730 N.ar  115  HIS115     -0.2212
     19  N         18.2850   29.5910   38.8210 N.3   195  GLU195     -0.1231
     20  CA        18.4320   30.3530   40.0820 C.3   195  GLU195      0.1699
     21  C         17.6070   31.6320   40.0140 C.2   195  GLU195      0.2593
     22  O         17.4270   32.2290   38.9060 O.2   195  GLU195     -0.2718
     23  CB        19.9240   30.6120   40.3890 C.3   195  GLU195      0.0402
     24  CG        20.2460   31.3110   41.7000 C.3   195  GLU195      0.1161
     25  CD        20.3430   32.8010   41.5580 C.2   195  GLU195      0.3649
     26  OE1       20.1890   33.3190   40.3940 O.co2 195  GLU195     -0.2457
     27  OE2       20.5930   33.4460   42.6260 O.co2 195  GLU195     -0.2457
     28  N         17.0530   32.0290   41.1510 N.am  196  SER196     -0.1938
     29  CA        16.1860   33.2270   41.2370 C.3   196  SER196      0.2055
     30  C         15.0060   33.1340   40.2020 C.2   196  SER196      0.2642
     31  O         14.2210   32.1640   40.2180 O.2   196  SER196     -0.2714
     32  CB        17.0210   34.4720   40.9670 C.3   196  SER196      0.2130
     33  OG        16.5800   35.5830   41.7020 O.3   196  SER196     -0.2179
     34  N         14.9200   34.0920   39.2750 N.am  197  ALA197     -0.1977
     35  CA        13.8530   34.0460   38.2830 C.3   197  ALA197      0.1597
     36  C         13.9920   32.7530   37.4820 C.2   197  ALA197      0.2287
     37  O         13.0040   32.2310   37.0100 O.2   197  ALA197     -0.2864
     38  CB        13.8590   35.3330   37.3200 C.3   197  ALA197      0.0319
     39  N          7.5560   38.2410   44.0930 N.3   229  TRP229     -0.1241
     40  CA         7.9790   38.9660   42.9200 C.3   229  TRP229      0.1605
     41  C          7.7090   38.1640   41.6680 C.2   229  TRP229      0.2264
     42  O          7.9030   38.6680   40.5950 O.2   229  TRP229     -0.2867
     43  CB         9.4860   39.3360   43.0100 C.3   229  TRP229      0.0550
     44  CG        10.3450   38.1560   43.4580 C.ar  229  TRP229      0.0003
     45  CD1       10.7750   37.9080   44.7230 C.ar  229  TRP229      0.0946
     46  CD2       10.8210   37.0390   42.6620 C.ar  229  TRP229      0.0152
     47  NE1       11.5010   36.7450   44.7730 N.ar  229  TRP229     -0.2442
     48  CE2       11.5540   36.1910   43.5290 C.ar  229  TRP229      0.0810
     49  CE3       10.7700   36.7120   41.3100 C.ar  229  TRP229      0.0012
     50  CZ2       12.1780   34.9980   43.0840 C.ar  229  TRP229      0.0191
     51  CZ3       11.4110   35.4890   40.8590 C.ar  229  TRP229      0.0001
     52  CH2       12.0970   34.6860   41.7400 C.ar  229  TRP229      0.0015
     53  N         13.4740   44.5970   44.1240 N.3   284  LEU284     -0.1245
     54  CA        12.8640   43.3180   43.7800 C.3   284  LEU284      0.1561
     55  C         11.8380   43.3960   42.6580 C.2   284  LEU284      0.2260
     56  O         11.3270   42.3840   42.2380 O.2   284  LEU284     -0.2867
     57  CB        12.2130   42.6880   45.0170 C.3   284  LEU284      0.0270
     58  CG        13.4320   42.2360   45.8590 C.3   284  LEU284      0.0019
     59  CD1       13.6140   43.0280   47.0700 C.3   284  LEU284      0.0001
     60  CD2       13.5680   40.7890   46.0830 C.3   284  LEU284      0.0001
     61  N          9.5920   43.3130   39.4710 N.3   286  VAL286     -0.1245
     62  CA         9.5490   42.5350   38.2510 C.3   286  VAL286      0.1561
     63  C          8.4450   43.1900   37.3960 C.2   286  VAL286      0.2260
     64  O          7.2790   42.8110   37.4690 O.2   286  VAL286     -0.2867
     65  CB         9.1620   41.0670   38.5710 C.3   286  VAL286      0.0252
     66  CG1        8.9020   40.3040   37.3050 C.3   286  VAL286      0.0019
     67  CG2       10.2980   40.3860   39.3710 C.3   286  VAL286      0.0019
     68  N         20.2220   43.1130   48.1800 N.3   327  PHE327     -0.1241
     69  CA        19.1990   44.0740   47.7260 C.3   327  PHE327      0.1605
     70  C         19.2590   45.3930   48.5030 C.2   327  PHE327      0.2264
     71  O         18.7440   46.4350   48.0650 O.2   327  PHE327     -0.2867
     72  CB        17.8030   43.4520   47.7170 C.3   327  PHE327      0.0534
     73  CG        17.7360   42.2350   46.8590 C.ar  327  PHE327     -0.0203
     74  CD1       17.9580   40.9680   47.4070 C.ar  327  PHE327     -0.0042
     75  CD2       17.4800   42.3460   45.4890 C.ar  327  PHE327     -0.0042
     76  CE1       17.9660   39.8790   46.6140 C.ar  327  PHE327     -0.0003
     77  CE2       17.4310   41.2280   44.6870 C.ar  327  PHE327     -0.0003
     78  CZ        17.6700   39.9880   45.2490 C.ar  327  PHE327     -0.0000
     79  N         12.5510   35.1070   49.3890 N.3   396  PHE396     -0.1241
     80  CA        13.1800   33.8690   48.9210 C.3   396  PHE396      0.1605
     81  C         12.9390   32.6620   49.8290 C.2   396  PHE396      0.2264
     82  O         12.5410   31.6070   49.3540 O.2   396  PHE396     -0.2867
     83  CB        14.6860   34.1050   48.6870 C.3   396  PHE396      0.0534
     84  CG        14.9510   35.1400   47.6310 C.ar  396  PHE396     -0.0203
     85  CD1       15.2270   36.4670   47.9850 C.ar  396  PHE396     -0.0042
     86  CD2       14.8380   34.8180   46.2900 C.ar  396  PHE396     -0.0042
     87  CE1       15.4370   37.4700   46.9980 C.ar  396  PHE396     -0.0003
     88  CE2       15.0550   35.8090   45.2880 C.ar  396  PHE396     -0.0003
     89  CZ        15.3270   37.1310   45.6500 C.ar  396  PHE396     -0.0000
     90  N         22.8290   36.0760   48.0830 N.3   436  HIS436     -0.1241
     91  CA        22.0410   35.6410   46.9180 C.3   436  HIS436      0.1621
     92  C         22.9020   35.5840   45.7070 C.2   436  HIS436      0.2264
     93  O         23.5770   36.5680   45.4180 O.2   436  HIS436     -0.2867
     94  CB        20.9470   36.6720   46.6700 C.3   436  HIS436      0.0745
     95  CG        20.1210   36.3890   45.4630 C.ar  436  HIS436      0.0817
     96  ND1       19.0610   35.5150   45.4840 N.ar  436  HIS436     -0.2268
     97  CD2       20.2020   36.8600   44.1880 C.ar  436  HIS436      0.1154
     98  CE1       18.5070   35.4760   44.2750 C.ar  436  HIS436      0.1986
     99  NE2       19.1790   36.2810   43.4710 N.ar  436  HIS436     -0.2212
@<TRIPOS>BOND
     1     4     3    2
     2     8     7    2
     3     1     2    1
     4     3     2    1
     5     3     5   am
     6    12    11    2
     7    11    10    1
     8     6     7    1
     9     6     5    1
    10     7     9   am
    11    37    36    2
    12    66    65    1
    13    38    35    1
    14    63    64    2
    15    63    62    1
    16    36    35    1
    17     9    10    1
    18    10    13    1
    19    13    14    1
    20    62    65    1
    21    62    61    1
    22    35    34    1
    23    65    67    1
    24    19    20    1
    25    22    21    2
    26    14    15   ar
    27    14    16   ar
    28    15    17   ar
    29    34    30   am
    30    21    20    1
    31    21    28   am
    32    20    23    1
    33    16    18   ar
    34    30    31    2
    35    30    29    1
    36    17    18   ar
    37    23    24    1
    38    26    25   ar
    39    42    41    2
    40    51    49   ar
    41    51    52   ar
    42    32    29    1
    43    32    33    1
    44    28    29    1
    45    49    46   ar
    46    25    24    1
    47    25    27   ar
    48    41    40    1
    49    52    50   ar
    50    56    55    2
    51    55    54    1
    52    46    44   ar
    53    46    48   ar
    54    40    43    1
    55    40    39    1
    56    43    44    1
    57    50    48   ar
    58    44    45   ar
    59    99    97   ar
    60    99    98   ar
    61    48    47   ar
    62    54    53    1
    63    54    57    1
    64    97    95   ar
    65    98    96   ar
    66    77    78   ar
    67    77    75   ar
    68    45    47   ar
    69    57    58    1
    70    78    76   ar
    71    88    89   ar
    72    88    86   ar
    73    93    92    2
    74    95    96   ar
    75    95    94    1
    76    75    73   ar
    77    89    87   ar
    78    92    91    1
    79    58    60    1
    80    58    59    1
    81    86    84   ar
    82    76    74   ar
    83    94    91    1
    84    73    74   ar
    85    73    72    1
    86    91    90    1
    87    87    85   ar
    88    84    85   ar
    89    84    83    1
    90    72    69    1
    91    69    68    1
    92    69    70    1
    93    71    70    2
    94    83    80    1
    95    80    79    1
    96    80    81    1
    97    82    81    2
