@<TRIPOS>MOLECULE
tmp/2xmhE00.pdb
 110 110 0 0 0
SMALL
GASTEIGER

@<TRIPOS>ATOM
      1  N         12.7640   26.8010  182.9770 N.3    10  ALA10      -0.1231
      2  CA        13.5060   26.6110  184.2160 C.3    10  ALA10       0.1694
      3  C         13.2430   27.7900  185.1940 C.2    10  ALA10       0.2592
      4  O         14.0780   28.1060  186.0380 O.2    10  ALA10      -0.2718
      5  CB        14.9870   26.4640  183.9120 C.3    10  ALA10       0.0304
      6  N         12.0720   28.4190  185.0600 N.am   11  ALA11      -0.1966
      7  CA        11.5580   29.5130  185.8870 C.3    11  ALA11       0.1728
      8  C         10.0480   29.3410  186.0390 C.2    11  ALA11       0.2617
      9  O          9.3880   28.8970  185.0900 O.2    11  ALA11      -0.2715
     10  CB        11.8380   30.8510  185.2360 C.3    11  ALA11       0.0334
     11  N          9.5200   29.6950  187.2170 N.am   12  GLY12      -0.1940
     12  CA         8.0950   29.6160  187.5500 C.3    12  GLY12       0.2014
     13  C          7.5380   28.2080  187.6040 C.2    12  GLY12       0.2639
     14  O          6.3150   28.0280  187.5650 O.2    12  GLY12      -0.2714
     15  N          8.4540   27.2030  187.7110 N.am   13  LEU13      -0.1963
     16  CA         8.1990   25.7550  187.7550 C.3    13  LEU13       0.1728
     17  C          7.2290   25.3450  188.8660 C.2    13  LEU13       0.2617
     18  O          6.2690   24.6060  188.6170 O.2    13  LEU13      -0.2715
     19  CB         9.5260   24.9610  187.8600 C.3    13  LEU13       0.0311
     20  CG        10.3980   24.9180  186.5980 C.3    13  LEU13       0.0022
     21  CD1       11.8000   24.4760  186.9140 C.3    13  LEU13       0.0001
     22  CD2        9.8030   24.0160  185.5410 C.3    13  LEU13       0.0001
     23  N          7.4830   25.8580  190.0640 N.am   14  GLY14      -0.1940
     24  CA         6.6740   25.6010  191.2460 C.3    14  GLY14       0.2014
     25  C          7.4330   25.8740  192.5200 C.2    14  GLY14       0.2640
     26  O          6.8890   26.4940  193.4390 O.2    14  GLY14      -0.2714
     27  N          8.7050   25.4130  192.5580 N.am   15  THR15      -0.1936
     28  CA         9.6940   25.4880  193.6490 C.3    15  THR15       0.2028
     29  C          9.5740   24.4000  194.7110 C.2    15  THR15       0.2642
     30  O          8.4880   23.8830  194.9800 O.2    15  THR15      -0.2714
     31  CB        10.0050   26.9270  194.1810 C.3    15  THR15       0.1808
     32  OG1       11.3990   27.0170  194.4990 O.3    15  THR15      -0.2208
     33  CG2        9.1840   27.3070  195.4180 C.3    15  THR15       0.0379
     34  N         10.7430   24.0440  195.2570 N.am   16  ARG16      -0.1977
     35  CA        11.0380   23.1120  196.3450 C.3    16  ARG16       0.1597
     36  C         12.5520   23.0790  196.5750 C.2    16  ARG16       0.2287
     37  O         13.3250   23.3500  195.6480 O.2    16  ARG16      -0.2864
     38  CB        10.4380   21.7070  196.1550 C.3    16  ARG16       0.0334
     39  CG         9.5990   21.2980  197.3690 C.3    16  ARG16       0.0492
     40  CD         9.8120   19.8400  197.7300 C.3    16  ARG16       0.2205
     41  NE         9.0270   19.3820  198.8850 N.pl3  16  ARG16      -0.0865
     42  CZ         7.7440   19.0220  198.8550 C.cat  16  ARG16       0.5346
     43  NH1        7.0440   19.1180  197.7310 N.pl3  16  ARG16       0.1354
     44  NH2        7.1400   18.6060  199.9600 N.pl3  16  ARG16       0.1354
     45  N         18.5070   24.5330  195.9230 N.3    20  VAL20      -0.1231
     46  CA        18.9250   23.7890  194.7240 C.3    20  VAL20       0.1678
     47  C         17.9000   23.9960  193.5890 C.2    20  VAL20       0.2434
     48  O         16.6920   23.7740  193.8080 O.2    20  VAL20      -0.2733
     49  CB        19.1810   22.2710  195.0120 C.3    20  VAL20       0.0265
     50  CG1       19.5430   21.4940  193.7350 C.3    20  VAL20       0.0020
     51  CG2       20.2540   22.0760  196.0820 C.3    20  VAL20       0.0020
     52  N         18.3490   24.4250  192.3740 N.am   21  PRO21      -0.2718
     53  CA        17.3930   24.5760  191.2630 C.3    21  PRO21       0.1535
     54  C         16.9130   23.2080  190.7840 C.2    21  PRO21       0.2598
     55  O         17.7180   22.2560  190.7100 O.2    21  PRO21      -0.2715
     56  CB        18.1960   25.2950  190.1750 C.3    21  PRO21       0.0310
     57  CG        19.5210   25.6270  190.7770 C.3    21  PRO21       0.0237
     58  CD        19.7270   24.7230  191.9360 C.3    21  PRO21       0.0939
     59  N         15.5980   23.1050  190.4960 N.am   22  LYS22      -0.1964
     60  CA        14.9660   21.8620  190.0240 C.3    22  LYS22       0.1713
     61  C         15.6850   21.1870  188.8330 C.2    22  LYS22       0.2458
     62  O         15.9840   19.9960  188.9380 O.2    22  LYS22      -0.2730
     63  CB        13.4670   22.0490  189.7660 C.3    22  LYS22       0.0311
     64  CG        12.6460   22.1830  191.0500 C.3    22  LYS22       0.0038
     65  CD        11.2300   22.5960  190.7530 C.3    22  LYS22       0.0206
     66  CE        10.2460   21.8670  191.6160 C.3    22  LYS22       0.1093
     67  NZ         8.8570   22.0840  191.1350 N.3    22  LYS22      -0.1314
     68  N         16.0980   21.9200  187.7670 N.am   23  PRO23      -0.2727
     69  CA        16.8110   21.2560  186.6610 C.3    23  PRO23       0.1402
     70  C         18.2050   20.7500  187.0140 C.2    23  PRO23       0.2269
     71  O         18.7740   19.9480  186.2640 O.2    23  PRO23      -0.2865
     72  CB        16.8520   22.3300  185.5760 C.3    23  PRO23       0.0296
     73  CG        15.7790   23.3050  185.9400 C.3    23  PRO23       0.0237
     74  CD        15.8410   23.3340  187.4360 C.3    23  PRO23       0.0939
     75  N         15.1970   32.2880  185.6510 N.3    52  SER52      -0.1202
     76  CA        15.0440   33.5190  186.4340 C.3    52  SER52       0.2020
     77  C         16.0590   33.5740  187.5800 C.2    52  SER52       0.2619
     78  O         17.2390   33.7980  187.3120 O.2    52  SER52      -0.2717
     79  CB        13.6110   33.6740  186.9200 C.3    52  SER52       0.2103
     80  OG        13.4090   34.9780  187.4350 O.3    52  SER52      -0.2182
     81  N         15.6340   33.3090  188.8360 N.am   53  ARG53      -0.1965
     82  CA        16.5270   33.3190  190.0010 C.3    53  ARG53       0.1729
     83  C         17.7160   32.3630  189.9310 C.2    53  ARG53       0.2616
     84  O         18.7280   32.6110  190.5920 O.2    53  ARG53      -0.2715
     85  CB        15.7690   33.1870  191.3320 C.3    53  ARG53       0.0348
     86  CG        14.5400   32.2910  191.3230 C.3    53  ARG53       0.0492
     87  CD        13.9190   32.1840  192.6970 C.3    53  ARG53       0.2205
     88  NE        12.4600   32.1200  192.5970 N.pl3  53  ARG53      -0.0865
     89  CZ        11.6240   32.3390  193.6050 C.cat  53  ARG53       0.5346
     90  NH1       12.0900   32.6590  194.8060 N.pl3  53  ARG53       0.1354
     91  NH2       10.3140   32.2550  193.4170 N.pl3  53  ARG53       0.1354
     92  N         17.6330   31.3130  189.1060 N.am   54  TYR54      -0.1974
     93  CA        18.7340   30.3550  189.0020 C.3    54  TYR54       0.1639
     94  C         19.4860   30.3730  187.6680 C.2    54  TYR54       0.2290
     95  O         20.3810   29.5450  187.4610 O.2    54  TYR54      -0.2864
     96  CB        18.2860   28.9330  189.4060 C.3    54  TYR54       0.0560
     97  CG        17.7940   28.8240  190.8350 C.ar   54  TYR54      -0.0198
     98  CD1       18.6840   28.8700  191.9100 C.ar   54  TYR54      -0.0009
     99  CD2       16.4390   28.6810  191.1180 C.ar   54  TYR54      -0.0009
    100  CE1       18.2340   28.7840  193.2280 C.ar   54  TYR54       0.0417
    101  CE2       15.9780   28.5850  192.4320 C.ar   54  TYR54       0.0417
    102  CZ        16.8780   28.6400  193.4830 C.ar   54  TYR54       0.1957
    103  OH        16.4120   28.5330  194.7700 O.3    54  TYR54      -0.2866
    104  N          9.1380   35.3970  188.5450 N.3    77  PRO77      -0.2116
    105  CA         8.8150   33.9670  188.7120 C.3    77  PRO77       0.1372
    106  C          7.4370   33.7110  189.3060 C.2    77  PRO77       0.2244
    107  O          6.8870   32.6230  189.1280 O.2    77  PRO77      -0.2868
    108  CB         9.9200   33.4520  189.6380 C.3    77  PRO77       0.0268
    109  CG        10.9620   34.5130  189.6560 C.3    77  PRO77       0.0207
    110  CD        10.2190   35.7850  189.4700 C.3    77  PRO77       0.0892
@<TRIPOS>BOND
     1     1     2    1
     2     5     2    1
     3     2     3    1
     4     6     3   am
     5     6     7    1
     6     9     8    2
     7     3     4    2
     8    10     7    1
     9    22    20    1
    10    72    73    1
    11    72    69    1
    12    75    76    1
    13     7     8    1
    14    73    74    1
    15     8    11   am
    16    71    70    2
    17    76    79    1
    18    76    77    1
    19    20    21    1
    20    20    19    1
    21    69    70    1
    22    69    68    1
    23    79    80    1
    24    11    12    1
    25    78    77    2
    26    74    68    1
    27    95    94    2
    28    12    13    1
    29    14    13    2
    30    77    81   am
    31    13    15   am
    32    94    93    1
    33    15    16    1
    34    16    19    1
    35    16    17    1
    36    68    61   am
    37   104   105    1
    38   104   110    1
    39    18    17    2
    40   105   106    1
    41   105   108    1
    42    61    62    2
    43    61    60    1
    44    81    82    1
    45    17    23   am
    46    93    92    1
    47    93    96    1
    48    92    83   am
    49   107   106    2
    50    96    97    1
    51   110   109    1
    52   108   109    1
    53    63    60    1
    54    63    64    1
    55    83    82    1
    56    83    84    2
    57    82    85    1
    58    60    59    1
    59    23    24    1
    60    56    57    1
    61    56    53    1
    62    59    54   am
    63    55    54    2
    64    65    64    1
    65    65    66    1
    66    57    58    1
    67    54    53    1
    68    97    99   ar
    69    97    98   ar
    70    99   101   ar
    71    67    66    1
    72    24    25    1
    73    53    52    1
    74    86    85    1
    75    86    87    1
    76    98   100   ar
    77    58    52    1
    78    52    47   am
    79   101   102   ar
    80    25    27   am
    81    25    26    2
    82    27    28    1
    83    88    87    1
    84    88    89    2
    85   100   102   ar
    86    91    89    1
    87   102   103    1
    88    47    48    2
    89    47    46    1
    90    89    90    1
    91    28    31    1
    92    28    29    1
    93    50    49    1
    94    31    32    1
    95    31    33    1
    96    29    30    2
    97    29    34   am
    98    46    49    1
    99    46    45    1
   100    49    51    1
   101    34    35    1
   102    37    36    2
   103    38    35    1
   104    38    39    1
   105    35    36    1
   106    39    40    1
   107    40    41    1
   108    43    42    1
   109    42    41    2
   110    42    44    1
