@<TRIPOS>MOLECULE
tmp/2xmpB00.pdb
 116 109 0 0 0
SMALL
GASTEIGER

@<TRIPOS>ATOM
      1  N         63.9750   33.1010  109.9320 N.3   201  ILE201     -0.1245
      2  CA        62.5310   33.0520  109.9270 C.3   201  ILE201      0.1561
      3  C         62.0490   31.9510  110.8350 C.2   201  ILE201      0.2260
      4  O         62.7080   30.9070  110.9830 O.2   201  ILE201     -0.2867
      5  CB        62.0020   32.7830  108.5290 C.3   201  ILE201      0.0252
      6  CG1       62.5530   31.4450  108.0240 C.3   201  ILE201      0.0019
      7  CG2       62.3850   33.9330  107.6180 C.3   201  ILE201      0.0019
      8  CD1       61.8930   30.9570  106.7560 C.3   201  ILE201      0.0001
      9  N         53.4590   34.3450  109.5070 N.3   207  LYS207     -0.1245
     10  CA        54.0030   34.5930  108.1850 C.3   207  LYS207      0.1561
     11  C         54.5100   33.3670  107.4450 C.2   207  LYS207      0.2260
     12  O         54.4140   33.2980  106.2200 O.2   207  LYS207     -0.2867
     13  CB        55.1370   35.6100  108.2890 C.3   207  LYS207      0.0271
     14  CG        56.1040   35.6020  107.1220 C.3   207  LYS207      0.0035
     15  CD        55.4230   35.9380  105.8080 C.3   207  LYS207      0.0206
     16  CE        54.6740   37.2520  105.9130 C.3   207  LYS207      0.1093
     17  NZ        55.4260   38.2090  106.7260 N.3   207  LYS207     -0.1314
     18  N         56.9580   40.4060   96.9370 N.3   235  VAL235     -0.1231
     19  CA        56.5750   40.9200   98.2410 C.3   235  VAL235      0.1692
     20  C         57.6760   41.8880   98.6080 C.2   235  VAL235      0.2593
     21  O         58.8510   41.5250   98.5850 O.2   235  VAL235     -0.2718
     22  CB        56.5820   39.8380   99.3120 C.3   235  VAL235      0.0266
     23  CG1       56.2330   40.4760  100.6900 C.3   235  VAL235      0.0020
     24  CG2       55.6130   38.7230   98.9420 C.3   235  VAL235      0.0020
     25  N         57.3120   43.1210   98.9340 N.am  236  SER236     -0.1938
     26  CA        58.3160   44.0950   99.3220 C.3   236  SER236      0.2055
     27  C         57.7350   45.4610   99.5980 C.2   236  SER236      0.2642
     28  O         56.6440   45.8070   99.1240 O.2   236  SER236     -0.2714
     29  CB        59.3980   44.2390   98.2550 C.3   236  SER236      0.2130
     30  OG        59.0380   45.2380   97.3230 O.3   236  SER236     -0.2179
     31  N         58.4890   46.2310  100.3720 N.am  237  ARG237     -0.1977
     32  CA        58.1070   47.5750  100.7300 C.3   237  ARG237      0.1597
     33  C         58.0310   48.3470   99.4100 C.2   237  ARG237      0.2287
     34  O         58.7000   47.9870   98.4370 O.2   237  ARG237     -0.2864
     35  CB        59.1760   48.1650  101.6530 C.3   237  ARG237      0.0334
     36  CG        58.6660   49.1850  102.6490 C.3   237  ARG237      0.0492
     37  CD        58.9030   50.6120  102.1850 C.3   237  ARG237      0.2205
     38  NE        60.3170   50.8910  101.9510 N.pl3 237  ARG237     -0.0865
     39  CZ        60.8400   52.1130  101.9130 C.cat 237  ARG237      0.5346
     40  NH1       60.0660   53.1740  102.1000 N.pl3 237  ARG237      0.1354
     41  NH2       62.1340   52.2760  101.6750 N.pl3 237  ARG237      0.1354
     42  N         63.2020   48.9240   94.7570 N.3   242  LYS242     -0.1245
     43  CA        62.8950   47.5280   94.9870 C.3   242  LYS242      0.1561
     44  C         62.5550   46.8650   93.6680 C.2   242  LYS242      0.2260
     45  O         61.9640   45.7960   93.6540 O.2   242  LYS242     -0.2867
     46  CB        61.7120   47.3900   95.9490 C.3   242  LYS242      0.0271
     47  CG        61.8250   48.2180   97.2270 C.3   242  LYS242      0.0035
     48  CD        62.9160   47.7370   98.1800 C.3   242  LYS242      0.0206
     49  CE        62.4540   46.5630   99.0200 C.3   242  LYS242      0.1093
     50  NZ        63.3820   46.3040  100.1570 N.3   242  LYS242     -0.1314
     51  N         52.6840   44.0750   99.8710 N.3   267  GLY267     -0.1210
     52  CA        53.4950   44.9010  100.7430 C.3   267  GLY267      0.1956
     53  C         52.8350   45.5880  101.9220 C.2   267  GLY267      0.2611
     54  O         51.8890   46.3500  101.7530 O.2   267  GLY267     -0.2717
     55  N         53.3360   45.3400  103.1260 N.am  268  VAL268     -0.1979
     56  CA        52.7860   45.9940  104.3110 C.3   268  VAL268      0.1595
     57  C         53.6970   47.1310  104.7220 C.2   268  VAL268      0.2287
     58  O         54.8830   46.9240  104.9750 O.2   268  VAL268     -0.2864
     59  CB        52.6740   45.0520  105.5180 C.3   268  VAL268      0.0276
     60  CG1       52.1080   45.8160  106.6870 C.3   268  VAL268      0.0022
     61  CG2       51.7650   43.8850  105.2030 C.3   268  VAL268      0.0022
     62  N         49.8210   37.4790  103.4940 N.3   307  VAL307     -0.1245
     63  CA        51.0900   37.5050  102.7740 C.3   307  VAL307      0.1561
     64  C         51.5350   36.0570  102.6040 C.2   307  VAL307      0.2260
     65  O         52.0310   35.6630  101.5580 O.2   307  VAL307     -0.2867
     66  CB        52.1730   38.2620  103.5680 C.3   307  VAL307      0.0252
     67  CG1       53.5070   38.1450  102.8700 C.3   307  VAL307      0.0019
     68  CG2       51.7720   39.7010  103.7260 C.3   307  VAL307      0.0019
     69  N         69.3770   46.3800   98.6070 N.3   324  ALA324     -0.1231
     70  CA        68.6410   45.6290   99.6140 C.3   324  ALA324      0.1694
     71  C         69.4260   45.2050  100.8440 C.2   324  ALA324      0.2593
     72  O         70.6490   45.0950  100.8250 O.2   324  ALA324     -0.2718
     73  CB        68.0160   44.4030   98.9790 C.3   324  ALA324      0.0304
     74  N         68.7010   44.9730  101.9290 N.am  325  GLY325     -0.1942
     75  CA        69.3440   44.5230  103.1320 C.3   325  GLY325      0.2014
     76  C         69.5390   43.0300  102.9780 C.2   325  GLY325      0.2639
     77  O         70.0480   42.5770  101.9520 O.2   325  GLY325     -0.2714
     78  N         69.1080   42.2570  103.9780 N.am  326  PHE326     -0.1959
     79  CA        69.2660   40.8130  103.9290 C.3   326  PHE326      0.1771
     80  C         68.2570   40.1520  103.0210 C.2   326  PHE326      0.2620
     81  O         68.5680   39.1580  102.3720 O.2   326  PHE326     -0.2715
     82  CB        69.1420   40.1890  105.3220 C.3   326  PHE326      0.0574
     83  CG        69.4010   38.7070  105.3320 C.ar  326  PHE326     -0.0200
     84  CD1       70.6960   38.2180  105.1610 C.ar  326  PHE326     -0.0042
     85  CD2       68.3530   37.8030  105.4560 C.ar  326  PHE326     -0.0042
     86  CE1       70.9480   36.8600  105.1140 C.ar  326  PHE326     -0.0003
     87  CE2       68.5860   36.4280  105.4100 C.ar  326  PHE326     -0.0003
     88  CZ        69.8920   35.9530  105.2390 C.ar  326  PHE326     -0.0000
     89  N         67.0430   40.6950  103.0100 N.am  327  GLY327     -0.1940
     90  CA        65.9750   40.1610  102.1820 C.3   327  GLY327      0.2014
     91  C         65.2350   38.9510  102.7390 C.2   327  GLY327      0.2639
     92  O         65.2170   37.8970  102.1060 O.2   327  GLY327     -0.2714
     93  N         64.6310   39.0870  103.9170 N.am  328  LEU328     -0.1963
     94  CA        63.8840   37.9820  104.5070 C.3   328  LEU328      0.1728
     95  C         62.7610   37.5140  103.5930 C.2   328  LEU328      0.2616
     96  O         62.3900   36.3510  103.6240 O.2   328  LEU328     -0.2715
     97  CB        63.2930   38.3710  105.8650 C.3   328  LEU328      0.0311
     98  CG        64.1870   38.3040  107.1030 C.3   328  LEU328      0.0022
     99  CD1       63.3970   38.7620  108.3120 C.3   328  LEU328      0.0001
    100  CD2       64.6840   36.8800  107.3090 C.3   328  LEU328      0.0001
    101  N         62.2150   38.4190  102.7890 N.am  329  THR329     -0.1951
    102  CA        61.1500   38.0450  101.8620 C.3   329  THR329      0.1897
    103  C         61.6290   36.9290  100.9520 C.2   329  THR329      0.2313
    104  O         60.8630   36.0460  100.6050 O.2   329  THR329     -0.2863
    105  CB        60.6950   39.2190  101.0080 C.3   329  THR329      0.1794
    106  OG1       61.8200   40.0400  100.6900 O.3   329  THR329     -0.2208
    107  CG2       59.6590   40.0330  101.7390 C.3   329  THR329      0.0378
    108  N         61.5230   33.7420  103.0720 N.3   332  GLU332     -0.1245
    109  CA        60.1910   33.1940  103.2380 C.3   332  GLU332      0.1567
    110  C         59.8250   32.3600  102.0040 C.2   332  GLU332      0.2260
    111  O         59.3950   31.2050  102.1140 O.2   332  GLU332     -0.2867
    112  CB        59.1800   34.3230  103.4240 C.3   332  GLU332      0.0388
    113  CG        59.6530   35.4190  104.3320 C.3   332  GLU332      0.1160
    114  CD        58.6520   36.5410  104.4660 C.2   332  GLU332      0.3649
    115  OE1       58.0540   36.9500  103.4490 O.co2 332  GLU332     -0.2457
    116  OE2       58.4780   37.0270  105.5980 O.co2 332  GLU332     -0.2457
@<TRIPOS>BOND
     1    45    44    2
     2    44    43    1
     3    42    43    1
     4    43    46    1
     5    46    47    1
     6    18    19    1
     7    47    48    1
     8    30    29    1
     9    48    49    1
    10    19    20    1
    11    19    22    1
    12    29    26    1
    13    34    33    2
    14    21    20    2
    15    69    70    1
    16    20    25   am
    17    25    26    1
    18    24    22    1
    19    73    70    1
    20    49    50    1
    21    28    27    2
    22    22    23    1
    23    26    27    1
    24    33    32    1
    25    27    31   am
    26    70    71    1
    27    51    52    1
    28    31    32    1
    29   104   103    2
    30   106   105    1
    31    32    35    1
    32    52    53    1
    33    72    71    2
    34    71    74   am
    35   103   102    1
    36   105   107    1
    37   105   102    1
    38    65    64    2
    39    35    36    1
    40    41    39    1
    41    54    53    2
    42   102   101    1
    43    39    38    2
    44    39    40    1
    45    53    55   am
    46    74    75    1
    47    38    37    1
    48    77    76    2
    49   110   111    2
    50   110   109    1
    51    92    91    2
    52    90    91    1
    53    90    89    1
    54    37    36    1
    55    81    80    2
    56    64    63    1
    57    91    93   am
    58    63    62    1
    59    63    66    1
    60   101    95   am
    61    67    66    1
    62    76    75    1
    63    76    78   am
    64    89    80   am
    65    80    79    1
    66   108   109    1
    67    55    56    1
    68   109   112    1
    69   112   113    1
    70   115   114   ar
    71    66    68    1
    72    95    96    2
    73    95    94    1
    74    93    94    1
    75    79    78    1
    76    79    82    1
    77    56    57    1
    78    56    59    1
    79   113   114    1
    80   114   116   ar
    81    94    97    1
    82    57    58    2
    83    86    84   ar
    84    86    88   ar
    85    84    83   ar
    86    61    59    1
    87    88    87   ar
    88    82    83    1
    89    83    85   ar
    90    87    85   ar
    91    59    60    1
    92    15    16    1
    93    15    14    1
    94    97    98    1
    95    16    17    1
    96    12    11    2
    97     8     6    1
    98    98   100    1
    99    98    99    1
   100    14    13    1
   101    11    10    1
   102     7     5    1
   103     6     5    1
   104    10    13    1
   105    10     9    1
   106     5     2    1
   107     2     1    1
   108     2     3    1
   109     3     4    2
