@<TRIPOS>MOLECULE
tmp/2xmyA00.pdb
 175 167 0 0 0
SMALL
GASTEIGER

@<TRIPOS>ATOM
      1  N         27.3180   24.5640   37.4200 N.3     8  GLU8       -0.1231
      2  CA        26.9780   23.4140   36.5880 C.3     8  GLU8        0.1699
      3  C         27.4620   23.5700   35.1610 C.2     8  GLU8        0.2592
      4  O         27.7630   24.6690   34.7030 O.2     8  GLU8       -0.2718
      5  CB        25.4650   23.1250   36.5870 C.3     8  GLU8        0.0402
      6  CG        24.5470   24.3490   36.4540 C.3     8  GLU8        0.1161
      7  CD        23.2940   24.0860   35.6230 C.2     8  GLU8        0.3649
      8  OE1       22.9700   22.9030   35.3780 O.co2   8  GLU8       -0.2457
      9  OE2       22.6380   25.0660   35.2000 O.co2   8  GLU8       -0.2457
     10  N         27.5390   22.4490   34.4600 N.am    9  LYS9       -0.1966
     11  CA        27.9670   22.4460   33.0760 C.3     9  LYS9        0.1728
     12  C         26.7530   22.7620   32.2200 C.2     9  LYS9        0.2616
     13  O         25.7140   22.1120   32.3570 O.2     9  LYS9       -0.2715
     14  CB        28.5330   21.0680   32.6920 C.3     9  LYS9        0.0311
     15  CG        29.2040   21.0510   31.3230 C.3     9  LYS9        0.0038
     16  CD        29.5580   19.6350   30.8660 C.3     9  LYS9        0.0206
     17  CE        30.8600   19.1320   31.4770 C.3     9  LYS9        0.1093
     18  NZ        31.4670   18.0330   30.6650 N.3     9  LYS9       -0.1314
     19  N         26.8930   23.7370   31.3280 N.am   10  ILE10      -0.1963
     20  CA        25.7860   24.1440   30.4690 C.3    10  ILE10       0.1730
     21  C         26.0880   23.8710   28.9960 C.2    10  ILE10       0.2655
     22  O         25.2820   24.1930   28.1160 O.2    10  ILE10      -0.2711
     23  CB        25.3950   25.6310   30.6780 C.3    10  ILE10       0.0290
     24  CG1       26.4990   26.5860   30.2200 C.3    10  ILE10       0.0022
     25  CG2       25.0690   25.9010   32.1480 C.3    10  ILE10       0.0023
     26  CD1       26.3160   28.0300   30.7560 C.3    10  ILE10       0.0001
     27  N         27.2510   23.2830   28.7440 N.am   11  GLY11      -0.1730
     28  CA        27.6890   23.0220   27.3860 C.2    11  GLY11       0.1340
     29  C         29.1080   22.5440   27.1830 C.2    11  GLY11       0.2521
     30  O         30.0300   22.9560   27.8500 O.2    11  GLY11      -0.2816
     31  N         31.0220   23.1440   24.4530 N.3    13  GLY13      -0.1225
     32  CA        31.2280   23.8920   23.2410 C.3    13  GLY13       0.1811
     33  C         32.3560   23.3070   22.4400 C.2    13  GLY13       0.2280
     34  O         32.9870   22.3430   22.8420 O.2    13  GLY13      -0.2866
     35  N         31.8020   24.6670   28.9750 N.3    18  VAL18      -0.1245
     36  CA        31.1130   25.8790   29.4060 C.3    18  VAL18       0.1561
     37  C         30.3240   25.6340   30.6910 C.2    18  VAL18       0.2260
     38  O         29.4160   24.8180   30.7420 O.2    18  VAL18      -0.2867
     39  CB        30.2220   26.4640   28.3000 C.3    18  VAL18       0.0252
     40  CG1       29.5960   27.7800   28.7830 C.3    18  VAL18       0.0019
     41  CG2       31.0270   26.6820   27.0180 C.3    18  VAL18       0.0019
     42  N         28.5780   32.7330   32.5310 N.3    31  ALA31      -0.1245
     43  CA        28.9930   31.5290   31.7750 C.3    31  ALA31       0.1562
     44  C         30.5110   31.5840   31.6040 C.2    31  ALA31       0.2260
     45  O         31.0530   32.5270   31.0100 O.2    31  ALA31      -0.2867
     46  CB        28.3150   31.4760   30.4060 C.3    31  ALA31       0.0290
     47  N         33.7630   29.7560   30.1170 N.3    33  LYS33      -0.1245
     48  CA        34.2990   28.8300   29.1210 C.3    33  LYS33       0.1561
     49  C         35.8040   28.6180   29.3560 C.2    33  LYS33       0.2260
     50  O         36.5990   29.5280   29.1410 O.2    33  LYS33      -0.2867
     51  CB        34.0620   29.4540   27.7360 C.3    33  LYS33       0.0271
     52  CG        34.2230   28.5490   26.5430 C.3    33  LYS33       0.0035
     53  CD        34.3390   29.3380   25.2470 C.3    33  LYS33       0.0206
     54  CE        33.8340   28.5330   24.0360 C.3    33  LYS33       0.1093
     55  NZ        33.9420   27.0410   24.1890 N.3    33  LYS33      -0.1314
     56  N         26.1080   38.0570   22.9420 N.3    61  VAL61      -0.1245
     57  CA        26.3920   37.6810   24.3430 C.3    61  VAL61       0.1561
     58  C         27.6590   38.4170   24.8360 C.2    61  VAL61       0.2260
     59  O         28.7650   38.1610   24.3410 O.2    61  VAL61      -0.2867
     60  CB        26.5810   36.1310   24.5730 C.3    61  VAL61       0.0252
     61  CG1       26.9180   35.8470   26.0270 C.3    61  VAL61       0.0019
     62  CG2       25.3090   35.3550   24.2610 C.3    61  VAL61       0.0019
     63  N         31.4920   35.2440   30.1880 N.3    77  PHE77      -0.1227
     64  CA        30.3890   35.7680   29.3740 C.3    77  PHE77       0.1736
     65  C         29.2230   36.1280   30.3140 C.2    77  PHE77       0.2595
     66  O         29.0670   35.5560   31.3800 O.2    77  PHE77      -0.2718
     67  CB        29.9550   34.6880   28.3610 C.3    77  PHE77       0.0547
     68  CG        30.9130   34.4760   27.2140 C.ar   77  PHE77      -0.0202
     69  CD1       31.0020   35.4100   26.1820 C.ar   77  PHE77      -0.0042
     70  CD2       31.6740   33.3220   27.1170 C.ar   77  PHE77      -0.0042
     71  CE1       31.8490   35.2130   25.1100 C.ar   77  PHE77      -0.0003
     72  CE2       32.5160   33.0990   26.0260 C.ar   77  PHE77      -0.0003
     73  CZ        32.5790   34.0460   25.0050 C.ar   77  PHE77      -0.0000
     74  N         28.3920   37.0900   29.9410 N.am   78  GLU78      -0.1965
     75  CA        27.1130   37.2470   30.6090 C.3    78  GLU78       0.1733
     76  C         26.3400   35.9320   30.4720 C.2    78  GLU78       0.2616
     77  O         26.4210   35.2400   29.4510 O.2    78  GLU78      -0.2715
     78  CB        26.3140   38.4040   30.0090 C.3    78  GLU78       0.0429
     79  CG        25.7980   38.1650   28.5950 C.3    78  GLU78       0.1163
     80  CD        24.7490   39.1860   28.1320 C.2    78  GLU78       0.3649
     81  OE1       23.8540   39.5390   28.9220 O.co2  78  GLU78      -0.2457
     82  OE2       24.7960   39.6290   26.9680 O.co2  78  GLU78      -0.2457
     83  N         25.5620   35.6130   31.4930 N.am   79  PHE79      -0.1960
     84  CA        24.8120   34.3740   31.5020 C.3    79  PHE79       0.1771
     85  C         23.3750   34.6520   31.0220 C.2    79  PHE79       0.2619
     86  O         22.7380   35.6360   31.4210 O.2    79  PHE79      -0.2715
     87  CB        24.8510   33.7740   32.9060 C.3    79  PHE79       0.0574
     88  CG        24.0110   32.5600   33.0680 C.ar   79  PHE79      -0.0200
     89  CD1       24.5140   31.3290   32.7080 C.ar   79  PHE79      -0.0042
     90  CD2       22.7230   32.6500   33.5360 C.ar   79  PHE79      -0.0042
     91  CE1       23.7750   30.1950   32.8510 C.ar   79  PHE79      -0.0003
     92  CE2       21.9500   31.5120   33.6600 C.ar   79  PHE79      -0.0003
     93  CZ        22.4720   30.2830   33.2920 C.ar   79  PHE79      -0.0000
     94  N         22.9050   33.8380   30.0830 N.am   80  LEU80      -0.1963
     95  CA        21.4970   33.8570   29.6760 C.3    80  LEU80       0.1728
     96  C         20.9390   32.4890   30.0130 C.2    80  LEU80       0.2616
     97  O         21.7100   31.5630   30.2560 O.2    80  LEU80      -0.2715
     98  CB        21.3590   34.2000   28.1960 C.3    80  LEU80       0.0311
     99  CG        21.3730   35.7060   27.8620 C.3    80  LEU80       0.0022
    100  CD1       22.8010   36.1940   27.5750 C.3    80  LEU80       0.0001
    101  CD2       20.4940   35.9950   26.6510 C.3    80  LEU80       0.0001
    102  N         19.6200   32.3510   30.0980 N.am   81  HIS81      -0.1959
    103  CA        19.0970   31.2020   30.8050 C.3    81  HIS81       0.1787
    104  C         18.7360   30.0110   29.9700 C.2    81  HIS81       0.2620
    105  O         18.4190   28.9700   30.5320 O.2    81  HIS81      -0.2715
    106  CB        17.8980   31.5870   31.6590 C.3    81  HIS81       0.0785
    107  CG        18.2850   32.1050   33.0070 C.ar   81  HIS81       0.0821
    108  ND1       18.7050   33.4050   33.2080 N.ar   81  HIS81      -0.2267
    109  CD2       18.3720   31.4820   34.2070 C.ar   81  HIS81       0.1154
    110  CE1       18.9730   33.5720   34.4920 C.ar   81  HIS81       0.1986
    111  NE2       18.7720   32.4250   35.1170 N.ar   81  HIS81      -0.2212
    112  N         18.8040   30.1390   28.6430 N.am   82  GLN82      -0.1963
    113  CA        18.3980   29.0560   27.7780 C.3    82  GLN82       0.1733
    114  C         18.9310   29.2190   26.3690 C.2    82  GLN82       0.2616
    115  O         19.1020   30.3220   25.8740 O.2    82  GLN82      -0.2715
    116  CB        16.8650   28.9440   27.7630 C.3    82  GLN82       0.0408
    117  CG        16.3360   27.6640   27.1190 C.3    82  GLN82       0.0908
    118  CD        14.9170   27.3400   27.5650 C.2    82  GLN82       0.2608
    119  OE1       14.6160   27.3160   28.7660 O.2    82  GLN82      -0.2717
    120  NE2       14.0230   27.1600   26.6060 N.am   82  GLN82      -0.0878
    121  N         19.1470   28.1040   25.6780 N.am   83  ASP83      -0.1971
    122  CA        19.5270   28.1810   24.2740 C.3    83  ASP83       0.1709
    123  C         18.3520   27.8380   23.3700 C.2    83  ASP83       0.2293
    124  O         17.3190   27.3190   23.8320 O.2    83  ASP83      -0.2864
    125  CB        20.7900   27.3480   23.9750 C.3    83  ASP83       0.1436
    126  CG        20.5480   25.8330   23.9730 C.2    83  ASP83       0.3671
    127  OD1       19.5090   25.3800   23.4620 O.co2  83  ASP83      -0.2456
    128  OD2       21.4620   25.0850   24.3860 O.co2  83  ASP83      -0.2456
    129  N         17.1680   24.1830   23.0350 N.3    86  LYS86      -0.1245
    130  CA        16.2970   23.7130   24.1160 C.3    86  LYS86       0.1561
    131  C         14.9250   24.3580   24.0060 C.2    86  LYS86       0.2260
    132  O         13.9110   23.7450   24.3100 O.2    86  LYS86      -0.2867
    133  CB        16.9180   24.0540   25.4710 C.3    86  LYS86       0.0271
    134  CG        16.1630   23.4550   26.6600 C.3    86  LYS86       0.0035
    135  CD        16.9740   23.5430   27.9610 C.3    86  LYS86       0.0206
    136  CE        16.0650   23.7030   29.1940 C.3    86  LYS86       0.1093
    137  NZ        16.8140   23.7260   30.5030 N.3    86  LYS86      -0.1314
    138  N         22.3320   25.8900   19.3160 N.3   128  GLN128     -0.1231
    139  CA        23.0400   25.8200   20.5990 C.3   128  GLN128      0.1698
    140  C         23.8190   27.1010   20.9970 C.2   128  GLN128      0.2592
    141  O         24.1260   27.2870   22.1630 O.2   128  GLN128     -0.2718
    142  CB        23.9670   24.5960   20.6040 C.3   128  GLN128      0.0381
    143  CG        23.2730   23.2850   20.1870 C.3   128  GLN128      0.0905
    144  CD        23.5920   22.8290   18.7590 C.2   128  GLN128      0.2608
    145  OE1       24.4800   21.9920   18.5440 O.2   128  GLN128     -0.2717
    146  NE2       22.8610   23.3590   17.7840 N.am  128  GLN128     -0.0878
    147  N         24.1030   27.9510   20.0100 N.am  129  ASN129     -0.1974
    148  CA        24.8540   29.2000   20.1840 C.3   129  ASN129      0.1688
    149  C         23.9560   30.4300   20.2680 C.2   129  ASN129      0.2292
    150  O         24.4500   31.5560   20.3120 O.2   129  ASN129     -0.2864
    151  CB        25.8130   29.4100   19.0040 C.3   129  ASN129      0.1181
    152  CG        27.0940   28.6040   19.1380 C.2   129  ASN129      0.2629
    153  OD1       27.8780   28.4800   18.1840 O.2   129  ASN129     -0.2716
    154  ND2       27.3210   28.0640   20.3350 N.am  129  ASN129     -0.0877
    155  N         21.2050   32.2900   22.3190 N.3   131  LEU131     -0.1245
    156  CA        20.7660   32.2420   23.6770 C.3   131  LEU131      0.1561
    157  C         19.6420   33.2410   23.9040 C.2   131  LEU131      0.2260
    158  O         19.6690   34.3610   23.3620 O.2   131  LEU131     -0.2867
    159  CB        21.9560   32.5320   24.5980 C.3   131  LEU131      0.0270
    160  CG        23.1340   31.5590   24.4540 C.3   131  LEU131      0.0019
    161  CD1       24.2940   32.1510   25.2270 C.3   131  LEU131      0.0001
    162  CD2       22.7500   30.1550   24.9990 C.3   131  LEU131      0.0001
    163  N         26.1530   33.9100   20.5530 N.3   141  ALA141     -0.1231
    164  CA        27.1860   33.4790   21.5030 C.3   141  ALA141      0.1694
    165  C         28.3470   32.8090   20.7510 C.2   141  ALA141      0.2592
    166  O         28.1460   32.3020   19.6440 O.2   141  ALA141     -0.2718
    167  CB        26.5960   32.4600   22.5220 C.3   141  ALA141      0.0304
    168  N         29.5080   32.7270   21.3900 N.am  142  ASP142     -0.1974
    169  CA        30.6100   31.8460   20.9610 C.3   142  ASP142      0.1709
    170  C         31.2080   32.4390   19.6890 C.2   142  ASP142      0.2293
    171  O         31.4700   31.7530   18.7160 O.2   142  ASP142     -0.2864
    172  CB        30.0770   30.4400   20.6850 C.3   142  ASP142      0.1436
    173  CG        30.9040   29.3630   21.3420 C.2   142  ASP142      0.3671
    174  OD1       31.7640   29.7360   22.1700 O.co2 142  ASP142     -0.2456
    175  OD2       30.6570   28.1680   21.0520 O.co2 142  ASP142     -0.2456
@<TRIPOS>BOND
     1   146   144   am
     2   153   152    2
     3   145   144    2
     4   171   170    2
     5   144   143    1
     6   151   152    1
     7   151   148    1
     8   152   154   am
     9   138   139    1
    10   166   165    2
    11   170   169    1
    12   147   148    1
    13   147   140   am
    14   148   149    1
    15   143   142    1
    16   149   150    2
    17   163   164    1
    18   139   142    1
    19   139   140    1
    20   172   169    1
    21   172   173    1
    22   165   168   am
    23   165   164    1
    24   169   168    1
    25   140   141    2
    26   175   173   ar
    27   173   174   ar
    28   164   167    1
    29   155   156    1
    30    33    34    2
    31    33    32    1
    32    56    57    1
    33   129   130    1
    34    32    31    1
    35   158   157    2
    36   123   124    2
    37   123   122    1
    38   127   126   ar
    39   156   157    1
    40   156   159    1
    41   126   125    1
    42   126   128   ar
    43   125   122    1
    44   131   130    1
    45   131   132    2
    46    54    55    1
    47    54    53    1
    48   130   133    1
    49    62    60    1
    50   122   121    1
    51    59    58    2
    52    57    60    1
    53    57    58    1
    54   160   159    1
    55   160   162    1
    56   160   161    1
    57    60    61    1
    58    73    71   ar
    59    73    72   ar
    60    71    69   ar
    61    53    52    1
    62   133   134    1
    63   121   114   am
    64   115   114    2
    65    72    70   ar
    66    69    68   ar
    67   114   113    1
    68    52    51    1
    69   120   118   am
    70   101    99    1
    71   134   135    1
    72    82    80   ar
    73    41    39    1
    74    70    68   ar
    75   117   118    1
    76   117   116    1
    77    29    28    1
    78    29    30    2
    79    68    67    1
    80    28    27    2
    81   118   119    2
    82   100    99    1
    83    51    48    1
    84   116   113    1
    85   113   112    1
    86    99    98    1
    87   135   136    1
    88    22    21    2
    89    80    79    1
    90    80    81   ar
    91    98    95    1
    92    39    40    1
    93    39    36    1
    94    67    64    1
    95    79    78    1
    96   112   104   am
    97    27    21    1
    98    35    36    1
    99    21    20    1
   100    48    49    1
   101    48    47    1
   102    50    49    2
   103   136   137    1
   104    64    63    1
   105    64    65    1
   106    36    37    1
   107    77    76    2
   108    95    96    1
   109    95    94    1
   110    74    65   am
   111    74    75    1
   112   104   105    2
   113   104   103    1
   114    78    75    1
   115    96   102   am
   116    96    97    2
   117    94    85   am
   118   102   103    1
   119    24    23    1
   120    24    26    1
   121    65    66    2
   122    46    43    1
   123    20    23    1
   124    20    19    1
   125    76    75    1
   126    76    83   am
   127    18    17    1
   128    23    25    1
   129    37    38    2
   130   103   106    1
   131    16    15    1
   132    16    17    1
   133    45    44    2
   134    85    86    2
   135    85    84    1
   136    15    14    1
   137    19    12   am
   138    83    84    1
   139    84    87    1
   140    44    43    1
   141   106   107    1
   142    43    42    1
   143    12    13    2
   144    12    11    1
   145    14    11    1
   146    89    91   ar
   147    89    88   ar
   148    91    93   ar
   149    87    88    1
   150   107   108   ar
   151   107   109   ar
   152    88    90   ar
   153    11    10    1
   154   108   110   ar
   155    93    92   ar
   156    90    92   ar
   157   109   111   ar
   158    10     3   am
   159   110   111   ar
   160     4     3    2
   161     3     2    1
   162     9     7   ar
   163     8     7   ar
   164     7     6    1
   165     6     5    1
   166     5     2    1
   167     2     1    1
