@<TRIPOS>MOLECULE
tmp/2xn1D00.pdb
 122 117 0 0 0
SMALL
GASTEIGER

@<TRIPOS>ATOM
      1  N          8.6690   14.8950   27.9440 N.3   200  HIS200     -0.1241
      2  CA         7.2830   15.0720   28.3080 C.3   200  HIS200      0.1621
      3  C          6.5760   13.6930   28.3330 C.2   200  HIS200      0.2264
      4  O          6.8070   12.8280   27.4730 O.2   200  HIS200     -0.2867
      5  CB         6.5690   15.9920   27.3230 C.3   200  HIS200      0.0745
      6  CG         5.1360   16.1720   27.6660 C.ar  200  HIS200      0.0817
      7  ND1        4.1250   15.5790   26.9430 N.ar  200  HIS200     -0.2268
      8  CD2        4.5450   16.7830   28.7220 C.ar  200  HIS200      0.1154
      9  CE1        2.9690   15.8500   27.5190 C.ar  200  HIS200      0.1986
     10  NE2        3.1950   16.5840   28.5960 N.ar  200  HIS200     -0.2212
     11  N         -9.5350   16.9740   34.3600 N.3   337  TRP337     -0.1241
     12  CA        -8.8510   17.1950   33.0830 C.3   337  TRP337      0.1605
     13  C         -9.0130   16.0330   32.0870 C.2   337  TRP337      0.2264
     14  O         -9.5650   16.2030   31.0000 O.2   337  TRP337     -0.2867
     15  CB        -7.3660   17.4860   33.2950 C.3   337  TRP337      0.0550
     16  CG        -6.5650   17.4780   31.9980 C.ar  337  TRP337      0.0003
     17  CD1       -5.5820   16.6060   31.6580 C.ar  337  TRP337      0.0946
     18  CD2       -6.6990   18.3860   30.8860 C.ar  337  TRP337      0.0152
     19  NE1       -5.0730   16.9170   30.4160 N.ar  337  TRP337     -0.2442
     20  CE2       -5.7450   17.9970   29.9130 C.ar  337  TRP337      0.0810
     21  CE3       -7.5230   19.4910   30.6250 C.ar  337  TRP337      0.0012
     22  CZ2       -5.6000   18.6660   28.6810 C.ar  337  TRP337      0.0191
     23  CZ3       -7.3770   20.1620   29.4050 C.ar  337  TRP337      0.0001
     24  CH2       -6.4220   19.7410   28.4460 C.ar  337  TRP337      0.0015
     25  N         -9.9660   22.0000   36.6060 N.3   367  ASP367     -0.1225
     26  CA        -8.7330   22.1000   35.8330 C.3   367  ASP367      0.1805
     27  C         -8.9080   23.1320   34.6840 C.2   367  ASP367      0.2597
     28  O         -9.7790   23.9870   34.7500 O.2   367  ASP367     -0.2718
     29  CB        -8.2960   20.6950   35.3450 C.3   367  ASP367      0.1424
     30  CG        -6.7850   20.5880   35.1470 C.2   367  ASP367      0.3668
     31  OD1       -6.0280   20.3180   36.1190 O.co2 367  ASP367     -0.2456
     32  OD2       -6.3390   20.8080   34.0130 O.co2 367  ASP367     -0.2456
     33  N         -8.0630   23.0810   33.6630 N.am  368  ASP368     -0.1974
     34  CA        -8.0600   24.0710   32.5870 C.3   368  ASP368      0.1709
     35  C         -9.4570   24.1920   31.9150 C.2   368  ASP368      0.2293
     36  O        -10.1910   23.2100   31.8220 O.2   368  ASP368     -0.2864
     37  CB        -7.0070   23.6200   31.5700 C.3   368  ASP368      0.1436
     38  CG        -6.5950   24.7090   30.5880 C.2   368  ASP368      0.3671
     39  OD1       -7.2400   25.7610   30.5180 O.co2 368  ASP368     -0.2456
     40  OD2       -5.6320   24.4750   29.8220 O.co2 368  ASP368     -0.2456
     41  N         -7.2030   25.5480   39.0650 N.3   412  TRP412     -0.1241
     42  CA        -6.0090   25.4860   38.2140 C.3   412  TRP412      0.1605
     43  C         -5.6960   26.8830   37.6550 C.2   412  TRP412      0.2264
     44  O         -6.5980   27.6440   37.2970 O.2   412  TRP412     -0.2867
     45  CB        -6.2970   24.4730   37.0880 C.3   412  TRP412      0.0550
     46  CG        -5.3080   24.2960   35.9470 C.ar  412  TRP412      0.0003
     47  CD1       -4.4940   23.1910   35.7230 C.ar  412  TRP412      0.0946
     48  CD2       -5.0800   25.1810   34.8320 C.ar  412  TRP412      0.0152
     49  NE1       -3.7720   23.3580   34.5570 N.ar  412  TRP412     -0.2442
     50  CE2       -4.1090   24.5610   33.9890 C.ar  412  TRP412      0.0810
     51  CE3       -5.5830   26.4320   34.4690 C.ar  412  TRP412      0.0012
     52  CZ2       -3.6350   25.1690   32.8050 C.ar  412  TRP412      0.0191
     53  CZ3       -5.0990   27.0450   33.2810 C.ar  412  TRP412      0.0001
     54  CH2       -4.1440   26.4050   32.4700 C.ar  412  TRP412      0.0015
     55  N          2.4830   25.0760   22.1710 N.3   444  ARG444     -0.1245
     56  CA         1.0750   24.9050   22.5260 C.3   444  ARG444      0.1563
     57  C          0.2890   26.1870   22.2110 C.2   444  ARG444      0.2260
     58  O         -0.6050   26.5900   22.9410 O.2   444  ARG444     -0.2867
     59  CB         0.8870   24.5000   23.9890 C.3   444  ARG444      0.0307
     60  CG        -0.4650   23.8570   24.2240 C.3   444  ARG444      0.0489
     61  CD        -0.8680   23.7260   25.6770 C.3   444  ARG444      0.2205
     62  NE        -2.0700   22.8780   25.8370 N.pl3 444  ARG444     -0.0865
     63  CZ        -2.6760   22.6030   27.0020 C.cat 444  ARG444      0.5346
     64  NH1       -2.2330   23.1150   28.1540 N.pl3 444  ARG444      0.1354
     65  NH2       -3.7470   21.8170   27.0280 N.pl3 444  ARG444      0.1354
     66  N         -3.7430   24.2600   41.7520 N.3   477  LYS477     -0.1245
     67  CA        -2.8190   23.5930   40.8410 C.3   477  LYS477      0.1561
     68  C         -2.2210   24.6590   39.9200 C.2   477  LYS477      0.2260
     69  O         -2.9090   25.2810   39.1390 O.2   477  LYS477     -0.2867
     70  CB        -3.5370   22.5160   40.0220 C.3   477  LYS477      0.0271
     71  CG        -2.7090   21.9320   38.8830 C.3   477  LYS477      0.0035
     72  CD        -3.3690   20.6700   38.3400 C.3   477  LYS477      0.0206
     73  CE        -2.5650   20.0230   37.2140 C.3   477  LYS477      0.1093
     74  NZ        -3.4070   19.1610   36.3060 N.3   477  LYS477     -0.1314
     75  N          0.1100   25.4560   36.9810 N.3   479  ASP479     -0.1239
     76  CA         0.6450   24.7700   35.8120 C.3   479  ASP479      0.1674
     77  C          1.5020   25.7480   35.0020 C.2   479  ASP479      0.2266
     78  O          1.5780   26.9430   35.3190 O.2   479  ASP479     -0.2867
     79  CB        -0.5310   24.1850   34.9940 C.3   479  ASP479      0.1410
     80  CG        -0.1290   23.0400   34.0520 C.2   479  ASP479      0.3668
     81  OD1        1.0750   22.7260   33.8680 O.co2 479  ASP479     -0.2456
     82  OD2       -1.0580   22.4550   33.4690 O.co2 479  ASP479     -0.2456
     83  N          2.9920   25.3630   30.7600 N.3   481  ASN481     -0.1240
     84  CA         2.9190   24.3980   29.6570 C.3   481  ASN481      0.1653
     85  C          3.8110   24.6320   28.4240 C.2   481  ASN481      0.2266
     86  O          3.4800   24.1750   27.3400 O.2   481  ASN481     -0.2867
     87  CB         1.4650   24.2520   29.2050 C.3   481  ASN481      0.1155
     88  CG         0.6480   23.4680   30.1840 C.2   481  ASN481      0.2627
     89  OD1        0.9150   22.2930   30.3920 O.2   481  ASN481     -0.2716
     90  ND2       -0.3460   24.1110   30.8140 N.am  481  ASN481     -0.0877
     91  N          3.0240   22.1510   38.9240 N.3   527  CYS527     -0.1235
     92  CA         2.8350   21.3790   37.7270 C.3   527  CYS527      0.1677
     93  C          3.4530   22.1470   36.5680 C.2   527  CYS527      0.2270
     94  O          3.4350   23.3860   36.5410 O.2   527  CYS527     -0.2867
     95  CB         1.3340   21.1660   37.4770 C.3   527  CYS527      0.0956
     96  SG         0.9160   20.1590   35.9920 S.3   527  CYS527     -0.0801
     97  N          3.1170   20.7840   32.7510 N.3   529  GLY529     -0.1225
     98  CA         2.7710   19.6930   31.8590 C.3   529  GLY529      0.1811
     99  C          3.2990   18.3780   32.4490 C.2   529  GLY529      0.2280
    100  O          3.9860   17.6130   31.7870 O.2   529  GLY529     -0.2866
    101  N          2.5630   17.3890   40.4590 N.3   546  TRP546     -0.1241
    102  CA         2.0680   16.4140   39.4900 C.3   546  TRP546      0.1605
    103  C          3.2420   15.7760   38.7260 C.2   546  TRP546      0.2264
    104  O          3.9850   16.4770   38.0450 O.2   546  TRP546     -0.2867
    105  CB         1.1400   17.1580   38.5280 C.3   546  TRP546      0.0550
    106  CG         0.4600   16.2940   37.4740 C.ar  546  TRP546      0.0003
    107  CD1        0.3640   16.5740   36.1300 C.ar  546  TRP546      0.0946
    108  CD2       -0.2430   15.0530   37.6760 C.ar  546  TRP546      0.0152
    109  NE1       -0.3290   15.5850   35.4860 N.ar  546  TRP546     -0.2442
    110  CE2       -0.7250   14.6410   36.4040 C.ar  546  TRP546      0.0810
    111  CE3       -0.5210   14.2550   38.8020 C.ar  546  TRP546      0.0012
    112  CZ2       -1.4640   13.4480   36.2250 C.ar  546  TRP546      0.0191
    113  CZ3       -1.2500   13.0620   38.6280 C.ar  546  TRP546      0.0001
    114  CH2       -1.7040   12.6730   37.3450 C.ar  546  TRP546      0.0015
    115  N          2.3020   13.9710   32.9800 N.3   549  ASP549     -0.1239
    116  CA         1.0430   13.7980   32.2220 C.3   549  ASP549      0.1674
    117  C          0.8090   12.3310   31.8190 C.2   549  ASP549      0.2266
    118  O         -0.3300   11.9440   31.4770 O.2   549  ASP549     -0.2867
    119  CB         0.9700   14.6860   30.9690 C.3   549  ASP549      0.1410
    120  CG         0.7690   16.1330   31.2990 C.2   549  ASP549      0.3668
    121  OD1        0.3030   16.4290   32.4280 O.co2 549  ASP549     -0.2456
    122  OD2        1.1100   16.9780   30.4450 O.co2 549  ASP549     -0.2456
@<TRIPOS>BOND
     1    55    56    1
     2    57    56    1
     3    57    58    2
     4    56    59    1
     5    59    60    1
     6    60    61    1
     7    61    62    1
     8    62    63    2
     9     7     9   ar
    10     7     6   ar
    11    63    65    1
    12    63    64    1
    13     5     6    1
    14     5     2    1
    15    86    85    2
    16     4     3    2
    17     9    10   ar
    18     6     8   ar
    19     1     2    1
    20     2     3    1
    21    85    84    1
    22    24    22   ar
    23    24    23   ar
    24    10     8   ar
    25    22    20   ar
    26    87    84    1
    27    87    88    1
    28    23    21   ar
    29    84    83    1
    30    40    38   ar
    31    20    19   ar
    32    20    18   ar
    33    88    89    2
    34    88    90   am
    35    19    17   ar
    36   122   120   ar
    37    39    38   ar
    38    38    37    1
    39    21    18   ar
    40    18    16   ar
    41   119   120    1
    42   119   116    1
    43    14    13    2
    44   120   121   ar
    45   118   117    2
    46    37    34    1
    47    17    16   ar
    48   100    99    2
    49   117   116    1
    50    36    35    2
    51    98    99    1
    52    98    97    1
    53    35    34    1
    54    16    15    1
    55    13    12    1
    56   116   115    1
    57    54    52   ar
    58    54    53   ar
    59    34    33    1
    60    52    50   ar
    61    12    15    1
    62    12    11    1
    63    53    51   ar
    64    82    80   ar
    65    33    27   am
    66    81    80   ar
    67    50    49   ar
    68    50    48   ar
    69    32    30   ar
    70    80    79    1
    71    51    48   ar
    72    49    47   ar
    73    27    28    2
    74    27    26    1
    75    48    46   ar
    76    79    76    1
    77    77    78    2
    78    77    76    1
    79    30    29    1
    80    30    31   ar
    81    29    26    1
    82   109   107   ar
    83   109   110   ar
    84    47    46   ar
    85    76    75    1
    86    26    25    1
    87    46    45    1
    88    96    95    1
    89   107   106   ar
    90   112   110   ar
    91   112   114   ar
    92    74    73    1
    93   110   108   ar
    94    94    93    2
    95    93    92    1
    96    45    42    1
    97    73    72    1
    98    44    43    2
    99   114   113   ar
   100   106   108   ar
   101   106   105    1
   102    95    92    1
   103    43    42    1
   104   108   111   ar
   105    92    91    1
   106   104   103    2
   107    42    41    1
   108    72    71    1
   109   105   102    1
   110   113   111   ar
   111   103   102    1
   112    71    70    1
   113    69    68    2
   114   102   101    1
   115    68    67    1
   116    70    67    1
   117    67    66    1
