@<TRIPOS>MOLECULE
tmp/2xn2A00.pdb
 135 129 0 0 0
SMALL
GASTEIGER

@<TRIPOS>ATOM
      1  N         20.8120   61.8450  -20.4390 N.3   200  HIS200     -0.1241
      2  CA        22.1620   61.2980  -20.5540 C.3   200  HIS200      0.1621
      3  C         22.8390   61.3550  -19.1720 C.2   200  HIS200      0.2264
      4  O         22.6760   62.3150  -18.4250 O.2   200  HIS200     -0.2867
      5  CB        22.9820   62.0660  -21.5940 C.3   200  HIS200      0.0745
      6  CG        24.3680   61.5270  -21.7370 C.ar  200  HIS200      0.0817
      7  ND1       25.4750   62.1610  -21.2140 N.ar  200  HIS200     -0.2268
      8  CD2       24.8010   60.3500  -22.2430 C.ar  200  HIS200      0.1154
      9  CE1       26.5370   61.3910  -21.3930 C.ar  200  HIS200      0.1986
     10  NE2       26.1570   60.2880  -22.0150 N.ar  200  HIS200     -0.2212
     11  N         38.4020   53.6510  -21.7160 N.3   336  TRP336     -0.1241
     12  CA        37.8110   54.9720  -22.0450 C.3   336  TRP336      0.1605
     13  C         38.0480   56.0170  -20.9510 C.2   336  TRP336      0.2264
     14  O         38.7120   57.0140  -21.2110 O.2   336  TRP336     -0.2867
     15  CB        36.3030   54.8760  -22.3550 C.3   336  TRP336      0.0550
     16  CG        35.6250   56.2220  -22.5480 C.ar  336  TRP336      0.0003
     17  CD1       34.6430   56.7640  -21.7520 C.ar  336  TRP336      0.0946
     18  CD2       35.8780   57.1970  -23.5850 C.ar  336  TRP336      0.0152
     19  NE1       34.2660   57.9850  -22.2340 N.ar  336  TRP336     -0.2442
     20  CE2       35.0110   58.2880  -23.3420 C.ar  336  TRP336      0.0810
     21  CE3       36.7560   57.2620  -24.6850 C.ar  336  TRP336      0.0012
     22  CZ2       34.9740   59.4260  -24.1700 C.ar  336  TRP336      0.0191
     23  CZ3       36.7170   58.3990  -25.5040 C.ar  336  TRP336      0.0001
     24  CH2       35.8360   59.4660  -25.2300 C.ar  336  TRP336      0.0015
     25  N         38.6020   50.9070  -26.4520 N.3   366  ASP366     -0.1225
     26  CA        37.4590   51.7780  -26.6960 C.3   366  ASP366      0.1805
     27  C         37.7310   52.7520  -27.8430 C.2   366  ASP366      0.2597
     28  O         38.5810   52.5150  -28.6960 O.2   366  ASP366     -0.2718
     29  CB        37.0350   52.4980  -25.3990 C.3   366  ASP366      0.1424
     30  CG        35.5600   52.7740  -25.3740 C.2   366  ASP366      0.3668
     31  OD1       34.7780   51.8680  -24.9800 O.co2 366  ASP366     -0.2456
     32  OD2       35.1790   53.9000  -25.7750 O.co2 366  ASP366     -0.2456
     33  N         37.0260   53.8690  -27.8630 N.am  367  ASP367     -0.1974
     34  CA        37.0820   54.7950  -29.0070 C.3   367  ASP367      0.1709
     35  C         38.5110   55.3480  -29.2200 C.2   367  ASP367      0.2293
     36  O         39.3060   55.5180  -28.2740 O.2   367  ASP367     -0.2864
     37  CB        36.0770   55.9260  -28.6950 C.3   367  ASP367      0.1436
     38  CG        35.7710   56.8660  -29.8670 C.2   367  ASP367      0.3671
     39  OD1       36.3350   56.7520  -30.9770 O.co2 367  ASP367     -0.2456
     40  OD2       34.9040   57.7770  -29.6010 O.co2 367  ASP367     -0.2456
     41  N         35.6400   48.4970  -29.5500 N.3   411  TRP411     -0.1241
     42  CA        34.5220   49.4170  -29.7680 C.3   411  TRP411      0.1605
     43  C         34.3180   49.7730  -31.2530 C.2   411  TRP411      0.2264
     44  O         35.2750   50.0010  -32.0020 O.2   411  TRP411     -0.2867
     45  CB        34.8490   50.6680  -28.9590 C.3   411  TRP411      0.0550
     46  CG        33.9040   51.8560  -28.9430 C.ar  411  TRP411      0.0003
     47  CD1       33.0940   52.2100  -27.9190 C.ar  411  TRP411      0.0946
     48  CD2       33.7810   52.9140  -29.9360 C.ar  411  TRP411      0.0152
     49  NE1       32.4620   53.3920  -28.2010 N.ar  411  TRP411     -0.2442
     50  CE2       32.8640   53.8420  -29.4250 C.ar  411  TRP411      0.0810
     51  CE3       34.3590   53.1650  -31.1980 C.ar  411  TRP411      0.0012
     52  CZ2       32.4890   54.9950  -30.1230 C.ar  411  TRP411      0.0191
     53  CZ3       33.9950   54.3270  -31.8870 C.ar  411  TRP411      0.0001
     54  CH2       33.0670   55.2190  -31.3510 C.ar  411  TRP411      0.0015
     55  N         27.5180   65.8750  -31.2170 N.3   442  ARG442     -0.1245
     56  CA        28.8950   65.3810  -31.0290 C.3   442  ARG442      0.1563
     57  C         29.6760   65.5090  -32.3420 C.2   442  ARG442      0.2260
     58  O         30.5180   64.6600  -32.6930 O.2   442  ARG442     -0.2867
     59  CB        28.9290   63.9240  -30.5200 C.3   442  ARG442      0.0307
     60  CG        30.2230   63.6390  -29.7530 C.3   442  ARG442      0.0489
     61  CD        30.4620   62.1570  -29.4490 C.3   442  ARG442      0.2205
     62  NE        31.6150   62.0020  -28.5600 N.pl3 442  ARG442     -0.0865
     63  CZ        32.0940   60.8350  -28.1380 C.cat 442  ARG442      0.5346
     64  NH1       31.5200   59.6940  -28.5470 N.pl3 442  ARG442      0.1354
     65  NH2       33.1120   60.8100  -27.2640 N.pl3 442  ARG442      0.1354
     66  N         31.8890   46.2020  -28.3580 N.3   475  LYS475     -0.1245
     67  CA        31.0270   47.2270  -27.7710 C.3   475  LYS475      0.1561
     68  C         30.4920   48.0530  -28.9140 C.2   475  LYS475      0.2260
     69  O         31.2520   48.7650  -29.5680 O.2   475  LYS475     -0.2867
     70  CB        31.8340   48.1120  -26.7950 C.3   475  LYS475      0.0271
     71  CG        31.0420   49.2270  -26.1290 C.3   475  LYS475      0.0035
     72  CD        31.9170   49.9610  -25.1190 C.3   475  LYS475      0.0206
     73  CE        31.3060   51.2780  -24.6450 C.3   475  LYS475      0.1093
     74  NZ        32.2640   52.0280  -23.7010 N.3   475  LYS475     -0.1314
     75  N         28.4110   50.9980  -30.0210 N.3   477  ASP477     -0.1239
     76  CA        27.9610   52.2990  -29.5080 C.3   477  ASP477      0.1674
     77  C         27.2170   53.0930  -30.5990 C.2   477  ASP477      0.2266
     78  O         27.1320   52.6440  -31.7550 O.2   477  ASP477     -0.2867
     79  CB        29.1990   53.0520  -29.0210 C.3   477  ASP477      0.1410
     80  CG        28.9030   54.1440  -27.9990 C.2   477  ASP477      0.3668
     81  OD1       27.7300   54.4200  -27.6440 O.co2 477  ASP477     -0.2456
     82  OD2       29.8910   54.7050  -27.5430 O.co2 477  ASP477     -0.2456
     83  N         26.1290   57.3900  -30.6750 N.3   479  ASN479     -0.1240
     84  CA        26.2730   58.5800  -29.8490 C.3   479  ASN479      0.1653
     85  C         25.5280   59.8480  -30.2470 C.2   479  ASN479      0.2266
     86  O         25.9160   60.9390  -29.8170 O.2   479  ASN479     -0.2867
     87  CB        27.7470   58.9000  -29.6910 C.3   479  ASN479      0.1155
     88  CG        28.4110   57.9840  -28.6510 C.2   479  ASN479      0.2627
     89  OD1       28.0370   57.9920  -27.4670 O.2   479  ASN479     -0.2716
     90  ND2       29.3540   57.1510  -29.0990 N.am  479  ASN479     -0.0877
     91  N         25.5770   49.6980  -26.5540 N.3   525  CYS525     -0.1235
     92  CA        25.8390   50.9900  -25.9160 C.3   525  CYS525      0.1677
     93  C         25.2320   52.0970  -26.7840 C.2   525  CYS525      0.2270
     94  O         25.1190   51.9860  -28.0160 O.2   525  CYS525     -0.2867
     95  CB        27.3540   51.1750  -25.7610 C.3   525  CYS525      0.0956
     96  SG        27.9090   52.6240  -24.8260 S.3   525  CYS525     -0.0801
     97  N         25.8400   56.0310  -25.8850 N.3   527  GLY527     -0.1210
     98  CA        26.2070   57.0140  -24.8670 C.3   527  GLY527      0.1956
     99  C         25.7120   56.5410  -23.5200 C.2   527  GLY527      0.2612
    100  O         25.0710   57.3060  -22.7760 O.2   527  GLY527     -0.2717
    101  N         26.0610   55.3200  -23.1590 N.am  528  GLY528     -0.1956
    102  CA        25.4530   54.6710  -22.0120 C.3   528  GLY528      0.1869
    103  C         24.1590   53.9500  -22.4020 C.2   528  GLY528      0.2309
    104  O         24.1010   53.1980  -23.3930 O.2   528  GLY528     -0.2863
    105  N         25.8480   48.6640  -21.7490 N.3   544  TRP544     -0.1241
    106  CA        26.4370   49.6780  -20.8420 C.3   544  TRP544      0.1605
    107  C         25.3270   50.5610  -20.2830 C.2   544  TRP544      0.2264
    108  O         24.6430   51.2480  -21.0300 O.2   544  TRP544     -0.2867
    109  CB        27.4270   50.5150  -21.6490 C.3   544  TRP544      0.0550
    110  CG        28.2040   51.5820  -20.8820 C.ar  544  TRP544      0.0003
    111  CD1       28.4540   52.8350  -21.3220 C.ar  544  TRP544      0.0946
    112  CD2       28.8870   51.4510  -19.6110 C.ar  544  TRP544      0.0152
    113  NE1       29.2220   53.5380  -20.3900 N.ar  544  TRP544     -0.2442
    114  CE2       29.4910   52.7070  -19.3340 C.ar  544  TRP544      0.0810
    115  CE3       29.0550   50.4030  -18.6830 C.ar  544  TRP544      0.0012
    116  CZ2       30.2190   52.9510  -18.1580 C.ar  544  TRP544      0.0191
    117  CZ3       29.7680   50.6510  -17.5150 C.ar  544  TRP544      0.0001
    118  CH2       30.3670   51.9010  -17.2690 C.ar  544  TRP544      0.0015
    119  N         26.7660   56.2880  -18.9010 N.3   547  ASP547     -0.1239
    120  CA        28.0780   56.9410  -18.8260 C.3   547  ASP547      0.1674
    121  C         28.3610   57.4920  -17.4300 C.2   547  ASP547      0.2266
    122  O         29.4920   57.8440  -17.1230 O.2   547  ASP547     -0.2867
    123  CB        28.2050   58.0460  -19.8620 C.3   547  ASP547      0.1410
    124  CG        28.4590   57.5170  -21.2800 C.2   547  ASP547      0.3668
    125  OD1       28.9840   56.3890  -21.4050 O.co2 547  ASP547     -0.2456
    126  OD2       28.1600   58.2640  -22.2430 O.co2 547  ASP547     -0.2456
    127  N         37.2320   50.6130  -15.2030 N.3   603  GLU603     -0.1245
    128  CA        37.4280   51.5920  -16.2280 C.3   603  GLU603      0.1567
    129  C         38.1480   52.7710  -15.6040 C.2   603  GLU603      0.2260
    130  O         37.5390   53.7820  -15.2260 O.2   603  GLU603     -0.2867
    131  CB        36.0830   52.0010  -16.8390 C.3   603  GLU603      0.0388
    132  CG        36.2230   52.9390  -18.0210 C.3   603  GLU603      0.1160
    133  CD        34.9390   53.1110  -18.8300 C.2   603  GLU603      0.3649
    134  OE1       34.0340   52.2150  -18.8800 O.co2 603  GLU603     -0.2457
    135  OE2       34.8640   54.1590  -19.4780 O.co2 603  GLU603     -0.2457
@<TRIPOS>BOND
     1    58    57    2
     2    57    56    1
     3    44    43    2
     4    53    54   ar
     5    53    51   ar
     6    78    77    2
     7    54    52   ar
     8    43    42    1
     9    55    56    1
    10    51    48   ar
    11    56    59    1
    12    39    38   ar
    13    83    84    1
    14    77    76    1
    15    59    60    1
    16    85    84    1
    17    85    86    2
    18    52    50   ar
    19    75    76    1
    20    48    50   ar
    21    48    46   ar
    22    38    40   ar
    23    38    37    1
    24    84    87    1
    25    42    41    1
    26    42    45    1
    27    60    61    1
    28    87    88    1
    29    69    68    2
    30    76    79    1
    31    61    62    1
    32    50    49   ar
    33    35    34    1
    34    35    36    2
    35    90    88   am
    36    79    80    1
    37    34    37    1
    38    34    33    1
    39    45    46    1
    40    46    47   ar
    41    68    67    1
    42    28    27    2
    43    88    89    2
    44    62    63    2
    45    64    63    1
    46    66    67    1
    47    49    47   ar
    48    63    65    1
    49    94    93    2
    50    80    81   ar
    51    80    82   ar
    52    33    27   am
    53    27    26    1
    54    67    70    1
    55    70    71    1
    56    93    92    1
    57    26    25    1
    58    26    29    1
    59    91    92    1
    60    71    72    1
    61    92    95    1
    62    97    98    1
    63    32    30   ar
    64    95    96    1
    65    23    24   ar
    66    23    21   ar
    67    29    30    1
    68    30    31   ar
    69    24    22   ar
    70    72    73    1
    71    98    99    1
    72    21    18   ar
    73    73    74    1
    74    22    20   ar
    75    18    20   ar
    76    18    16   ar
    77    99   101   am
    78    99   100    2
    79   104   103    2
    80    20    19   ar
    81   101   102    1
    82    16    15    1
    83    16    17   ar
    84   103   102    1
    85    15    12    1
    86   126   124   ar
    87     8    10   ar
    88     8     6   ar
    89    19    17   ar
    90    12    11    1
    91    12    13    1
    92    10     9   ar
    93   105   106    1
    94     6     5    1
    95     6     7   ar
    96   109   110    1
    97   109   106    1
    98     5     2    1
    99   125   124   ar
   100     9     7   ar
   101   111   110   ar
   102   111   113   ar
   103   124   123    1
   104    14    13    2
   105   108   107    2
   106   110   112   ar
   107   106   107    1
   108     2     1    1
   109     2     3    1
   110   113   114   ar
   111   123   120    1
   112   112   114   ar
   113   112   115   ar
   114   135   133   ar
   115   114   116   ar
   116     3     4    2
   117   119   120    1
   118   134   133   ar
   119   133   132    1
   120   120   121    1
   121   115   117   ar
   122   116   118   ar
   123   132   131    1
   124   117   118   ar
   125   121   122    2
   126   131   128    1
   127   128   129    1
   128   128   127    1
   129   129   130    2
