@<TRIPOS>MOLECULE
tmp/2xn3A00.pdb
 95 88 0 0 0
SMALL
GASTEIGER

@<TRIPOS>ATOM
      1  N         15.3030    5.4450   14.6170 N.3     5  SER5       -0.1202
      2  CA        15.4300    5.8790   16.0080 C.3     5  SER5        0.2020
      3  C         15.3950    4.7100   16.9880 C.2     5  SER5        0.2619
      4  O         15.9750    4.7890   18.0590 O.2     5  SER5       -0.2717
      5  CB        14.3900    6.9430   16.3490 C.3     5  SER5        0.2103
      6  OG        14.7680    8.1740   15.7440 O.3     5  SER5       -0.2182
      7  N         14.7710    3.6120   16.5950 N.am    6  SER6       -0.1951
      8  CA        14.8690    2.3830   17.3610 C.3     6  SER6        0.1924
      9  C         16.2720    1.7440   17.3280 C.2     6  SER6        0.2314
     10  O         16.7630    1.2500   18.3450 O.2     6  SER6       -0.2863
     11  CB        13.8540    1.3810   16.8770 C.3     6  SER6        0.2116
     12  OG        13.8750    0.2570   17.7220 O.3     6  SER6       -0.2180
     13  N         18.4500    3.9840   19.4220 N.3     9  ALA9       -0.1245
     14  CA        18.2100    3.7520   20.8370 C.3     9  ALA9        0.1562
     15  C         18.9830    2.5320   21.3440 C.2     9  ALA9        0.2260
     16  O         19.5430    2.5620   22.4320 O.2     9  ALA9       -0.2867
     17  CB        16.7070    3.5900   21.1060 C.3     9  ALA9        0.0290
     18  N          7.5830    9.6160   34.1690 N.3   220  GLN220     -0.1245
     19  CA         7.7350   10.4700   32.9980 C.3   220  GLN220      0.1566
     20  C          7.3770   11.8700   33.4280 C.2   220  GLN220      0.2260
     21  O          6.2990   12.0800   33.9920 O.2   220  GLN220     -0.2867
     22  CB         6.7670   10.0400   31.8790 C.3   220  GLN220      0.0367
     23  CG         6.6970   10.9930   30.6820 C.3   220  GLN220      0.0905
     24  CD         5.7540   10.5010   29.5930 C.2   220  GLN220      0.2608
     25  OE1        5.8480    9.3540   29.1740 O.2   220  GLN220     -0.2717
     26  NE2        4.8160   11.3590   29.1580 N.am  220  GLN220     -0.0878
     27  N         10.2020   14.8220   26.5540 N.3   228  LEU228     -0.1245
     28  CA         9.9480   14.2830   27.9000 C.3   228  LEU228      0.1561
     29  C         11.2220   13.7970   28.5590 C.2   228  LEU228      0.2260
     30  O         12.2250   13.5900   27.8890 O.2   228  LEU228     -0.2867
     31  CB         8.8930   13.1670   27.8610 C.3   228  LEU228      0.0270
     32  CG         9.2060   11.8870   27.0760 C.3   228  LEU228      0.0019
     33  CD1        9.7660   10.8100   27.9920 C.3   228  LEU228      0.0001
     34  CD2        7.9950   11.3230   26.4070 C.3   228  LEU228      0.0001
     35  N         12.3520   10.6250   31.2340 N.3   230  LEU230     -0.1245
     36  CA        12.0020    9.4010   31.9450 C.3   230  LEU230      0.1561
     37  C         13.0200    9.2250   33.0530 C.2   230  LEU230      0.2260
     38  O         14.2550    9.2450   32.8070 O.2   230  LEU230     -0.2867
     39  CB        12.0690    8.1460   31.0460 C.3   230  LEU230      0.0270
     40  CG        10.9630    7.7380   30.0790 C.3   230  LEU230      0.0019
     41  CD1       11.2420    6.3260   29.5980 C.3   230  LEU230      0.0001
     42  CD2        9.5470    7.8230   30.6900 C.3   230  LEU230      0.0001
     43  N         15.3160   -0.7050   23.1140 N.3   248  SER248     -0.1217
     44  CA        14.2040   -0.0780   22.4170 C.3   248  SER248      0.1889
     45  C         12.9430   -0.8680   22.7020 C.2   248  SER248      0.2288
     46  O         11.9070   -0.2800   22.8670 O.2   248  SER248     -0.2866
     47  CB        14.4420   -0.0230   20.9050 C.3   248  SER248      0.2089
     48  OG        14.7160   -1.3380   20.4220 O.3   248  SER248     -0.2183
     49  N         11.6950    0.2990   25.9860 N.3   251  LEU251     -0.1231
     50  CA        11.0620    1.6400   25.8390 C.3   251  LEU251      0.1693
     51  C          9.6530    1.5410   25.2060 C.2   251  LEU251      0.2591
     52  O          8.7070    2.2300   25.6290 O.2   251  LEU251     -0.2718
     53  CB        11.9540    2.5870   25.0320 C.3   251  LEU251      0.0284
     54  CG        13.2670    3.0490   25.6840 C.3   251  LEU251      0.0019
     55  CD1       14.0040    4.0640   24.8180 C.3   251  LEU251      0.0001
     56  CD2       12.9790    3.6390   27.0680 C.3   251  LEU251      0.0001
     57  N          9.5010    0.6640   24.2120 N.am  252  LYS252     -0.1980
     58  CA         8.1960    0.4620   23.5790 C.3   252  LYS252      0.1596
     59  C          7.1750   -0.0640   24.5680 C.2   252  LYS252      0.2287
     60  O          6.0380    0.4120   24.5990 O.2   252  LYS252     -0.2864
     61  CB         8.2840   -0.4870   22.3970 C.3   252  LYS252      0.0298
     62  CG         8.9450    0.1230   21.1860 C.3   252  LYS252      0.0038
     63  CD         9.1850   -0.9350   20.1070 C.3   252  LYS252      0.0206
     64  CE        10.2140   -0.4840   19.0740 C.3   252  LYS252      0.1093
     65  NZ        10.2460   -1.4080   17.8880 N.3   252  LYS252     -0.1314
     66  N          7.2460    0.3160   27.9460 N.3   254  TRP254     -0.1227
     67  CA         6.8940    1.4020   28.8550 C.3   254  TRP254      0.1737
     68  C          5.9660    2.4120   28.2110 C.2   254  TRP254      0.2595
     69  O          5.0190    2.8410   28.8370 O.2   254  TRP254     -0.2718
     70  CB         8.1180    2.1020   29.4180 C.3   254  TRP254      0.0564
     71  CG         8.9730    1.1950   30.2920 C.ar  254  TRP254      0.0003
     72  CD1        8.6270   -0.0120   30.8040 C.ar  254  TRP254      0.0946
     73  CD2       10.3040    1.4540   30.7430 C.ar  254  TRP254      0.0152
     74  NE1        9.6560   -0.5280   31.5430 N.ar  254  TRP254     -0.2442
     75  CE2       10.7040    0.3490   31.5160 C.ar  254  TRP254      0.0810
     76  CE3       11.1970    2.5140   30.5680 C.ar  254  TRP254      0.0012
     77  CZ2       11.9620    0.2650   32.1160 C.ar  254  TRP254      0.0191
     78  CZ3       12.4480    2.4350   31.1580 C.ar  254  TRP254      0.0001
     79  CH2       12.8190    1.3110   31.9190 C.ar  254  TRP254      0.0015
     80  N          6.2190    2.7530   26.9510 N.am  255  ASN255     -0.1974
     81  CA         5.3290    3.6360   26.2010 C.3   255  ASN255      0.1688
     82  C          3.8740    3.1530   26.2520 C.2   255  ASN255      0.2292
     83  O          2.9470    3.9550   26.4040 O.2   255  ASN255     -0.2864
     84  CB         5.8200    3.7540   24.7570 C.3   255  ASN255      0.1181
     85  CG         5.0050    4.7470   23.9250 C.2   255  ASN255      0.2629
     86  OD1        4.5120    4.3850   22.8610 O.2   255  ASN255     -0.2716
     87  ND2        4.8560    5.9810   24.4060 N.am  255  ASN255     -0.0877
     88  N          2.7680    2.9420   30.6160 N.3   258  LEU258     -0.1245
     89  CA         2.7560    4.1550   31.4010 C.3   258  LEU258      0.1561
     90  C          1.3200    4.6520   31.5630 C.2   258  LEU258      0.2260
     91  O          0.6120    4.7470   30.6010 O.2   258  LEU258     -0.2867
     92  CB         3.6460    5.2040   30.7440 C.3   258  LEU258      0.0270
     93  CG         5.1460    5.0390   31.0460 C.3   258  LEU258      0.0019
     94  CD1        5.9920    5.9510   30.1710 C.3   258  LEU258      0.0001
     95  CD2        5.4260    5.3000   32.5010 C.3   258  LEU258      0.0001
@<TRIPOS>BOND
     1     1     2    1
     2     6     5    1
     3     2     5    1
     4     2     3    1
     5     7     3   am
     6     7     8    1
     7    11     8    1
     8    11    12    1
     9     3     4    2
    10     9     8    1
    11     9    10    2
    12    65    64    1
    13    64    63    1
    14    13    14    1
    15    63    62    1
    16    48    47    1
    17    14    17    1
    18    14    15    1
    19    47    44    1
    20    62    61    1
    21    15    16    2
    22    61    58    1
    23    44    45    1
    24    44    43    1
    25    45    46    2
    26    86    85    2
    27    58    57    1
    28    58    59    1
    29    85    87   am
    30    85    84    1
    31    57    51   am
    32    59    60    2
    33    84    81    1
    34    55    54    1
    35    53    54    1
    36    53    50    1
    37    51    52    2
    38    51    50    1
    39    54    56    1
    40    50    49    1
    41    81    82    1
    42    81    80    1
    43    82    83    2
    44    34    32    1
    45    27    28    1
    46    80    68   am
    47    32    31    1
    48    32    33    1
    49    31    28    1
    50    30    29    2
    51    28    29    1
    52    66    67    1
    53    68    69    2
    54    68    67    1
    55    67    70    1
    56    26    24   am
    57    25    24    2
    58    70    71    1
    59    24    23    1
    60    41    40    1
    61    40    42    1
    62    40    39    1
    63    94    93    1
    64    71    73   ar
    65    71    72   ar
    66    76    73   ar
    67    76    78   ar
    68    91    90    2
    69    88    89    1
    70    23    22    1
    71    73    75   ar
    72    92    93    1
    73    92    89    1
    74    72    74   ar
    75    93    95    1
    76    39    36    1
    77    78    79   ar
    78    35    36    1
    79    89    90    1
    80    75    74   ar
    81    75    77   ar
    82    22    19    1
    83    79    77   ar
    84    36    37    1
    85    38    37    2
    86    19    20    1
    87    19    18    1
    88    20    21    2
