@<TRIPOS>MOLECULE
tmp/2xn5A00.pdb
 95 88 0 0 0
SMALL
GASTEIGER

@<TRIPOS>ATOM
      1  N        -15.9380  -15.1830   13.5530 N.3     9  SER9       -0.1202
      2  CA       -15.9060  -14.8470   12.1300 C.3     9  SER9        0.2020
      3  C        -15.9390  -16.0920   11.2440 C.2     9  SER9        0.2619
      4  O        -16.5370  -16.0590   10.1640 O.2     9  SER9       -0.2717
      5  CB       -14.6990  -13.9670   11.7820 C.3     9  SER9        0.2103
      6  OG       -13.4840  -14.6840   11.8810 O.3     9  SER9       -0.2182
      7  N        -15.3150  -17.1830   11.7050 N.am   10  SER10      -0.1951
      8  CA       -15.3230  -18.4590   10.9580 C.3    10  SER10       0.1924
      9  C        -16.7200  -19.0950   10.9690 C.2    10  SER10       0.2314
     10  O        -17.1770  -19.6300    9.9570 O.2    10  SER10      -0.2863
     11  CB       -14.3130  -19.4620   11.5300 C.3    10  SER10       0.2116
     12  OG       -12.9720  -19.1440   11.1700 O.3    10  SER10      -0.2180
     13  N        -18.8250  -16.9640    8.7670 N.3    13  ALA13      -0.1245
     14  CA       -18.5400  -17.1670    7.3410 C.3    13  ALA13       0.1562
     15  C        -19.2260  -18.4350    6.8310 C.2    13  ALA13       0.2260
     16  O        -19.7400  -18.4700    5.7190 O.2    13  ALA13      -0.2867
     17  CB       -17.0320  -17.2240    7.0870 C.3    13  ALA13       0.0290
     18  N         -7.6110  -11.4290   -6.0590 N.3   224  GLN224     -0.1245
     19  CA        -7.7800  -10.5410   -4.9200 C.3   224  GLN224      0.1566
     20  C         -7.4030   -9.1280   -5.3240 C.2   224  GLN224      0.2260
     21  O         -6.3230   -8.9090   -5.8730 O.2   224  GLN224     -0.2867
     22  CB        -6.8720  -10.9820   -3.7790 C.3   224  GLN224      0.0367
     23  CG        -6.8000  -10.0070   -2.5960 C.3   224  GLN224      0.0905
     24  CD        -5.9520  -10.5380   -1.4580 C.2   224  GLN224      0.2608
     25  OE1       -6.1200  -11.6770   -1.0370 O.2   224  GLN224     -0.2717
     26  NE2       -5.0170   -9.7170   -0.9630 N.am  224  GLN224     -0.0878
     27  N        -10.2080   -6.1820    1.5750 N.3   232  LEU232     -0.1245
     28  CA        -9.9580   -6.7060    0.2370 C.3   232  LEU232      0.1561
     29  C        -11.2190   -7.2750   -0.3910 C.2   232  LEU232      0.2260
     30  O        -12.1890   -7.5810    0.3070 O.2   232  LEU232     -0.2867
     31  CB        -8.8580   -7.7660    0.2980 C.3   232  LEU232      0.0270
     32  CG        -9.1760   -9.0080    1.1360 C.3   232  LEU232      0.0019
     33  CD1       -9.8560  -10.0720    0.2460 C.3   232  LEU232      0.0001
     34  CD2       -7.9200   -9.5640    1.7610 C.3   232  LEU232      0.0001
     35  N        -12.4420  -10.3780   -3.0950 N.3   234  LEU234     -0.1245
     36  CA       -12.0750  -11.5940   -3.8220 C.3   234  LEU234      0.1561
     37  C        -13.0800  -11.8380   -4.9300 C.2   234  LEU234      0.2260
     38  O        -14.2930  -11.8350   -4.7030 O.2   234  LEU234     -0.2867
     39  CB       -12.0330  -12.8220   -2.8980 C.3   234  LEU234      0.0270
     40  CG       -11.0410  -12.8150   -1.7370 C.3   234  LEU234      0.0019
     41  CD1      -11.3050  -13.9930   -0.8060 C.3   234  LEU234      0.0001
     42  CD2       -9.5930  -12.8390   -2.2350 C.3   234  LEU234      0.0001
     43  N        -15.6830  -21.5510    5.2610 N.3   252  SER252     -0.1217
     44  CA       -14.5660  -20.8950    5.9400 C.3   252  SER252      0.1889
     45  C        -13.2460  -21.6160    5.6490 C.2   252  SER252      0.2288
     46  O        -12.2070  -20.9620    5.5110 O.2   252  SER252     -0.2866
     47  CB       -14.8070  -20.8180    7.4500 C.3   252  SER252      0.2089
     48  OG       -14.9760  -22.1020    8.0290 O.3   252  SER252     -0.2183
     49  N        -11.6180  -20.3570    2.5170 N.3   255  LEU255     -0.1231
     50  CA       -10.9580  -19.0710    2.6920 C.3   255  LEU255      0.1693
     51  C         -9.6270  -19.2410    3.4370 C.2   255  LEU255      0.2591
     52  O         -8.6390  -18.5910    3.1050 O.2   255  LEU255     -0.2718
     53  CB       -11.8900  -18.0650    3.3950 C.3   255  LEU255      0.0284
     54  CG       -13.2100  -17.7690    2.6610 C.3   255  LEU255      0.0019
     55  CD1      -13.8960  -16.5340    3.2110 C.3   255  LEU255      0.0001
     56  CD2      -13.0240  -17.6150    1.1540 C.3   255  LEU255      0.0001
     57  N         -9.5970  -20.1200    4.4330 N.am  256  LYS256     -0.1980
     58  CA        -8.3570  -20.4290    5.1400 C.3   256  LYS256      0.1596
     59  C         -7.3020  -21.0270    4.2050 C.2   256  LYS256      0.2287
     60  O         -6.1150  -20.7210    4.3310 O.2   256  LYS256     -0.2864
     61  CB        -8.6400  -21.3510    6.3310 C.3   256  LYS256      0.0298
     62  CG        -9.4340  -20.6610    7.4450 C.3   256  LYS256      0.0038
     63  CD        -9.7170  -21.5700    8.6450 C.3   256  LYS256      0.0206
     64  CE       -10.6360  -20.8980    9.6590 C.3   256  LYS256      0.1093
     65  NZ       -11.0410  -21.8260   10.7600 N.3   256  LYS256     -0.1314
     66  N         -7.2210  -20.5850    0.7840 N.3   258  TRP258     -0.1227
     67  CA        -6.8200  -19.5330   -0.1570 C.3   258  TRP258      0.1737
     68  C         -5.8750  -18.5120    0.4960 C.2   258  TRP258      0.2595
     69  O         -4.9710  -17.9880   -0.1710 O.2   258  TRP258     -0.2718
     70  CB        -8.0330  -18.8230   -0.7930 C.3   258  TRP258      0.0564
     71  CG        -8.8630  -19.6920   -1.7370 C.ar  258  TRP258      0.0003
     72  CD1       -8.5090  -20.9000   -2.2780 C.ar  258  TRP258      0.0946
     73  CD2      -10.1670  -19.3940   -2.2590 C.ar  258  TRP258      0.0152
     74  NE1       -9.5130  -21.3790   -3.0800 N.ar  258  TRP258     -0.2442
     75  CE2      -10.5400  -20.4740   -3.0960 C.ar  258  TRP258      0.0810
     76  CE3      -11.0590  -18.3340   -2.0930 C.ar  258  TRP258      0.0012
     77  CZ2      -11.7680  -20.5170   -3.7630 C.ar  258  TRP258      0.0191
     78  CZ3      -12.2830  -18.3810   -2.7580 C.ar  258  TRP258      0.0001
     79  CH2      -12.6210  -19.4680   -3.5870 C.ar  258  TRP258      0.0015
     80  N         -6.0900  -18.2160    1.7770 N.am  259  ASN259     -0.1974
     81  CA        -5.1840  -17.3330    2.5120 C.3   259  ASN259      0.1688
     82  C         -3.7200  -17.7940    2.4000 C.2   259  ASN259      0.2292
     83  O         -2.7970  -16.9700    2.2630 O.2   259  ASN259     -0.2864
     84  CB        -5.5980  -17.2460    3.9830 C.3   259  ASN259      0.1181
     85  CG        -4.6740  -16.3570    4.7980 C.2   259  ASN259      0.2629
     86  OD1       -4.6670  -15.1370    4.6300 O.2   259  ASN259     -0.2716
     87  ND2       -3.8930  -16.9680    5.6910 N.am  259  ASN259     -0.0877
     88  N         -2.7440  -18.0530   -2.0260 N.3   262  LEU262     -0.1245
     89  CA        -2.7030  -16.8400   -2.8560 C.3   262  LEU262      0.1561
     90  C         -1.2710  -16.3040   -2.9620 C.2   262  LEU262      0.2260
     91  O         -0.5850  -16.1790   -1.9530 O.2   262  LEU262     -0.2867
     92  CB        -3.6220  -15.7640   -2.2840 C.3   262  LEU262      0.0270
     93  CG        -5.1150  -15.9780   -2.5500 C.3   262  LEU262      0.0019
     94  CD1       -5.9450  -15.1130   -1.6040 C.3   262  LEU262      0.0001
     95  CD2       -5.4550  -15.6660   -4.0070 C.3   262  LEU262      0.0001
@<TRIPOS>BOND
     1    18    19    1
     2    21    20    2
     3    20    19    1
     4    37    38    2
     5    37    36    1
     6    19    22    1
     7    95    93    1
     8    36    35    1
     9    36    39    1
    10    22    23    1
    11    77    79   ar
    12    77    75   ar
    13    79    78   ar
    14    75    74   ar
    15    75    73   ar
    16    74    72   ar
    17    90    89    1
    18    90    91    2
    19    39    40    1
    20    89    92    1
    21    89    88    1
    22    78    76   ar
    23    23    24    1
    24    93    92    1
    25    93    94    1
    26    72    71   ar
    27    73    76   ar
    28    73    71   ar
    29    42    40    1
    30    40    41    1
    31    71    70    1
    32    24    25    2
    33    24    26   am
    34    70    67    1
    35    29    28    1
    36    29    30    2
    37    69    68    2
    38    67    68    1
    39    67    66    1
    40    28    31    1
    41    28    27    1
    42    33    32    1
    43    31    32    1
    44    68    80   am
    45    32    34    1
    46    56    54    1
    47    80    81    1
    48    83    82    2
    49    82    81    1
    50    81    84    1
    51    49    50    1
    52    54    55    1
    53    54    53    1
    54    50    53    1
    55    50    51    1
    56    52    51    2
    57    51    57   am
    58    84    85    1
    59    59    60    2
    60    59    58    1
    61    57    58    1
    62    86    85    2
    63    85    87   am
    64    58    61    1
    65    43    44    1
    66    46    45    2
    67    45    44    1
    68    16    15    2
    69    44    47    1
    70    61    62    1
    71    15    14    1
    72    17    14    1
    73    14    13    1
    74    62    63    1
    75    47    48    1
    76    63    64    1
    77    64    65    1
    78    10     9    2
    79     4     3    2
    80     8     9    1
    81     8    11    1
    82     8     7    1
    83    12    11    1
    84     3     7   am
    85     3     2    1
    86     5     6    1
    87     5     2    1
    88     2     1    1
