@<TRIPOS>MOLECULE
tmp/2xn7A01.pdb
 102 98 0 0 0
SMALL
GASTEIGER

@<TRIPOS>ATOM
      1  N         -2.3460  -10.6970   -5.5330 N.3   209  TYR209     -0.1241
      2  CA        -2.4430  -12.0620   -5.0090 C.3   209  TYR209      0.1605
      3  C         -3.5320  -12.7860   -5.7930 C.2   209  TYR209      0.2264
      4  O         -4.6680  -12.3130   -5.9000 O.2   209  TYR209     -0.2867
      5  CB        -2.7830  -12.0350   -3.5220 C.3   209  TYR209      0.0534
      6  CG        -1.6330  -11.7190   -2.6180 C.ar  209  TYR209     -0.0201
      7  CD1       -0.7370  -12.7000   -2.2390 C.ar  209  TYR209     -0.0009
      8  CD2       -1.4350  -10.4410   -2.1400 C.ar  209  TYR209     -0.0009
      9  CE1        0.3320  -12.4340   -1.3990 C.ar  209  TYR209      0.0417
     10  CE2       -0.3540  -10.1450   -1.3130 C.ar  209  TYR209      0.0417
     11  CZ         0.5200  -11.1460   -0.9360 C.ar  209  TYR209      0.1957
     12  OH         1.5760  -10.8070   -0.0930 O.3   209  TYR209     -0.2866
     13  N         -7.4590  -11.5430   -5.4730 N.3   222  GLN222     -0.1245
     14  CA        -7.6020  -10.6270   -4.3440 C.3   222  GLN222      0.1566
     15  C         -7.2460   -9.2250   -4.8110 C.2   222  GLN222      0.2260
     16  O         -6.1710   -9.0010   -5.3590 O.2   222  GLN222     -0.2867
     17  CB        -6.6880  -11.0280   -3.1970 C.3   222  GLN222      0.0367
     18  CG        -6.6230  -10.0610   -2.0240 C.3   222  GLN222      0.0905
     19  CD        -5.6350  -10.5180   -0.9690 C.2   222  GLN222      0.2608
     20  OE1       -5.6350  -11.6950   -0.5830 O.2   222  GLN222     -0.2717
     21  NE2       -4.7770   -9.6100   -0.5150 N.am  222  GLN222     -0.0878
     22  N         -6.7900   -5.5850   -3.0990 N.3   224  ASP224     -0.1225
     23  CA        -6.7520   -4.8490   -1.8320 C.3   224  ASP224      0.1805
     24  C         -7.3680   -3.4600   -1.9510 C.2   224  ASP224      0.2598
     25  O         -7.2310   -2.7930   -2.9820 O.2   224  ASP224     -0.2718
     26  CB        -5.3160   -4.6850   -1.3430 C.3   224  ASP224      0.1424
     27  CG        -4.7200   -5.9610   -0.7790 C.2   224  ASP224      0.3668
     28  OD1       -5.4500   -6.9170   -0.4870 O.co2 224  ASP224     -0.2456
     29  OD2       -3.4930   -5.9680   -0.5790 O.co2 224  ASP224     -0.2456
     30  N         -8.0360   -3.0480   -0.8830 N.am  225  TYR225     -0.1962
     31  CA        -8.3690   -1.6550   -0.6860 C.3   225  TYR225      0.1771
     32  C         -7.1730   -1.0090    0.0080 C.2   225  TYR225      0.2620
     33  O         -6.2170   -1.6690    0.3600 O.2   225  TYR225     -0.2715
     34  CB        -9.6820   -1.4990    0.0880 C.3   225  TYR225      0.0574
     35  CG       -10.8620   -2.0580   -0.6950 C.ar  225  TYR225     -0.0198
     36  CD1      -11.4380   -3.2720   -0.3380 C.ar  225  TYR225     -0.0009
     37  CD2      -11.3610   -1.4100   -1.8240 C.ar  225  TYR225     -0.0009
     38  CE1      -12.4990   -3.7920   -1.0280 C.ar  225  TYR225      0.0417
     39  CE2      -12.4420   -1.9430   -2.5460 C.ar  225  TYR225      0.0417
     40  CZ       -13.0050   -3.1430   -2.1330 C.ar  225  TYR225      0.1957
     41  OH       -14.0600   -3.7180   -2.8120 O.3   225  TYR225     -0.2866
     42  N         -7.1750    0.3000    0.1350 N.am  226  SER226     -0.1936
     43  CA        -5.9520    0.9640    0.5590 C.3   226  SER226      0.2055
     44  C         -5.6440    0.7530    2.0430 C.2   226  SER226      0.2643
     45  O         -4.5070    0.9520    2.4680 O.2   226  SER226     -0.2714
     46  CB        -5.9940    2.4410    0.1980 C.3   226  SER226      0.2130
     47  OG        -7.1010    3.0680    0.7790 O.3   226  SER226     -0.2179
     48  N         -6.6390    0.3470    2.8300 N.am  227  LYS227     -0.1963
     49  CA        -6.3840   -0.0460    4.2150 C.3   227  LYS227      0.1728
     50  C         -7.4580   -0.9530    4.8320 C.2   227  LYS227      0.2616
     51  O         -8.6690   -0.6840    4.7280 O.2   227  LYS227     -0.2715
     52  CB        -6.1530    1.1930    5.0990 C.3   227  LYS227      0.0311
     53  CG        -4.7590    1.8200    4.9510 C.3   227  LYS227      0.0038
     54  CD        -4.0900    2.1060    6.2950 C.3   227  LYS227      0.0206
     55  CE        -4.8030    3.1940    7.0770 C.3   227  LYS227      0.1093
     56  NZ        -4.0590    3.5840    8.3070 N.3   227  LYS227     -0.1314
     57  N         -6.9770   -2.0390    5.4510 N.am  228  ASN228     -0.1958
     58  CA        -7.7770   -2.9100    6.3200 C.3   228  ASN228      0.1819
     59  C         -8.9410   -3.6390    5.6520 C.2   228  ASN228      0.2621
     60  O         -9.8190   -4.1430    6.3280 O.2   228  ASN228     -0.2715
     61  CB        -8.2990   -2.1140    7.5220 C.3   228  ASN228      0.1195
     62  CG        -8.9270   -2.9970    8.5830 C.2   228  ASN228      0.2630
     63  OD1       -8.4530   -4.1040    8.8540 O.2   228  ASN228     -0.2716
     64  ND2      -10.0110   -2.5140    9.1820 N.am  228  ASN228     -0.0877
     65  N         -8.9530   -3.7120    4.3290 N.am  229  ALA229     -0.1963
     66  CA       -10.0380   -4.4230    3.6500 C.3   229  ALA229      0.1728
     67  C         -9.5850   -4.9180    2.2820 C.2   229  ALA229      0.2616
     68  O         -8.6120   -4.4180    1.7210 O.2   229  ALA229     -0.2715
     69  CB       -11.2390   -3.5260    3.5150 C.3   229  ALA229      0.0334
     70  N        -10.2620   -5.9440    1.7750 N.am  230  LEU230     -0.1977
     71  CA        -9.9550   -6.4910    0.4480 C.3   230  LEU230      0.1596
     72  C        -11.2110   -7.0370   -0.1830 C.2   230  LEU230      0.2287
     73  O        -12.2070   -7.2880    0.5060 O.2   230  LEU230     -0.2864
     74  CB        -8.9070   -7.5990    0.5120 C.3   230  LEU230      0.0297
     75  CG        -9.3250   -8.7960    1.3650 C.3   230  LEU230      0.0022
     76  CD1      -10.0000   -9.9230    0.5720 C.3   230  LEU230      0.0001
     77  CD2       -8.1120   -9.3360    2.0900 C.3   230  LEU230      0.0001
     78  N         -6.1560  -18.5600    1.5710 N.3   257  ASN257     -0.1240
     79  CA        -5.2670  -17.5790    2.2210 C.3   257  ASN257      0.1653
     80  C         -3.8170  -18.0540    2.2040 C.2   257  ASN257      0.2266
     81  O         -2.8870  -17.2570    2.0560 O.2   257  ASN257     -0.2867
     82  CB        -5.7050  -17.3230    3.6650 C.3   257  ASN257      0.1155
     83  CG        -4.8260  -16.3180    4.3840 C.2   257  ASN257      0.2627
     84  OD1       -4.0430  -16.6760    5.2710 O.2   257  ASN257     -0.2716
     85  ND2       -4.9560  -15.0550    4.0120 N.am  257  ASN257     -0.0877
     86  N         -2.6610  -18.1670   -1.9810 N.3   260  LEU260     -0.1245
     87  CA        -2.5660  -16.9260   -2.7700 C.3   260  LEU260      0.1561
     88  C         -1.1200  -16.4470   -2.9240 C.2   260  LEU260      0.2260
     89  O         -0.3860  -16.3640   -1.9600 O.2   260  LEU260     -0.2867
     90  CB        -3.4380  -15.8330   -2.1530 C.3   260  LEU260      0.0270
     91  CG        -4.9370  -15.9730   -2.3650 C.3   260  LEU260      0.0019
     92  CD1       -5.6690  -15.1470   -1.2960 C.3   260  LEU260      0.0001
     93  CD2       -5.3630  -15.5860   -3.7730 C.3   260  LEU260      0.0001
     94  N          1.3470  -13.3960   -4.9440 N.3   262  LYS262     -0.1245
     95  CA         1.3330  -12.1350   -5.6530 C.3   262  LYS262      0.1561
     96  C          2.1840  -12.2030   -6.9100 C.2   262  LYS262      0.2260
     97  O          3.3590  -12.5740   -6.8620 O.2   262  LYS262     -0.2867
     98  CB         1.8150  -11.0140   -4.7320 C.3   262  LYS262      0.0271
     99  CG         1.6870   -9.6460   -5.3550 C.3   262  LYS262      0.0035
    100  CD         1.8930   -8.5180   -4.3380 C.3   262  LYS262      0.0206
    101  CE         0.5910   -7.8640   -3.9120 C.3   262  LYS262      0.1093
    102  NZ         0.8210   -6.5420   -3.2550 N.3   262  LYS262     -0.1314
@<TRIPOS>BOND
     1    96    97    2
     2    96    95    1
     3     4     3    2
     4     3     2    1
     5    95    94    1
     6    95    98    1
     7     1     2    1
     8    13    14    1
     9    16    15    2
    10    99    98    1
    11    99   100    1
    12     2     5    1
    13    15    14    1
    14    14    17    1
    15   100   101    1
    16   101   102    1
    17    93    91    1
    18     5     6    1
    19    17    18    1
    20    22    23    1
    21    25    24    2
    22    88    87    1
    23    88    89    2
    24    41    40    1
    25    87    90    1
    26    87    86    1
    27     6     7   ar
    28     6     8   ar
    29    39    40   ar
    30    39    37   ar
    31    91    90    1
    32    91    92    1
    33     7     9   ar
    34     8    10   ar
    35    40    38   ar
    36    18    19    1
    37    24    23    1
    38    24    30   am
    39    23    26    1
    40    37    35   ar
    41     9    11   ar
    42    26    27    1
    43    10    11   ar
    44    38    36   ar
    45    19    20    2
    46    19    21   am
    47    11    12    1
    48    30    31    1
    49    27    29   ar
    50    27    28   ar
    51    35    36   ar
    52    35    34    1
    53    31    32    1
    54    31    34    1
    55    72    71    1
    56    72    73    2
    57    32    42   am
    58    32    33    2
    59    42    43    1
    60    46    43    1
    61    46    47    1
    62    71    74    1
    63    71    70    1
    64    74    75    1
    65    43    44    1
    66    76    75    1
    67    75    77    1
    68    78    79    1
    69    68    67    2
    70    70    67   am
    71    44    45    2
    72    44    48   am
    73    81    80    2
    74    80    79    1
    75    79    82    1
    76    67    66    1
    77    48    49    1
    78    69    66    1
    79    66    65    1
    80    82    83    1
    81    85    83   am
    82    49    50    1
    83    49    52    1
    84    65    59   am
    85    83    84    2
    86    51    50    2
    87    50    57   am
    88    53    52    1
    89    53    54    1
    90    57    58    1
    91    59    58    1
    92    59    60    2
    93    54    55    1
    94    58    61    1
    95    55    56    1
    96    61    62    1
    97    62    63    2
    98    62    64   am
