@<TRIPOS>MOLECULE
tmp/2xnbA00.pdb
 175 168 0 0 0
SMALL
GASTEIGER

@<TRIPOS>ATOM
      1  N         27.1890   23.4350   31.3950 N.3    10  ILE10      -0.1231
      2  CA        26.0530   23.7970   30.5390 C.3    10  ILE10       0.1696
      3  C         26.2830   23.5370   29.0530 C.2    10  ILE10       0.2632
      4  O         25.4020   23.8050   28.2290 O.2    10  ILE10      -0.2714
      5  CB        25.5620   25.2400   30.7640 C.3    10  ILE10       0.0266
      6  CG1       26.6490   26.2970   30.4890 C.3    10  ILE10       0.0019
      7  CG2       25.0290   25.4030   32.1770 C.3    10  ILE10       0.0020
      8  CD1       26.1300   27.6910   30.7470 C.3    10  ILE10       0.0001
      9  N         27.4720   23.0560   28.6980 N.am   11  GLY11      -0.1718
     10  CA        27.8210   22.9670   27.2900 C.2    11  GLY11       0.1480
     11  C         29.2580   22.6220   26.9780 C.2    11  GLY11       0.2820
     12  O         30.0680   22.3660   27.8630 O.2    11  GLY11      -0.2669
     13  N         29.5170   22.5190   25.6790 N.am   12  GLU12      -0.1929
     14  CA        30.8650   22.5680   25.1120 C.3    12  GLU12       0.1736
     15  C         30.9240   23.6200   23.9790 C.2    12  GLU12       0.2617
     16  O         29.9830   23.7670   23.1880 O.2    12  GLU12      -0.2715
     17  CB        31.2910   21.1690   24.6310 C.3    12  GLU12       0.0429
     18  CG        31.0930   20.8960   23.1390 C.3    12  GLU12       0.1163
     19  CD        29.6390   20.6110   22.7370 C.2    12  GLU12       0.3649
     20  OE1       28.8720   20.0570   23.5590 O.co2  12  GLU12      -0.2457
     21  OE2       29.2750   20.8980   21.5700 O.co2  12  GLU12      -0.2457
     22  N         31.9780   24.4340   23.9780 N.am   13  GLY13      -0.1955
     23  CA        32.2160   25.3730   22.8830 C.3    13  GLY13       0.1869
     24  C         33.1680   24.8460   21.8160 C.2    13  GLY13       0.2309
     25  O         33.9070   25.6310   21.2220 O.2    13  GLY13      -0.2863
     26  N         32.0480   24.7230   28.7770 N.3    18  VAL18      -0.1245
     27  CA        31.3800   25.8850   29.4020 C.3    18  VAL18       0.1561
     28  C         30.5740   25.5060   30.6620 C.2    18  VAL18       0.2260
     29  O         29.7720   24.5850   30.6270 O.2    18  VAL18      -0.2867
     30  CB        30.4220   26.6160   28.4350 C.3    18  VAL18       0.0252
     31  CG1       30.1500   28.0730   28.9900 C.3    18  VAL18       0.0019
     32  CG2       31.0140   26.7230   27.0050 C.3    18  VAL18       0.0019
     33  N         28.5330   32.5670   32.6130 N.3    31  ALA31      -0.1245
     34  CA        28.9640   31.3880   31.8790 C.3    31  ALA31       0.1562
     35  C         30.4960   31.4350   31.7710 C.2    31  ALA31       0.2260
     36  O         31.0950   32.3240   31.1700 O.2    31  ALA31      -0.2867
     37  CB        28.2490   31.3290   30.4980 C.3    31  ALA31       0.0290
     38  N         33.7990   29.8440   30.2850 N.3    33  LYS33      -0.1245
     39  CA        34.3820   28.9870   29.2580 C.3    33  LYS33       0.1561
     40  C         35.8830   28.8160   29.4500 C.2    33  LYS33       0.2260
     41  O         36.6510   29.7900   29.3780 O.2    33  LYS33      -0.2867
     42  CB        34.1120   29.5660   27.8660 C.3    33  LYS33       0.0271
     43  CG        34.4070   28.6190   26.7450 C.3    33  LYS33       0.0035
     44  CD        34.1030   29.2330   25.4060 C.3    33  LYS33       0.0206
     45  CE        34.1150   28.1780   24.3060 C.3    33  LYS33       0.1093
     46  NZ        33.2790   28.6190   23.1650 N.3    33  LYS33      -0.1314
     47  N         26.1690   37.8800   23.0520 N.3    62  VAL62      -0.1245
     48  CA        26.4210   37.5600   24.4570 C.3    62  VAL62       0.1561
     49  C         27.6690   38.2590   25.0050 C.2    62  VAL62       0.2260
     50  O         28.7830   38.0370   24.5200 O.2    62  VAL62      -0.2867
     51  CB        26.6010   36.0600   24.6800 C.3    62  VAL62       0.0252
     52  CG1       27.1900   35.7680   26.0450 C.3    62  VAL62       0.0019
     53  CG2       25.2470   35.4120   24.5650 C.3    62  VAL62       0.0019
     54  N         31.4430   35.0220   30.2960 N.3    78  PHE78      -0.1227
     55  CA        30.2780   35.6920   29.6540 C.3    78  PHE78       0.1736
     56  C         29.1370   35.9530   30.6540 C.2    78  PHE78       0.2595
     57  O         28.9600   35.2150   31.6270 O.2    78  PHE78      -0.2718
     58  CB        29.7510   34.8220   28.4970 C.3    78  PHE78       0.0547
     59  CG        30.7990   34.4690   27.4510 C.ar   78  PHE78      -0.0202
     60  CD1       30.9640   35.2490   26.3180 C.ar   78  PHE78      -0.0042
     61  CD2       31.4410   33.2390   27.4800 C.ar   78  PHE78      -0.0042
     62  CE1       31.9230   34.9350   25.3510 C.ar   78  PHE78      -0.0003
     63  CE2       32.4350   32.9340   26.5460 C.ar   78  PHE78      -0.0003
     64  CZ        32.6320   33.7400   25.4500 C.ar   78  PHE78      -0.0000
     65  N         28.3260   36.9780   30.4130 N.am   79  GLU79      -0.1965
     66  CA        27.0130   37.0340   31.0410 C.3    79  GLU79       0.1733
     67  C         26.3520   35.6620   30.8440 C.2    79  GLU79       0.2616
     68  O         26.5400   35.0310   29.8130 O.2    79  GLU79      -0.2715
     69  CB        26.1670   38.1420   30.4070 C.3    79  GLU79       0.0429
     70  CG        25.7580   37.9020   28.9640 C.3    79  GLU79       0.1163
     71  CD        24.7710   38.9580   28.4680 C.2    79  GLU79       0.3649
     72  OE1       24.2430   39.6730   29.3340 O.co2  79  GLU79      -0.2457
     73  OE2       24.6480   39.1930   27.2430 O.co2  79  GLU79      -0.2457
     74  N         25.5440   35.2430   31.8100 N.am   80  PHE80      -0.1960
     75  CA        24.7940   33.9790   31.7470 C.3    80  PHE80       0.1771
     76  C         23.3670   34.3140   31.2570 C.2    80  PHE80       0.2619
     77  O         22.8250   35.3850   31.6020 O.2    80  PHE80      -0.2715
     78  CB        24.7610   33.3300   33.1470 C.3    80  PHE80       0.0574
     79  CG        23.9580   32.0430   33.2190 C.ar   80  PHE80      -0.0200
     80  CD1       24.4500   30.9240   32.6130 C.ar   80  PHE80      -0.0042
     81  CD2       22.6670   32.0320   33.6980 C.ar   80  PHE80      -0.0042
     82  CE1       23.7740   29.7400   32.6900 C.ar   80  PHE80      -0.0003
     83  CE2       21.9400   30.8640   33.7340 C.ar   80  PHE80      -0.0003
     84  CZ        22.5030   29.7030   33.2240 C.ar   80  PHE80      -0.0000
     85  N         22.8790   33.5290   30.2840 N.am   81  LEU81      -0.1963
     86  CA        21.4940   33.6270   29.8340 C.3    81  LEU81       0.1728
     87  C         20.9090   32.2660   30.1430 C.2    81  LEU81       0.2616
     88  O         21.6520   31.2920   30.3220 O.2    81  LEU81      -0.2715
     89  CB        21.4570   33.9660   28.3320 C.3    81  LEU81       0.0311
     90  CG        21.6200   35.4670   28.0100 C.3    81  LEU81       0.0022
     91  CD1       23.0430   35.7250   27.5270 C.3    81  LEU81       0.0001
     92  CD2       20.5920   35.9620   26.9820 C.3    81  LEU81       0.0001
     93  N         19.6030   32.1720   30.3300 N.am   82  HIS82      -0.1959
     94  CA        19.1180   31.0160   31.0640 C.3    82  HIS82       0.1787
     95  C         18.8520   29.7770   30.2440 C.2    82  HIS82       0.2620
     96  O         18.6480   28.7180   30.8120 O.2    82  HIS82      -0.2715
     97  CB        17.9240   31.3790   31.9350 C.3    82  HIS82       0.0785
     98  CG        18.3100   31.6960   33.3460 C.ar   82  HIS82       0.0821
     99  ND1       18.7150   32.9550   33.7400 N.ar   82  HIS82      -0.2267
    100  CD2       18.4700   30.8920   34.4250 C.ar   82  HIS82       0.1154
    101  CE1       19.0910   32.9150   35.0060 C.ar   82  HIS82       0.1986
    102  NE2       18.9220   31.6820   35.4540 N.ar   82  HIS82      -0.2212
    103  N         18.8670   29.9020   28.9170 N.am   83  GLN83      -0.1963
    104  CA        18.8220   28.7290   28.0560 C.3    83  GLN83       0.1733
    105  C         19.2130   29.0090   26.6070 C.2    83  GLN83       0.2616
    106  O         19.1810   30.1380   26.1390 O.2    83  GLN83      -0.2715
    107  CB        17.4380   28.0940   28.0890 C.3    83  GLN83       0.0408
    108  CG        16.2780   29.0410   27.8340 C.3    83  GLN83       0.0908
    109  CD        14.9560   28.2900   27.8670 C.2    83  GLN83       0.2608
    110  OE1       14.2180   28.3460   28.8520 O.2    83  GLN83      -0.2717
    111  NE2       14.6900   27.5230   26.8140 N.am   83  GLN83      -0.0878
    112  N         19.4390   27.9390   25.8530 N.am   84  ASP84      -0.1971
    113  CA        19.6780   28.0510   24.4230 C.3    84  ASP84       0.1709
    114  C         18.3850   27.8770   23.6160 C.2    84  ASP84       0.2293
    115  O         17.2830   27.6670   24.1580 O.2    84  ASP84      -0.2864
    116  CB        20.8260   27.1240   23.9660 C.3    84  ASP84       0.1436
    117  CG        20.4870   25.6410   24.0930 C.2    84  ASP84       0.3671
    118  OD1       19.3350   25.3100   24.3860 O.co2  84  ASP84      -0.2456
    119  OD2       21.3530   24.8010   23.8050 O.co2  84  ASP84      -0.2456
    120  N         17.9840   25.9270   21.1790 N.3    86  LYS86      -0.1231
    121  CA        17.7130   24.4930   21.0200 C.3    86  LYS86       0.1693
    122  C         16.7310   23.9450   22.0540 C.2    86  LYS86       0.2591
    123  O         15.8770   23.0880   21.7320 O.2    86  LYS86      -0.2718
    124  CB        19.0230   23.7020   21.0700 C.3    86  LYS86       0.0285
    125  CG        18.8290   22.2160   21.1320 C.3    86  LYS86       0.0035
    126  CD        18.7570   21.5930   19.7550 C.3    86  LYS86       0.0206
    127  CE        17.9790   20.2750   19.7740 C.3    86  LYS86       0.1093
    128  NZ        18.6250   19.2940   20.6980 N.3    86  LYS86      -0.1314
    129  N         16.8260   24.3920   23.3020 N.am   87  LYS87      -0.1980
    130  CA        15.9310   23.8310   24.3300 C.3    87  LYS87       0.1596
    131  C         14.4990   24.3460   24.1710 C.2    87  LYS87       0.2287
    132  O         13.5260   23.6010   24.3240 O.2    87  LYS87      -0.2864
    133  CB        16.4480   24.1020   25.7400 C.3    87  LYS87       0.0298
    134  CG        15.7730   23.2030   26.8010 C.3    87  LYS87       0.0038
    135  CD        16.2750   23.4770   28.2170 C.3    87  LYS87       0.0206
    136  CE        15.7750   24.8150   28.7410 C.3    87  LYS87       0.1093
    137  NZ        15.2410   24.7030   30.1320 N.3    87  LYS87      -0.1314
    138  N         22.2440   25.9050   19.4050 N.3   129  GLN129     -0.1231
    139  CA        23.0620   25.7690   20.6290 C.3   129  GLN129      0.1698
    140  C         23.9300   27.0120   20.9700 C.2   129  GLN129      0.2592
    141  O         24.2890   27.2200   22.1350 O.2   129  GLN129     -0.2718
    142  CB        23.9200   24.5080   20.4470 C.3   129  GLN129      0.0381
    143  CG        23.0820   23.2310   20.1870 C.3   129  GLN129      0.0905
    144  CD        22.7750   22.9000   18.6890 C.2   129  GLN129      0.2608
    145  OE1       22.9500   23.7120   17.8000 O.2   129  GLN129     -0.2717
    146  NE2       22.2430   21.7110   18.4440 N.am  129  GLN129     -0.0878
    147  N         24.2620   27.8080   19.9480 N.am  130  ASN130     -0.1974
    148  CA        25.0270   29.0800   20.0610 C.3   130  ASN130      0.1688
    149  C         24.1460   30.3200   20.0550 C.2   130  ASN130      0.2292
    150  O         24.6130   31.4740   19.9310 O.2   130  ASN130     -0.2864
    151  CB        25.9870   29.1640   18.8810 C.3   130  ASN130      0.1181
    152  CG        27.0810   28.1460   19.0110 C.2   130  ASN130      0.2629
    153  OD1       27.3720   27.7230   20.1420 O.2   130  ASN130     -0.2716
    154  ND2       27.7530   27.8160   17.9200 N.am  130  ASN130     -0.0877
    155  N         21.3350   32.0880   22.5120 N.3   132  LEU132     -0.1245
    156  CA        20.8550   32.0900   23.8740 C.3   132  LEU132      0.1561
    157  C         19.7020   33.0710   24.0830 C.2   132  LEU132      0.2260
    158  O         19.6670   34.1490   23.4680 O.2   132  LEU132     -0.2867
    159  CB        21.9940   32.4070   24.8350 C.3   132  LEU132      0.0270
    160  CG        23.0940   31.3300   24.9820 C.3   132  LEU132      0.0019
    161  CD1       22.6020   29.9210   25.3960 C.3   132  LEU132      0.0001
    162  CD2       23.8310   31.2270   23.7000 C.3   132  LEU132      0.0001
    163  N         26.2800   33.6940   20.5100 N.3   142  ALA142     -0.1231
    164  CA        27.3790   33.2640   21.3760 C.3   142  ALA142      0.1694
    165  C         28.3420   32.2790   20.6980 C.2   142  ALA142      0.2592
    166  O         28.0540   31.7480   19.5970 O.2   142  ALA142     -0.2718
    167  CB        26.8340   32.6360   22.6540 C.3   142  ALA142      0.0304
    168  N         29.5270   32.1520   21.2820 N.am  143  ASP143     -0.1974
    169  CA        30.5070   31.1100   20.9300 C.3   143  ASP143      0.1709
    170  C         31.1620   31.4050   19.5940 C.2   143  ASP143      0.2293
    171  O         31.0780   30.6200   18.6430 O.2   143  ASP143     -0.2864
    172  CB        29.8140   29.7450   20.8700 C.3   143  ASP143      0.1436
    173  CG        30.7850   28.5930   20.6170 C.2   143  ASP143      0.3671
    174  OD1       30.2970   27.4740   20.3040 O.co2 143  ASP143     -0.2456
    175  OD2       32.0160   28.7970   20.7450 O.co2 143  ASP143     -0.2456
@<TRIPOS>BOND
     1   145   144    2
     2   154   152   am
     3   146   144   am
     4   171   170    2
     5   144   143    1
     6   151   152    1
     7   151   148    1
     8   152   153    2
     9   138   139    1
    10   170   169    1
    11   166   165    2
    12   126   127    1
    13   126   125    1
    14   127   128    1
    15   150   149    2
    16   147   148    1
    17   147   140   am
    18   149   148    1
    19   143   142    1
    20   174   173   ar
    21   142   139    1
    22   163   164    1
    23   173   175   ar
    24   173   172    1
    25   139   140    1
    26   165   168   am
    27   165   164    1
    28   172   169    1
    29   169   168    1
    30   140   141    2
    31   121   124    1
    32   121   120    1
    33   121   122    1
    34   124   125    1
    35    25    24    2
    36   164   167    1
    37    21    19   ar
    38   123   122    2
    39    24    23    1
    40   122   129   am
    41   155   156    1
    42    19    18    1
    43    19    20   ar
    44    23    22    1
    45    47    48    1
    46    18    17    1
    47    46    45    1
    48    16    15    2
    49   129   130    1
    50   158   157    2
    51   114   115    2
    52   114   113    1
    53   162   160    1
    54   119   117   ar
    55   156   157    1
    56   156   159    1
    57   116   117    1
    58   116   113    1
    59    22    15   am
    60    15    14    1
    61   117   118   ar
    62   131   132    2
    63   131   130    1
    64    45    44    1
    65   130   133    1
    66   113   112    1
    67    48    51    1
    68    48    49    1
    69    50    49    2
    70    53    51    1
    71    17    14    1
    72    51    52    1
    73   159   160    1
    74   160   161    1
    75    14    13    1
    76    62    64   ar
    77    62    60   ar
    78    44    43    1
    79    64    63   ar
    80    13    11   am
    81   133   134    1
    82   112   105   am
    83   106   105    2
    84    60    59   ar
    85    63    61   ar
    86   105   104    1
    87    43    42    1
    88   134   135    1
    89   111   109   am
    90    11    10    1
    91    11    12    2
    92    92    90    1
    93    32    30    1
    94    73    71   ar
    95    10     9    2
    96    59    61   ar
    97    59    58    1
    98    91    90    1
    99   108   109    1
   100   108   107    1
   101    42    39    1
   102   109   110    2
   103    90    89    1
   104   104   107    1
   105   104   103    1
   106   135   136    1
   107     4     3    2
   108    89    86    1
   109    30    31    1
   110    30    27    1
   111    71    70    1
   112    71    72   ar
   113    58    55    1
   114     9     3    1
   115   136   137    1
   116    26    27    1
   117   103    95   am
   118    70    69    1
   119     3     2    1
   120    39    40    1
   121    39    38    1
   122    41    40    2
   123    27    28    1
   124    55    54    1
   125    55    56    1
   126    68    67    2
   127    86    87    1
   128    86    85    1
   129    87    88    2
   130    87    93   am
   131    95    96    2
   132    95    94    1
   133    85    76   am
   134    93    94    1
   135    69    66    1
   136    65    56   am
   137    65    66    1
   138     6     8    1
   139     6     5    1
   140    37    34    1
   141     2     5    1
   142     2     1    1
   143    29    28    2
   144    56    57    2
   145     5     7    1
   146    67    66    1
   147    67    74   am
   148    94    97    1
   149    36    35    2
   150    76    77    2
   151    76    75    1
   152    75    74    1
   153    75    78    1
   154    35    34    1
   155    34    33    1
   156    97    98    1
   157    80    82   ar
   158    80    79   ar
   159    82    84   ar
   160    78    79    1
   161    79    81   ar
   162    84    83   ar
   163    98    99   ar
   164    98   100   ar
   165    81    83   ar
   166    99   101   ar
   167   100   102   ar
   168   101   102   ar
