@<TRIPOS>MOLECULE
tmp/2xneA00.pdb
 158 148 0 0 0
SMALL
GASTEIGER

@<TRIPOS>ATOM
      1  N         -6.0130  -28.2290   -4.2000 N.3    11  ARG11      -0.1245
      2  CA        -5.3050  -28.2070   -2.9250 C.3    11  ARG11       0.1563
      3  C         -3.8400  -27.8580   -3.1150 C.2    11  ARG11       0.2260
      4  O         -3.2890  -28.0410   -4.2000 O.2    11  ARG11      -0.2867
      5  CB        -5.4100  -29.5620   -2.2220 C.3    11  ARG11       0.0307
      6  CG        -4.4210  -30.6040   -2.7190 C.3    11  ARG11       0.0489
      7  CD        -4.4710  -31.8600   -1.8570 C.3    11  ARG11       0.2205
      8  NE        -3.5460  -32.8860   -2.3310 N.pl3  11  ARG11      -0.0865
      9  CZ        -2.3790  -33.1720   -1.7610 C.cat  11  ARG11       0.5346
     10  NH1       -1.9850  -32.5140   -0.6770 N.pl3  11  ARG11       0.1354
     11  NH2       -1.6090  -34.1250   -2.2720 N.pl3  11  ARG11       0.1354
     12  N         -0.0350  -28.5670   -2.8910 N.3    13  LEU13      -0.1231
     13  CA         0.8100  -29.7540   -2.9240 C.3    13  LEU13       0.1693
     14  C          1.9650  -29.6050   -1.9380 C.2    13  LEU13       0.2593
     15  O          2.3840  -30.5750   -1.3040 O.2    13  LEU13      -0.2718
     16  CB         1.3470  -29.9820   -4.3400 C.3    13  LEU13       0.0284
     17  CG         0.3020  -30.2110   -5.4370 C.3    13  LEU13       0.0019
     18  CD1        0.9770  -30.4760   -6.7720 C.3    13  LEU13       0.0001
     19  CD2       -0.6230  -31.3620   -5.0640 C.3    13  LEU13       0.0001
     20  N          2.4720  -28.3810   -1.8160 N.am   14  GLY14      -0.1942
     21  CA         3.5330  -28.0800   -0.8730 C.3    14  GLY14       0.2014
     22  C          3.9180  -26.6110   -0.8560 C.2    14  GLY14       0.2639
     23  O          3.5800  -25.8600   -1.7710 O.2    14  GLY14      -0.2714
     24  N          4.6260  -26.2000    0.1920 N.am   15  LYS15      -0.1963
     25  CA         5.1290  -24.8350    0.2910 C.3    15  LYS15       0.1728
     26  C          6.5480  -24.7390   -0.2700 C.2    15  LYS15       0.2616
     27  O          7.3230  -25.6920   -0.1850 O.2    15  LYS15      -0.2715
     28  CB         5.0990  -24.3540    1.7450 C.3    15  LYS15       0.0311
     29  CG         3.7780  -24.4110    2.4770 C.3    15  LYS15       0.0038
     30  CD         3.9880  -23.8530    3.8840 C.3    15  LYS15       0.0206
     31  CE         3.0210  -24.4370    4.9050 C.3    15  LYS15       0.1093
     32  NZ         1.6060  -24.0680    4.6300 N.3    15  LYS15      -0.1314
     33  N          6.8790  -23.5880   -0.8480 N.am   16  GLY16      -0.1955
     34  CA         8.1970  -23.3670   -1.4170 C.3    16  GLY16       0.1869
     35  C          8.8140  -22.0600   -0.9560 C.2    16  GLY16       0.2309
     36  O          8.5000  -21.5650    0.1260 O.2    16  GLY16      -0.2863
     37  N          2.9490  -24.4230   -4.3140 N.3    21  VAL21      -0.1245
     38  CA         2.6660  -25.1700   -5.5340 C.3    21  VAL21       0.1561
     39  C          1.2980  -25.8420   -5.4180 C.2    21  VAL21       0.2260
     40  O          1.0900  -26.6960   -4.5570 O.2    21  VAL21      -0.2867
     41  CB         3.7300  -26.2520   -5.7980 C.3    21  VAL21       0.0252
     42  CG1        3.4140  -26.9900   -7.0900 C.3    21  VAL21       0.0019
     43  CG2        5.1240  -25.6380   -5.8490 C.3    21  VAL21       0.0019
     44  N          0.4990  -29.3220  -12.1880 N.3    34  ALA34      -0.1245
     45  CA         0.8540  -28.5310  -11.0160 C.3    34  ALA34       0.1562
     46  C          1.1330  -27.0930  -11.4250 C.2    34  ALA34       0.2260
     47  O          1.6240  -26.8360  -12.5240 O.2    34  ALA34      -0.2867
     48  CB         2.0600  -29.1280  -10.3180 C.3    34  ALA34       0.0290
     49  N          3.0280  -23.6940  -10.0480 N.3    36  LYS36      -0.1245
     50  CA         3.9030  -23.0610   -9.0670 C.3    36  LYS36       0.1561
     51  C          3.6430  -21.5590   -8.9830 C.2    36  LYS36       0.2260
     52  O          3.7890  -20.8400   -9.9730 O.2    36  LYS36      -0.2867
     53  CB         5.3690  -23.3310   -9.4090 C.3    36  LYS36       0.0271
     54  CG         6.3200  -23.2250   -8.2280 C.3    36  LYS36       0.0035
     55  CD         7.6940  -23.7590   -8.5900 C.3    36  LYS36       0.0206
     56  CE         8.5950  -23.8430   -7.3700 C.3    36  LYS36       0.1093
     57  NZ         9.9200  -24.4310   -7.7160 N.3    36  LYS36      -0.1314
     58  N         11.1180  -33.5350  -14.7060 N.3    61  LEU61      -0.1245
     59  CA         9.8230  -32.8670  -14.6600 C.3    61  LEU61       0.1561
     60  C          9.7060  -31.8780  -15.8130 C.2    61  LEU61       0.2260
     61  O         10.6240  -31.0980  -16.0720 O.2    61  LEU61      -0.2867
     62  CB         9.6040  -32.1580  -13.3220 C.3    61  LEU61       0.0270
     63  CG         8.1460  -31.7950  -13.0230 C.3    61  LEU61       0.0019
     64  CD1        7.3060  -33.0560  -12.8840 C.3    61  LEU61       0.0001
     65  CD2        8.0260  -30.9420  -11.7740 C.3    61  LEU61       0.0001
     66  N          3.5110  -26.6790  -14.5500 N.3    77  LEU77      -0.1231
     67  CA         4.4150  -27.8190  -14.4430 C.3    77  LEU77       0.1693
     68  C          3.7020  -29.1600  -14.5120 C.2    77  LEU77       0.2592
     69  O          2.5190  -29.2670  -14.1910 O.2    77  LEU77      -0.2718
     70  CB         5.2000  -27.7410  -13.1330 C.3    77  LEU77       0.0284
     71  CG         6.2540  -26.6370  -13.0290 C.3    77  LEU77       0.0019
     72  CD1        6.3010  -26.0620  -11.6200 C.3    77  LEU77       0.0001
     73  CD2        7.6140  -27.1680  -13.4600 C.3    77  LEU77       0.0001
     74  N          4.4410  -30.1810  -14.9320 N.am   78  GLU78      -0.1966
     75  CA         3.9460  -31.5490  -14.9140 C.3    78  GLU78       0.1733
     76  C          3.6550  -31.9740  -13.4800 C.2    78  GLU78       0.2616
     77  O          4.4320  -31.6860  -12.5710 O.2    78  GLU78      -0.2715
     78  CB         4.9680  -32.4910  -15.5490 C.3    78  GLU78       0.0429
     79  CG         4.6780  -33.9640  -15.3420 C.3    78  GLU78       0.1163
     80  CD         5.8210  -34.8480  -15.8120 C.2    78  GLU78       0.3649
     81  OE1        6.8040  -34.3070  -16.3710 O.co2  78  GLU78      -0.2457
     82  OE2        5.7400  -36.0810  -15.6150 O.co2  78  GLU78      -0.2457
     83  N          2.5270  -32.6480  -13.2820 N.am   79  TYR79      -0.1960
     84  CA         2.0960  -33.0520  -11.9480 C.3    79  TYR79       0.1771
     85  C          2.6390  -34.4220  -11.5560 C.2    79  TYR79       0.2619
     86  O          2.5030  -35.3950  -12.2980 O.2    79  TYR79      -0.2715
     87  CB         0.5670  -33.0360  -11.8580 C.3    79  TYR79       0.0574
     88  CG        -0.0100  -33.8480  -10.7200 C.ar   79  TYR79      -0.0198
     89  CD1        0.0960  -33.4120   -9.4070 C.ar   79  TYR79      -0.0009
     90  CD2       -0.6770  -35.0450  -10.9620 C.ar   79  TYR79      -0.0009
     91  CE1       -0.4370  -34.1490   -8.3660 C.ar   79  TYR79       0.0417
     92  CE2       -1.2130  -35.7870   -9.9260 C.ar   79  TYR79       0.0417
     93  CZ        -1.0900  -35.3350   -8.6310 C.ar   79  TYR79       0.1957
     94  OH        -1.6240  -36.0710   -7.5960 O.3    79  TYR79      -0.2866
     95  N          3.2580  -34.4860  -10.3810 N.am   80  ALA80      -0.1964
     96  CA         3.8400  -35.7280   -9.8870 C.3    80  ALA80       0.1713
     97  C          2.9770  -36.3240   -8.7770 C.2    80  ALA80       0.2458
     98  O          3.0270  -35.8690   -7.6360 O.2    80  ALA80      -0.2730
     99  CB         5.2660  -35.4950   -9.4000 C.3    80  ALA80       0.0333
    100  N          2.1860  -37.3520   -9.1200 N.am   81  PRO81      -0.2727
    101  CA         1.1860  -38.0000   -8.2610 C.3    81  PRO81       0.1402
    102  C          1.7250  -38.5080   -6.9250 C.2    81  PRO81       0.2269
    103  O          0.9740  -38.5200   -5.9480 O.2    81  PRO81      -0.2865
    104  CB         0.7110  -39.1780   -9.1170 C.3    81  PRO81       0.0296
    105  CG         0.9480  -38.7360  -10.5120 C.3    81  PRO81       0.0237
    106  CD         2.2110  -37.9390  -10.4700 C.3    81  PRO81       0.0939
    107  N          4.4160  -37.3600   -5.0870 N.3    83  GLY83      -0.1210
    108  CA         5.1390  -36.3990   -4.2730 C.3    83  GLY83       0.1956
    109  C          6.6520  -36.4500   -4.3900 C.2    83  GLY83       0.2612
    110  O          7.1960  -36.9320   -5.3830 O.2    83  GLY83      -0.2717
    111  N          7.3300  -35.9470   -3.3600 N.am   84  THR84      -0.1952
    112  CA         8.7880  -35.8680   -3.3400 C.3    84  THR84       0.1897
    113  C          9.4320  -37.1280   -2.7590 C.2    84  THR84       0.2313
    114  O          8.8160  -37.8480   -1.9700 O.2    84  THR84      -0.2863
    115  CB         9.2740  -34.6500   -2.5240 C.3    84  THR84       0.1794
    116  OG1        9.0360  -34.8750   -1.1280 O.3    84  THR84      -0.2208
    117  CG2        8.5470  -33.3860   -2.9590 C.3    84  THR84       0.0378
    118  N          9.7410  -36.7030    1.0640 N.3    87  ARG87      -0.1245
    119  CA         8.6420  -37.1410    1.9210 C.3    87  ARG87       0.1563
    120  C          8.6520  -38.6530    2.1250 C.2    87  ARG87       0.2260
    121  O          8.4440  -39.1410    3.2360 O.2    87  ARG87      -0.2867
    122  CB         7.2980  -36.6980    1.3370 C.3    87  ARG87       0.0307
    123  CG         6.0740  -37.0580    2.1880 C.3    87  ARG87       0.0489
    124  CD         4.7880  -36.4280    1.6340 C.3    87  ARG87       0.2205
    125  NE         4.4710  -36.8660    0.2720 N.pl3  87  ARG87      -0.0865
    126  CZ         4.0360  -38.0870   -0.0470 C.cat  87  ARG87       0.5346
    127  NH1        3.8530  -39.0140    0.8920 N.pl3  87  ARG87       0.1354
    128  NH2        3.7880  -38.3880   -1.3160 N.pl3  87  ARG87       0.1354
    129  N         14.4980  -32.9580   -1.8070 N.3   127  GLU127     -0.1245
    130  CA        13.4590  -31.9400   -1.9500 C.3   127  GLU127      0.1567
    131  C         13.2000  -31.5840   -3.4140 C.2   127  GLU127      0.2260
    132  O         12.1200  -31.1080   -3.7590 O.2   127  GLU127     -0.2867
    133  CB        13.8140  -30.6630   -1.1810 C.3   127  GLU127      0.0388
    134  CG        13.8760  -30.8060    0.3240 C.3   127  GLU127      0.1160
    135  CD        15.2980  -30.8910    0.8320 C.2   127  GLU127      0.3649
    136  OE1       15.9830  -31.8910    0.5260 O.co2 127  GLU127     -0.2457
    137  OE2       15.7290  -29.9520    1.5390 O.co2 127  GLU127     -0.2457
    138  N         10.9570  -35.7140   -7.5140 N.3   130  LEU130     -0.1245
    139  CA         9.5420  -36.0680   -7.4620 C.3   130  LEU130      0.1561
    140  C          9.3020  -37.4790   -8.0020 C.2   130  LEU130      0.2260
    141  O         10.2130  -38.1130   -8.5310 O.2   130  LEU130     -0.2867
    142  CB         8.7040  -35.0390   -8.2270 C.3   130  LEU130      0.0270
    143  CG         8.5820  -33.6550   -7.5830 C.3   130  LEU130      0.0019
    144  CD1        8.1320  -32.6010   -8.5880 C.3   130  LEU130      0.0001
    145  CD2        7.6330  -33.6970   -6.3890 C.3   130  LEU130      0.0001
    146  N         13.1930  -31.9530  -10.7160 N.3   140  ALA140     -0.1231
    147  CA        12.5900  -30.6390  -10.8870 C.3   140  ALA140      0.1694
    148  C         13.4550  -29.5630  -10.2470 C.2   140  ALA140      0.2592
    149  O         14.5560  -29.8400   -9.7680 O.2   140  ALA140     -0.2718
    150  CB        11.1910  -30.6130  -10.3030 C.3   140  ALA140      0.0304
    151  N         12.9440  -28.3350  -10.2440 N.am  141  ASN141     -0.1974
    152  CA        13.6370  -27.2010   -9.6410 C.3   141  ASN141      0.1688
    153  C         15.0170  -26.9570  -10.2350 C.2   141  ASN141      0.2292
    154  O         16.0230  -27.4270   -9.7080 O.2   141  ASN141     -0.2864
    155  CB        13.7430  -27.3860   -8.1280 C.3   141  ASN141      0.1181
    156  CG        12.3900  -27.4650   -7.4600 C.2   141  ASN141      0.2629
    157  OD1       11.3630  -27.1830   -8.0780 O.2   141  ASN141     -0.2716
    158  ND2       12.3800  -27.8480   -6.1900 N.am  141  ASN141     -0.0877
@<TRIPOS>BOND
     1    81    80   ar
     2    61    60    2
     3    60    59    1
     4    80    82   ar
     5    80    79    1
     6    78    79    1
     7    78    75    1
     8    74    75    1
     9    74    68   am
    10    75    76    1
    11    58    59    1
    12    59    62    1
    13    66    67    1
    14    68    67    1
    15    68    69    2
    16    67    70    1
    17    76    83   am
    18    76    77    2
    19    73    71    1
    20    62    63    1
    21    83    84    1
    22    70    71    1
    23    71    72    1
    24    63    64    1
    25    63    65    1
    26    47    46    2
    27    86    85    2
    28    44    45    1
    29    84    87    1
    30    84    85    1
    31    87    88    1
    32    85    95   am
    33    46    45    1
    34    45    48    1
    35    90    88   ar
    36    90    92   ar
    37   147   146    1
    38   147   150    1
    39   147   148    1
    40    88    89   ar
    41   105   106    1
    42   105   104    1
    43   106   100    1
    44    95    96    1
    45   148   151   am
    46   148   149    2
    47   151   152    1
    48   153   154    2
    49   153   152    1
    50    49    50    1
    51    52    51    2
    52    92    93   ar
    53    96    99    1
    54    96    97    1
    55   152   155    1
    56    53    50    1
    57    53    54    1
    58    89    91   ar
    59   100    97   am
    60   100   101    1
    61   104   101    1
    62    50    51    1
    63    97    98    2
    64    93    91   ar
    65    93    94    1
    66    55    54    1
    67    55    56    1
    68   144   143    1
    69   141   140    2
    70   101   102    1
    71   142   143    1
    72   142   139    1
    73   155   156    1
    74   157   156    2
    75   140   139    1
    76    57    56    1
    77   143   145    1
    78   138   139    1
    79   156   158   am
    80    42    41    1
    81   102   103    2
    82    18    17    1
    83    43    41    1
    84    41    38    1
    85    38    39    1
    86    38    37    1
    87    17    19    1
    88    17    16    1
    89    39    40    2
    90   110   109    2
    91   107   108    1
    92   109   108    1
    93   109   111   am
    94    16    13    1
    95     1     2    1
    96     4     3    2
    97   132   131    2
    98   131   130    1
    99   111   112    1
   100   112   113    1
   101   112   115    1
   102     3     2    1
   103   117   115    1
   104     2     5    1
   105    13    12    1
   106    13    14    1
   107   113   114    2
   108     6     5    1
   109     6     7    1
   110   115   116    1
   111     8     7    1
   112     8     9    2
   113    11     9    1
   114   130   129    1
   115   130   133    1
   116    14    20   am
   117    14    15    2
   118    20    21    1
   119    23    22    2
   120     9    10    1
   121    34    35    1
   122    34    33    1
   123   128   126    1
   124   133   134    1
   125    35    36    2
   126    21    22    1
   127    22    24   am
   128    33    26   am
   129    26    27    2
   130    26    25    1
   131   126   125    2
   132   126   127    1
   133    24    25    1
   134   125   124    1
   135    25    28    1
   136   134   135    1
   137   136   135   ar
   138   135   137   ar
   139   118   119    1
   140   122   119    1
   141   122   123    1
   142   124   123    1
   143    28    29    1
   144   119   120    1
   145   120   121    2
   146    29    30    1
   147    30    31    1
   148    32    31    1
