@<TRIPOS>MOLECULE
tmp/2xngA00.pdb
 188 179 0 0 0
SMALL
GASTEIGER

@<TRIPOS>ATOM
      1  N         -6.4080  -27.6500   -4.5740 N.3    11  ARG11      -0.1245
      2  CA        -5.7300  -27.6700   -3.2890 C.3    11  ARG11       0.1563
      3  C         -4.2580  -27.2870   -3.4200 C.2    11  ARG11       0.2260
      4  O         -3.6310  -27.5140   -4.4550 O.2    11  ARG11      -0.2867
      5  CB        -5.8640  -29.0350   -2.6120 C.3    11  ARG11       0.0307
      6  CG        -4.7680  -30.0090   -2.9530 C.3    11  ARG11       0.0489
      7  CD        -4.8680  -31.2700   -2.1170 C.3    11  ARG11       0.2205
      8  NE        -3.9090  -32.2660   -2.5860 N.pl3  11  ARG11      -0.0865
      9  CZ        -2.7040  -32.4560   -2.0560 C.cat  11  ARG11       0.5346
     10  NH1       -2.3070  -31.7260   -1.0200 N.pl3  11  ARG11       0.1354
     11  NH2       -1.9020  -33.3890   -2.5580 N.pl3  11  ARG11       0.1354
     12  N         -0.4730  -27.7930   -3.1400 N.3    13  LEU13      -0.1231
     13  CA         0.3460  -28.9900   -3.1900 C.3    13  LEU13       0.1693
     14  C          1.4920  -28.8740   -2.1860 C.2    13  LEU13       0.2593
     15  O          1.9130  -29.8770   -1.5910 O.2    13  LEU13      -0.2718
     16  CB         0.8480  -29.2540   -4.6180 C.3    13  LEU13       0.0284
     17  CG        -0.2590  -29.5620   -5.6430 C.3    13  LEU13       0.0019
     18  CD1        0.3170  -29.7650   -7.0370 C.3    13  LEU13       0.0001
     19  CD2       -1.0890  -30.7750   -5.2300 C.3    13  LEU13       0.0001
     20  N          1.9570  -27.6400   -1.9820 N.am   14  GLY14      -0.1942
     21  CA         3.0370  -27.3370   -1.0530 C.3    14  GLY14       0.2014
     22  C          3.4990  -25.8830   -1.1310 C.2    14  GLY14       0.2639
     23  O          3.1220  -25.1450   -2.0410 O.2    14  GLY14      -0.2714
     24  N          4.3150  -25.4610   -0.1700 N.am   15  LYS15      -0.1963
     25  CA         4.8410  -24.0960   -0.1800 C.3    15  LYS15       0.1728
     26  C          6.2740  -24.0480   -0.7260 C.2    15  LYS15       0.2616
     27  O          7.0800  -24.9490   -0.4830 O.2    15  LYS15      -0.2715
     28  CB         4.7640  -23.4640    1.2180 C.3    15  LYS15       0.0311
     29  CG         5.5080  -22.1220    1.3150 C.3    15  LYS15       0.0038
     30  CD         4.4740  -21.0950    0.9100 C.3    15  LYS15       0.0206
     31  CE         5.0030  -19.6680    0.9240 C.3    15  LYS15       0.1093
     32  NZ         4.0230  -18.8670    0.1010 N.3    15  LYS15      -0.1314
     33  N          6.5800  -23.0010   -1.4830 N.am   16  GLY16      -0.1955
     34  CA         7.9240  -22.8010   -1.9940 C.3    16  GLY16       0.1869
     35  C          8.5920  -21.6110   -1.3270 C.2    16  GLY16       0.2309
     36  O          8.1460  -21.1340   -0.2770 O.2    16  GLY16      -0.2863
     37  N          2.6790  -23.7890   -4.7470 N.3    21  VAL21      -0.1245
     38  CA         2.2340  -24.5410   -5.9210 C.3    21  VAL21       0.1561
     39  C          0.8420  -25.1660   -5.7110 C.2    21  VAL21       0.2260
     40  O          0.5950  -25.8340   -4.7020 O.2    21  VAL21      -0.2867
     41  CB         3.2500  -25.6390   -6.3230 C.3    21  VAL21       0.0252
     42  CG1        2.7720  -26.3620   -7.5850 C.3    21  VAL21       0.0019
     43  CG2        4.6640  -25.0460   -6.5110 C.3    21  VAL21       0.0019
     44  N         -0.0430  -28.6040  -12.4690 N.3    34  ALA34      -0.1245
     45  CA         0.3690  -27.8310  -11.2980 C.3    34  ALA34       0.1562
     46  C          0.6580  -26.4050  -11.7170 C.2    34  ALA34       0.2260
     47  O          1.2650  -26.1420  -12.7650 O.2    34  ALA34      -0.2867
     48  CB         1.6000  -28.4440  -10.6710 C.3    34  ALA34       0.0290
     49  N          2.5260  -23.0530  -10.4320 N.3    36  LYS36      -0.1245
     50  CA         3.4740  -22.4200   -9.4940 C.3    36  LYS36       0.1561
     51  C          3.3210  -20.9000   -9.4830 C.2    36  LYS36       0.2260
     52  O          3.5940  -20.2380  -10.4850 O.2    36  LYS36      -0.2867
     53  CB         4.9140  -22.7790   -9.8660 C.3    36  LYS36       0.0271
     54  CG         5.9600  -22.4440   -8.8200 C.3    36  LYS36       0.0035
     55  CD         7.3010  -23.0940   -9.1950 C.3    36  LYS36       0.0206
     56  CE         8.0510  -23.6240   -7.9630 C.3    36  LYS36       0.1093
     57  NZ         9.2730  -24.4280   -8.3170 N.3    36  LYS36      -0.1314
     58  N         10.5610  -33.0040  -15.1550 N.3    68  LEU68      -0.1245
     59  CA         9.2050  -32.4600  -15.1150 C.3    68  LEU68       0.1561
     60  C          8.9950  -31.4240  -16.2090 C.2    68  LEU68       0.2260
     61  O          9.7340  -30.4350  -16.2820 O.2    68  LEU68      -0.2867
     62  CB         8.8920  -31.8490  -13.7370 C.3    68  LEU68       0.0270
     63  CG         7.4180  -31.6240  -13.3900 C.3    68  LEU68       0.0019
     64  CD1        6.7950  -32.9200  -12.9300 C.3    68  LEU68       0.0001
     65  CD2        7.2650  -30.5990  -12.3080 C.3    68  LEU68       0.0001
     66  N          2.9250  -26.1520  -14.8490 N.3    84  LEU84      -0.1231
     67  CA         3.7760  -27.3220  -14.7590 C.3    84  LEU84       0.1693
     68  C          3.0410  -28.6530  -14.9240 C.2    84  LEU84       0.2592
     69  O          1.8490  -28.7710  -14.6430 O.2    84  LEU84      -0.2718
     70  CB         4.5180  -27.2890  -13.4290 C.3    84  LEU84       0.0284
     71  CG         5.7020  -26.3230  -13.3590 C.3    84  LEU84       0.0019
     72  CD1        6.0900  -26.0330  -11.9220 C.3    84  LEU84       0.0001
     73  CD2        6.8800  -26.9030  -14.1200 C.3    84  LEU84       0.0001
     74  N          3.7640  -29.6590  -15.3950 N.am   85  GLU85      -0.1966
     75  CA         3.2780  -31.0250  -15.3240 C.3    85  GLU85       0.1733
     76  C          3.0080  -31.3750  -13.8530 C.2    85  GLU85       0.2616
     77  O          3.7710  -30.9960  -12.9640 O.2    85  GLU85      -0.2715
     78  CB         4.2860  -31.9980  -15.9490 C.3    85  GLU85       0.0429
     79  CG         3.9880  -33.4710  -15.6920 C.3    85  GLU85       0.1163
     80  CD         5.0880  -34.3890  -16.2260 C.2    85  GLU85       0.3649
     81  OE1        6.1150  -33.8710  -16.7260 O.co2  85  GLU85      -0.2457
     82  OE2        4.9250  -35.6290  -16.1500 O.co2  85  GLU85      -0.2457
     83  N          1.9100  -32.0870  -13.6140 N.am   86  TYR86      -0.1960
     84  CA         1.4940  -32.4930  -12.2730 C.3    86  TYR86       0.1771
     85  C          2.0230  -33.8880  -11.9820 C.2    86  TYR86       0.2619
     86  O          1.8800  -34.7920  -12.8070 O.2    86  TYR86      -0.2715
     87  CB        -0.0340  -32.4660  -12.1960 C.3    86  TYR86       0.0574
     88  CG        -0.6470  -33.2730  -11.0890 C.ar   86  TYR86      -0.0198
     89  CD1       -0.4090  -32.9600   -9.7500 C.ar   86  TYR86      -0.0009
     90  CD2       -1.5010  -34.3310  -11.3780 C.ar   86  TYR86      -0.0009
     91  CE1       -0.9940  -33.6910   -8.7280 C.ar   86  TYR86       0.0417
     92  CE2       -2.0930  -35.0710  -10.3690 C.ar   86  TYR86       0.0417
     93  CZ        -1.8350  -34.7520   -9.0450 C.ar   86  TYR86       0.1957
     94  OH        -2.4260  -35.4920   -8.0440 O.3    86  TYR86      -0.2866
     95  N          2.6600  -34.0520  -10.8250 N.am   87  ALA87      -0.1964
     96  CA         3.2470  -35.3360  -10.4470 C.3    87  ALA87       0.1713
     97  C          2.4740  -35.9230   -9.2710 C.2    87  ALA87       0.2458
     98  O          2.6360  -35.4920   -8.1330 O.2    87  ALA87      -0.2730
     99  CB         4.7240  -35.1790  -10.1240 C.3    87  ALA87       0.0333
    100  N          1.6040  -36.9000   -9.5650 N.am   88  PRO88      -0.2716
    101  CA         0.5550  -37.4320   -8.6800 C.3    88  PRO88       0.1536
    102  C          1.0450  -38.0290   -7.3640 C.2    88  PRO88       0.2598
    103  O          0.2840  -38.0000   -6.3970 O.2    88  PRO88      -0.2715
    104  CB        -0.0990  -38.5400   -9.5210 C.3    88  PRO88       0.0310
    105  CG         0.2530  -38.2270  -10.9300 C.3    88  PRO88       0.0237
    106  CD         1.5780  -37.5280  -10.9000 C.3    88  PRO88       0.0939
    107  N          2.2610  -38.5700   -7.3170 N.am   89  LEU89      -0.1964
    108  CA         2.7140  -39.2540   -6.0990 C.3    89  LEU89       0.1728
    109  C          3.6740  -38.4570   -5.2300 C.2    89  LEU89       0.2617
    110  O          4.3450  -39.0330   -4.3830 O.2    89  LEU89      -0.2715
    111  CB         3.3020  -40.6400   -6.3940 C.3    89  LEU89       0.0311
    112  CG         2.4310  -41.5520   -7.2590 C.3    89  LEU89       0.0022
    113  CD1        2.9570  -42.9600   -7.2430 C.3    89  LEU89       0.0001
    114  CD2        1.0030  -41.5270   -6.7840 C.3    89  LEU89       0.0001
    115  N          3.7400  -37.1430   -5.4280 N.am   90  GLY90      -0.1940
    116  CA         4.4360  -36.2730   -4.4850 C.3    90  GLY90       0.2014
    117  C          5.9510  -36.2880   -4.5700 C.2    90  GLY90       0.2639
    118  O          6.5290  -36.7390   -5.5620 O.2    90  GLY90      -0.2714
    119  N          6.6050  -35.7910   -3.5280 N.am   91  THR91      -0.1950
    120  CA         8.0680  -35.7570   -3.5220 C.3    91  THR91       0.1897
    121  C          8.7190  -37.0420   -2.9980 C.2    91  THR91       0.2313
    122  O          8.1060  -37.8530   -2.2830 O.2    91  THR91      -0.2863
    123  CB         8.6470  -34.5280   -2.7600 C.3    91  THR91       0.1794
    124  OG1        8.2750  -34.5940   -1.3810 O.3    91  THR91      -0.2208
    125  CG2        8.1460  -33.2200   -3.3640 C.3    91  THR91       0.0378
    126  N         11.1290  -36.7060   -1.0980 N.3    93  TYR93      -0.1227
    127  CA        11.2370  -36.1970    0.2690 C.3    93  TYR93       0.1736
    128  C         10.1390  -36.6700    1.2270 C.2    93  TYR93       0.2595
    129  O         10.4390  -37.1260    2.3170 O.2    93  TYR93      -0.2718
    130  CB        11.2320  -34.6790    0.2410 C.3    93  TYR93       0.0548
    131  CG        11.4100  -34.0150    1.5980 C.ar   93  TYR93      -0.0200
    132  CD1       10.3470  -33.9150    2.5000 C.ar   93  TYR93      -0.0009
    133  CD2       12.6430  -33.4690    1.9730 C.ar   93  TYR93      -0.0009
    134  CE1       10.5120  -33.2960    3.7290 C.ar   93  TYR93       0.0417
    135  CE2       12.8160  -32.8470    3.2050 C.ar   93  TYR93       0.0417
    136  CZ        11.7480  -32.7660    4.0790 C.ar   93  TYR93       0.1957
    137  OH        11.9120  -32.1500    5.3010 O.3    93  TYR93      -0.2866
    138  N          8.8680  -36.5320    0.8560 N.am   94  ARG94      -0.1980
    139  CA         7.8200  -37.0440    1.7290 C.3    94  ARG94       0.1597
    140  C          7.8590  -38.5700    1.7280 C.2    94  ARG94       0.2287
    141  O          7.5630  -39.1860    2.7410 O.2    94  ARG94      -0.2864
    142  CB         6.4210  -36.4920    1.3780 C.3    94  ARG94       0.0334
    143  CG         6.3120  -34.9740    1.4470 C.3    94  ARG94       0.0492
    144  CD         4.8430  -34.5650    1.5410 C.3    94  ARG94       0.2205
    145  NE         4.0890  -35.0410    0.3800 N.pl3  94  ARG94      -0.0865
    146  CZ         3.9430  -34.3690   -0.7570 C.cat  94  ARG94       0.5346
    147  NH1        4.4890  -33.1700   -0.9170 N.pl3  94  ARG94       0.1354
    148  NH2        3.2340  -34.8870   -1.7540 N.pl3  94  ARG94       0.1354
    149  N         10.3930  -39.3450    4.3430 N.3    97  GLN97      -0.1231
    150  CA         9.8780  -39.1030    5.6890 C.3    97  GLN97       0.1698
    151  C          8.9580  -40.2410    6.1380 C.2    97  GLN97       0.2592
    152  O          8.9410  -40.6110    7.3110 O.2    97  GLN97      -0.2718
    153  CB         9.0910  -37.7990    5.7420 C.3    97  GLN97       0.0381
    154  CG         9.8530  -36.5880    6.2190 C.3    97  GLN97       0.0905
    155  CD         8.9300  -35.3840    6.3810 C.2    97  GLN97       0.2608
    156  OE1        7.7260  -35.4660    6.0910 O.2    97  GLN97      -0.2717
    157  NE2        9.4870  -34.2610    6.8440 N.am   97  GLN97      -0.0878
    158  N          8.1790  -40.7810    5.2040 N.am   98  LYS98      -0.1980
    159  CA         7.2040  -41.8130    5.5370 C.3    98  LYS98       0.1596
    160  C          7.8690  -43.1740    5.8140 C.2    98  LYS98       0.2287
    161  O          7.6110  -43.7880    6.8440 O.2    98  LYS98      -0.2864
    162  CB         6.0980  -41.9110    4.4630 C.3    98  LYS98       0.0298
    163  CG         5.0930  -40.7640    4.6020 C.3    98  LYS98       0.0038
    164  CD         3.9260  -40.9190    3.6400 C.3    98  LYS98       0.0206
    165  CE         3.2420  -39.5810    3.4070 C.3    98  LYS98       0.1093
    166  NZ         3.8550  -38.7590    2.3220 N.3    98  LYS98      -0.1314
    167  N         13.5470  -32.8010   -2.0230 N.3   134  GLU134     -0.1245
    168  CA        12.3830  -31.9170   -2.1580 C.3   134  GLU134      0.1567
    169  C         12.1580  -31.5700   -3.6280 C.2   134  GLU134      0.2260
    170  O         11.0660  -31.1490   -4.0230 O.2   134  GLU134     -0.2867
    171  CB        12.5510  -30.6280   -1.3490 C.3   134  GLU134      0.0388
    172  CG        13.0590  -30.8290    0.0730 C.3   134  GLU134      0.1160
    173  CD        14.5910  -30.7970    0.1780 C.2   134  GLU134      0.3649
    174  OE1       15.2490  -31.8390   -0.0950 O.co2 134  GLU134     -0.2457
    175  OE2       15.1320  -29.7240    0.5450 O.co2 134  GLU134     -0.2457
    176  N         10.1660  -35.3000   -7.8580 N.3   137  LEU137     -0.1245
    177  CA         8.7460  -35.6820   -7.8510 C.3   137  LEU137      0.1561
    178  C          8.4960  -37.1140   -8.3190 C.2   137  LEU137      0.2260
    179  O          9.3880  -37.7860   -8.8660 O.2   137  LEU137     -0.2867
    180  CB         7.9550  -34.7150   -8.7100 C.3   137  LEU137      0.0270
    181  CG         8.0900  -33.3280   -8.0970 C.3   137  LEU137      0.0019
    182  CD1        7.4580  -32.2480   -8.9710 C.3   137  LEU137      0.0001
    183  CD2        7.4810  -33.3640   -6.7010 C.3   137  LEU137      0.0001
    184  N         12.4470  -31.9390  -10.8130 N.3   147  ALA147     -0.1245
    185  CA        11.6440  -30.7360  -10.9570 C.3   147  ALA147      0.1562
    186  C         12.4570  -29.5140  -10.5640 C.2   147  ALA147      0.2260
    187  O         13.6100  -29.6270  -10.1380 O.2   147  ALA147     -0.2867
    188  CB        10.4350  -30.8330  -10.0860 C.3   147  ALA147      0.0290
@<TRIPOS>BOND
     1    81    80   ar
     2    61    60    2
     3    80    82   ar
     4    80    79    1
     5    60    59    1
     6    78    79    1
     7    78    75    1
     8    74    75    1
     9    74    68   am
    10    75    76    1
    11    58    59    1
    12    59    62    1
    13    68    67    1
    14    68    69    2
    15    66    67    1
    16    67    70    1
    17    73    71    1
    18    76    83   am
    19    76    77    2
    20    62    63    1
    21    83    84    1
    22    70    71    1
    23    63    64    1
    24    63    65    1
    25    71    72    1
    26    86    85    2
    27    47    46    2
    28    44    45    1
    29    84    87    1
    30    84    85    1
    31    87    88    1
    32    85    95   am
    33    46    45    1
    34    90    88   ar
    35    90    92   ar
    36    45    48    1
    37    88    89   ar
    38   185   184    1
    39   185   186    1
    40   185   188    1
    41   105   106    1
    42   105   104    1
    43   106   100    1
    44    95    96    1
    45   186   187    2
    46    52    51    2
    47    96    99    1
    48    96    97    1
    49    49    50    1
    50    92    93   ar
    51    53    50    1
    52    53    54    1
    53    89    91   ar
    54   100    97   am
    55   100   101    1
    56   104   101    1
    57    50    51    1
    58    97    98    2
    59    55    54    1
    60    55    56    1
    61    93    91   ar
    62    93    94    1
    63   182   181    1
    64   179   178    2
    65   180   181    1
    66   180   177    1
    67   101   102    1
    68   178   177    1
    69    57    56    1
    70   181   183    1
    71   176   177    1
    72    42    41    1
    73   102   107   am
    74   102   103    2
    75   107   108    1
    76   112   113    1
    77   112   114    1
    78   112   111    1
    79    18    17    1
    80    43    41    1
    81   111   108    1
    82    41    38    1
    83   108   109    1
    84    38    39    1
    85    38    37    1
    86    39    40    2
    87    17    19    1
    88    17    16    1
    89   118   117    2
    90   115   109   am
    91   115   116    1
    92   109   110    2
    93    16    13    1
    94     1     2    1
    95   117   116    1
    96   117   119   am
    97     4     3    2
    98   170   169    2
    99   169   168    1
   100   119   120    1
   101   120   121    1
   102   120   123    1
   103     3     2    1
   104   125   123    1
   105     2     5    1
   106    13    12    1
   107    13    14    1
   108   121   122    2
   109     6     5    1
   110     6     7    1
   111   123   124    1
   112     8     7    1
   113     8     9    2
   114    11     9    1
   115    14    20   am
   116    14    15    2
   117   168   167    1
   118   168   171    1
   119     9    10    1
   120    23    22    2
   121    34    33    1
   122    34    35    1
   123    20    21    1
   124   148   146    1
   125    33    26   am
   126   171   172    1
   127    35    36    2
   128    22    21    1
   129    22    24   am
   130   126   127    1
   131   147   146    1
   132   146   145    2
   133    26    27    2
   134    26    25    1
   135    25    24    1
   136    25    28    1
   137   174   173   ar
   138   172   173    1
   139    32    31    1
   140   173   175   ar
   141   130   127    1
   142   130   131    1
   143   127   128    1
   144   145   144    1
   145   138   128   am
   146   138   139    1
   147    30    31    1
   148    30    29    1
   149    28    29    1
   150   128   129    2
   151   142   143    1
   152   142   139    1
   153   143   144    1
   154   131   133   ar
   155   131   132   ar
   156   140   139    1
   157   140   141    2
   158   133   135   ar
   159   166   165    1
   160   132   134   ar
   161   135   136   ar
   162   165   164    1
   163   164   163    1
   164   134   136   ar
   165   136   137    1
   166   149   150    1
   167   162   163    1
   168   162   159    1
   169   158   159    1
   170   158   151   am
   171   159   160    1
   172   150   153    1
   173   150   151    1
   174   153   154    1
   175   160   161    2
   176   156   155    2
   177   151   152    2
   178   154   155    1
   179   155   157   am
