@<TRIPOS>MOLECULE
tmp/2xniA00.pdb
 138 132 0 0 0
SMALL
GASTEIGER

@<TRIPOS>ATOM
      1  N          4.4500   26.1730   21.3020 N.3    58  HIS58      -0.1241
      2  CA         3.7860   25.9630   20.0170 C.3    58  HIS58       0.1621
      3  C          3.9840   24.5160   19.5400 C.2    58  HIS58       0.2264
      4  O          3.4390   24.0990   18.5180 O.2    58  HIS58      -0.2867
      5  CB         4.2220   26.9990   18.9610 C.3    58  HIS58       0.0745
      6  CG         5.5550   26.7210   18.3340 C.ar   58  HIS58       0.0817
      7  ND1        6.7200   27.3260   18.7610 N.ar   58  HIS58      -0.2268
      8  CD2        5.9070   25.9180   17.3010 C.ar   58  HIS58       0.1154
      9  CE1        7.7320   26.9000   18.0240 C.ar   58  HIS58       0.1986
     10  NE2        7.2660   26.0430   17.1330 N.ar   58  HIS58      -0.2212
     11  N          2.7120   30.7540   28.2690 N.3    79  VAL79      -0.1231
     12  CA         2.2240   30.8300   26.8880 C.3    79  VAL79       0.1692
     13  C          2.7250   32.0820   26.1690 C.2    79  VAL79       0.2592
     14  O          3.1290   32.0320   25.0020 O.2    79  VAL79      -0.2718
     15  CB         0.6860   30.7550   26.8310 C.3    79  VAL79       0.0266
     16  CG1        0.1820   30.9460   25.4070 C.3    79  VAL79       0.0020
     17  CG2        0.2110   29.4210   27.3720 C.3    79  VAL79       0.0020
     18  N          2.7240   33.1940   26.8960 N.am   80  ASP80      -0.1974
     19  CA         3.0970   34.5040   26.3520 C.3    80  ASP80       0.1709
     20  C          4.5470   34.5530   25.8770 C.2    80  ASP80       0.2293
     21  O          4.9180   35.3940   25.0580 O.2    80  ASP80      -0.2864
     22  CB         2.8200   35.6060   27.3870 C.3    80  ASP80       0.1436
     23  CG         1.3640   35.6090   27.8670 C.2    80  ASP80       0.3671
     24  OD1        0.8800   34.5550   28.3580 O.co2  80  ASP80      -0.2456
     25  OD2        0.7020   36.6660   27.7550 O.co2  80  ASP80      -0.2456
     26  N          6.0520   31.5520   24.9030 N.3    82  ASP82      -0.1239
     27  CA         6.1520   30.3200   24.1070 C.3    82  ASP82       0.1674
     28  C          6.9830   29.2080   24.7880 C.2    82  ASP82       0.2266
     29  O          7.4600   28.2780   24.1410 O.2    82  ASP82      -0.2867
     30  CB         6.6700   30.6340   22.6890 C.3    82  ASP82       0.1410
     31  CG         6.2900   29.5590   21.6430 C.2    82  ASP82       0.3668
     32  OD1        5.3850   28.7250   21.8990 O.co2  82  ASP82      -0.2456
     33  OD2        6.9040   29.5610   20.5460 O.co2  82  ASP82      -0.2456
     34  N         16.5050   38.5180   18.6560 N.3   124  ARG124     -0.1245
     35  CA        16.8370   38.2900   17.2510 C.3   124  ARG124      0.1563
     36  C         18.3240   38.0580   17.0370 C.2   124  ARG124      0.2260
     37  O         19.1300   38.2050   17.9490 O.2   124  ARG124     -0.2867
     38  CB        16.3420   39.4560   16.3840 C.3   124  ARG124      0.0307
     39  CG        14.8140   39.6930   16.4100 C.3   124  ARG124      0.0489
     40  CD        14.0460   38.8280   15.3870 C.3   124  ARG124      0.2205
     41  NE        13.8900   39.4960   14.0850 N.pl3 124  ARG124     -0.0865
     42  CZ        12.7310   39.8890   13.5460 C.cat 124  ARG124      0.5346
     43  NH1       12.7280   40.4940   12.3620 N.pl3 124  ARG124      0.1354
     44  NH2       11.5740   39.6770   14.1710 N.pl3 124  ARG124      0.1354
     45  N         13.8870   27.4750    3.9930 N.3   133  ILE133     -0.1245
     46  CA        13.1540   27.3490    5.2530 C.3   133  ILE133      0.1561
     47  C         12.9610   25.8910    5.6860 C.2   133  ILE133      0.2260
     48  O         13.0030   25.5770    6.8830 O.2   133  ILE133     -0.2867
     49  CB        11.8150   28.1360    5.2320 C.3   133  ILE133      0.0252
     50  CG1       11.2610   28.3180    6.6640 C.3   133  ILE133      0.0019
     51  CG2       10.8180   27.5380    4.1900 C.3   133  ILE133      0.0019
     52  CD1       10.3720   27.1700    7.2060 C.3   133  ILE133      0.0001
     53  N         15.5850   24.4050    8.1810 N.3   136  LEU136     -0.1231
     54  CA        15.4900   24.7590    9.5850 C.3   136  LEU136      0.1693
     55  C         14.2690   24.1880   10.2770 C.2   136  LEU136      0.2592
     56  O         14.0960   24.3660   11.4830 O.2   136  LEU136     -0.2718
     57  CB        15.4770   26.2660    9.7310 C.3   136  LEU136      0.0284
     58  CG        16.8750   26.8330    9.6050 C.3   136  LEU136      0.0019
     59  CD1       16.8210   28.2480    9.0600 C.3   136  LEU136      0.0001
     60  CD2       17.5740   26.7650   10.9480 C.3   136  LEU136      0.0001
     61  N         13.4150   23.4980    9.5330 N.am  137  LYS137     -0.1966
     62  CA        12.1800   23.0210   10.1330 C.3   137  LYS137      0.1728
     63  C         12.4160   21.8240   11.0420 C.2   137  LYS137      0.2617
     64  O         13.2460   20.9620   10.7550 O.2   137  LYS137     -0.2715
     65  CB        11.1180   22.7330    9.0830 C.3   137  LYS137      0.0311
     66  CG         9.8310   23.5090    9.3490 C.3   137  LYS137      0.0038
     67  CD         8.6350   22.8140    8.7560 C.3   137  LYS137      0.0206
     68  CE         8.4660   21.4360    9.3740 C.3   137  LYS137      0.1093
     69  NZ         7.9000   20.4550    8.3990 N.3   137  LYS137     -0.1314
     70  N         11.7040   21.8210   12.1630 N.am  138  GLY138     -0.1940
     71  CA        11.8230   20.7740   13.1630 C.3   138  GLY138      0.2014
     72  C         12.9390   20.9840   14.1720 C.2   138  GLY138      0.2640
     73  O         13.2150   20.1010   14.9860 O.2   138  GLY138     -0.2714
     74  N         13.5880   22.1420   14.1360 N.am  139  SER139     -0.1935
     75  CA        14.6780   22.3890   15.0650 C.3   139  SER139      0.2055
     76  C         14.3140   23.4220   16.1350 C.2   139  SER139      0.2643
     77  O         15.2010   24.0580   16.7030 O.2   139  SER139     -0.2714
     78  CB        15.9520   22.7920   14.3130 C.3   139  SER139      0.2130
     79  OG        16.2480   21.8830   13.2690 O.3   139  SER139     -0.2179
     80  N         13.0190   23.5790   16.4160 N.am  140  SER140     -0.1949
     81  CA        12.5520   24.5430   17.4260 C.3   140  SER140      0.1924
     82  C         12.7740   24.0420   18.8470 C.2   140  SER140      0.2314
     83  O         12.4600   22.8950   19.1700 O.2   140  SER140     -0.2863
     84  CB        11.0730   24.8510   17.2540 C.3   140  SER140      0.2116
     85  OG        10.7140   24.8840   15.8940 O.3   140  SER140     -0.2180
     86  N         15.7060   28.5230   20.0130 N.3   155  PHE155     -0.1227
     87  CA        15.1590   28.8300   18.6890 C.3   155  PHE155      0.1736
     88  C         13.6240   28.7090   18.6750 C.2   155  PHE155      0.2595
     89  O         13.0560   27.6220   18.8600 O.2   155  PHE155     -0.2718
     90  CB        15.8540   27.9450   17.6190 C.3   155  PHE155      0.0547
     91  CG        15.3210   28.1160   16.2090 C.ar  155  PHE155     -0.0202
     92  CD1       14.7720   27.0340   15.5310 C.ar  155  PHE155     -0.0042
     93  CD2       15.3740   29.3490   15.5570 C.ar  155  PHE155     -0.0042
     94  CE1       14.2680   27.1790   14.2380 C.ar  155  PHE155     -0.0003
     95  CE2       14.8720   29.5000   14.2550 C.ar  155  PHE155     -0.0003
     96  CZ        14.3210   28.4150   13.5980 C.ar  155  PHE155     -0.0000
     97  N         12.9680   29.8500   18.4840 N.am  156  ARG156     -0.1966
     98  CA        11.5220   29.9140   18.4550 C.3   156  ARG156      0.1729
     99  C         11.0100   29.9450   17.0180 C.2   156  ARG156      0.2616
    100  O         10.3360   29.0040   16.5930 O.2   156  ARG156     -0.2715
    101  CB        11.0340   31.1250   19.2460 C.3   156  ARG156      0.0348
    102  CG         9.5270   31.3570   19.2070 C.3   156  ARG156      0.0492
    103  CD         9.1030   32.3540   20.2740 C.3   156  ARG156      0.2205
    104  NE        10.1800   33.2910   20.6060 N.pl3 156  ARG156     -0.0865
    105  CZ        10.1150   34.2120   21.5650 C.cat 156  ARG156      0.5346
    106  NH1        9.0080   34.3350   22.2950 N.pl3 156  ARG156      0.1354
    107  NH2       11.1580   35.0090   21.7990 N.pl3 156  ARG156      0.1354
    108  N         11.3410   31.0100   16.2760 N.am  157  ALA157     -0.1963
    109  CA        10.8370   31.2250   14.9010 C.3   157  ALA157      0.1728
    110  C         11.8990   31.7880   13.9470 C.2   157  ALA157      0.2616
    111  O         12.9110   32.3310   14.3960 O.2   157  ALA157     -0.2715
    112  CB         9.6130   32.1300   14.9200 C.3   157  ALA157      0.0334
    113  N         11.6570   31.6670   12.6380 N.am  158  ALA158     -0.1963
    114  CA        12.6240   32.0860   11.6150 C.3   158  ALA158      0.1728
    115  C         12.0950   33.1830   10.6740 C.2   158  ALA158      0.2616
    116  O         10.8970   33.2440   10.3850 O.2   158  ALA158     -0.2715
    117  CB        13.1130   30.8830   10.8210 C.3   158  ALA158      0.0334
    118  N         13.0110   34.0340   10.2060 N.am  159  VAL159     -0.1963
    119  CA        12.7090   35.1670    9.3260 C.3   159  VAL159      0.1727
    120  C         12.9390   34.7940    7.8670 C.2   159  VAL159      0.2616
    121  O         14.0820   34.6310    7.4280 O.2   159  VAL159     -0.2715
    122  CB        13.6270   36.3670    9.6350 C.3   159  VAL159      0.0290
    123  CG1       13.4010   37.4910    8.6320 C.3   159  VAL159      0.0023
    124  CG2       13.4320   36.8550   11.0570 C.3   159  VAL159      0.0023
    125  N         11.8680   34.6700    7.1000 N.am  160  CYS160     -0.1968
    126  CA        12.0420   34.3210    5.6990 C.3   160  CYS160      0.1712
    127  C         11.2520   35.2090    4.7470 C.2   160  CYS160      0.2296
    128  O         10.1730   35.7060    5.0740 O.2   160  CYS160     -0.2864
    129  CB        11.7410   32.8380    5.4500 C.3   160  CYS160      0.0983
    130  SG        10.0220   32.3880    5.6880 S.3   160  CYS160     -0.0798
    131  N         14.5610   34.1660   15.4220 N.3   169  ASP169     -0.1239
    132  CA        13.9850   34.7370   16.6100 C.3   169  ASP169      0.1674
    133  C         14.0370   33.6930   17.7140 C.2   169  ASP169      0.2266
    134  O         13.5560   32.5770   17.5270 O.2   169  ASP169     -0.2867
    135  CB        12.5460   35.1500   16.3350 C.3   169  ASP169      0.1410
    136  CG        12.0410   36.1830   17.3230 C.2   169  ASP169      0.3668
    137  OD1       12.2070   35.9790   18.5470 O.co2 169  ASP169     -0.2456
    138  OD2       11.4780   37.2100   16.8800 O.co2 169  ASP169     -0.2456
@<TRIPOS>BOND
     1    45    46    1
     2    51    49    1
     3   127   128    2
     4   127   126    1
     5    49    46    1
     6    49    50    1
     7    46    47    1
     8   129   130    1
     9   129   126    1
    10    47    48    2
    11   126   125    1
    12    50    52    1
    13   125   120   am
    14   121   120    2
    15   120   119    1
    16    53    54    1
    17    69    68    1
    18   123   122    1
    19    67    66    1
    20    67    68    1
    21    59    58    1
    22    65    66    1
    23    65    62    1
    24   119   122    1
    25   119   118    1
    26    61    62    1
    27    61    55   am
    28    54    57    1
    29    54    55    1
    30    58    57    1
    31    58    60    1
    32   122   124    1
    33    62    63    1
    34   118   115   am
    35    55    56    2
    36   116   115    2
    37   115   114    1
    38    64    63    2
    39   117   114    1
    40    63    70   am
    41   114   113    1
    42    70    71    1
    43    43    42    1
    44   113   110   am
    45    71    72    1
    46    79    78    1
    47    42    41    2
    48    42    44    1
    49    96    94   ar
    50    96    95   ar
    51   110   111    2
    52   110   109    1
    53    41    40    1
    54    74    72   am
    55    74    75    1
    56    72    73    2
    57    94    92   ar
    58    95    93   ar
    59    78    75    1
    60   109   112    1
    61   109   108    1
    62    75    76    1
    63    40    39    1
    64   131   132    1
    65    92    91   ar
    66    93    91   ar
    67    85    84    1
    68    76    80   am
    69    76    77    2
    70    91    90    1
    71   108    99   am
    72   135   132    1
    73   135   136    1
    74    38    39    1
    75    38    35    1
    76    80    81    1
    77   100    99    2
    78   132   133    1
    79   138   136   ar
    80    99    98    1
    81    36    35    1
    82    36    37    2
    83    10     8   ar
    84    10     9   ar
    85    35    34    1
    86    84    81    1
    87     8     6   ar
    88   136   137   ar
    89    81    82    1
    90   134   133    2
    91    90    87    1
    92     9     7   ar
    93     6     7   ar
    94     6     5    1
    95    98    97    1
    96    98   101    1
    97    97    88   am
    98     4     3    2
    99    88    87    1
   100    88    89    2
   101    87    86    1
   102    82    83    2
   103     5     2    1
   104   102   101    1
   105   102   103    1
   106     3     2    1
   107     2     1    1
   108   103   104    1
   109    33    31   ar
   110   104   105    2
   111   105   107    1
   112   105   106    1
   113    31    32   ar
   114    31    30    1
   115    30    27    1
   116    27    28    1
   117    27    26    1
   118    29    28    2
   119    14    13    2
   120    21    20    2
   121    16    15    1
   122    20    19    1
   123    13    12    1
   124    13    18   am
   125    19    18    1
   126    19    22    1
   127    15    12    1
   128    15    17    1
   129    12    11    1
   130    22    23    1
   131    25    23   ar
   132    23    24   ar
