@<TRIPOS>MOLECULE
tmp/2xnjA01.pdb
 183 174 0 0 0
SMALL
GASTEIGER

@<TRIPOS>ATOM
      1  N         61.8950    8.3640   16.7560 N.3    15  THR15      -0.1203
      2  CA        62.4530    9.5130   17.4580 C.3    15  THR15       0.1994
      3  C         61.5360   10.7250   17.1470 C.2    15  THR15       0.2618
      4  O         60.4490   10.5620   16.5860 O.2    15  THR15      -0.2717
      5  CB        63.9150    9.7960   17.0180 C.3    15  THR15       0.1784
      6  OG1       63.9410   10.3470   15.6980 O.3    15  THR15      -0.2211
      7  CG2       64.8360    8.5970   17.1200 C.3    15  THR15       0.0376
      8  N         62.0050   11.9270   17.4660 N.am   16  ASP16      -0.1959
      9  CA        61.3270   13.1750   17.1330 C.3    16  ASP16       0.1840
     10  C         61.3570   13.4240   15.6060 C.2    16  ASP16       0.2622
     11  O         60.5010   14.1200   15.0670 O.2    16  ASP16      -0.2715
     12  CB        62.0510   14.3470   17.8450 C.3    16  ASP16       0.1450
     13  CG        63.4930   14.5130   17.4330 C.2    16  ASP16       0.3671
     14  OD1       64.2710   13.5410   17.5830 O.co2  16  ASP16      -0.2456
     15  OD2       63.8390   15.5980   16.9070 O.co2  16  ASP16      -0.2456
     16  N         62.3800   12.8870   14.9140 N.am   17  ALA17      -0.1963
     17  CA        62.5790   13.1510   13.5050 C.3    17  ALA17       0.1728
     18  C         62.3470   11.9320   12.6100 C.2    17  ALA17       0.2616
     19  O         62.0340   12.1020   11.4310 O.2    17  ALA17      -0.2715
     20  CB        63.9880   13.6880   13.3030 C.3    17  ALA17       0.0334
     21  N         62.5460   10.7220   13.1600 N.am   18  LEU18      -0.1977
     22  CA        62.4330    9.4450   12.4330 C.3    18  LEU18       0.1596
     23  C         61.0810    8.7980   12.7310 C.2    18  LEU18       0.2287
     24  O         60.6730    8.6950   13.8870 O.2    18  LEU18      -0.2864
     25  CB        63.5810    8.4980   12.8360 C.3    18  LEU18       0.0297
     26  CG        64.9890    8.8900   12.3780 C.3    18  LEU18       0.0022
     27  CD1       66.0640    8.1880   13.2070 C.3    18  LEU18       0.0001
     28  CD2       65.2160    8.5400   10.9180 C.3    18  LEU18       0.0001
     29  N         62.4600   10.3880    7.4470 N.3    67  VAL67      -0.1231
     30  CA        63.0000   11.4250    8.3220 C.3    67  VAL67       0.1692
     31  C         62.4320   12.7950    7.9000 C.2    67  VAL67       0.2593
     32  O         62.2930   13.0550    6.7040 O.2    67  VAL67      -0.2718
     33  CB        64.5490   11.3800    8.4160 C.3    67  VAL67       0.0266
     34  CG1       65.2220   11.6540    7.0690 C.3    67  VAL67       0.0020
     35  CG2       65.0730   12.3280    9.5000 C.3    67  VAL67       0.0020
     36  N         62.1010   13.6700    8.8840 N.am   68  THR68      -0.1939
     37  CA        61.6800   15.0210    8.5510 C.3    68  THR68       0.2028
     38  C         62.9650   15.7570    8.2190 C.2    68  THR68       0.2642
     39  O         63.8810   15.8640    9.0570 O.2    68  THR68      -0.2714
     40  CB        60.9110   15.6770    9.7140 C.3    68  THR68       0.1808
     41  OG1       59.6030   15.1280    9.7350 O.3    68  THR68      -0.2208
     42  CG2       60.7990   17.1990    9.5560 C.3    68  THR68       0.0379
     43  N         63.0430   16.2260    6.9810 N.am   69  VAL69      -0.1963
     44  CA        64.2220   16.9050    6.4700 C.3    69  VAL69       0.1727
     45  C         64.3000   18.3560    6.9420 C.2    69  VAL69       0.2616
     46  O         63.3040   19.0790    6.9100 O.2    69  VAL69      -0.2715
     47  CB        64.3190   16.7260    4.9340 C.3    69  VAL69       0.0290
     48  CG1       65.2960   17.7060    4.2960 C.3    69  VAL69       0.0023
     49  CG2       64.6870   15.2700    4.5850 C.3    69  VAL69       0.0023
     50  N         65.5200   18.7740    7.3540 N.am   70  VAL70      -0.1977
     51  CA        65.8460   20.1230    7.8000 C.3    70  VAL70       0.1596
     52  C         67.1240   20.5240    7.0670 C.2    70  VAL70       0.2287
     53  O         68.0840   19.7590    7.0370 O.2    70  VAL70      -0.2864
     54  CB        66.0220   20.2290    9.3490 C.3    70  VAL70       0.0276
     55  CG1       66.4900   21.6240    9.7590 C.3    70  VAL70       0.0022
     56  CG2       64.7330   19.8460   10.0940 C.3    70  VAL70       0.0022
     57  N         72.9830    4.3910    5.2220 N.3   122  THR122     -0.1203
     58  CA        72.9650    5.4870    6.2090 C.3   122  THR122      0.1994
     59  C         71.5040    5.8250    6.4690 C.2   122  THR122      0.2618
     60  O         70.6730    5.7170    5.5620 O.2   122  THR122     -0.2717
     61  CB        73.7080    6.7420    5.7680 C.3   122  THR122      0.1784
     62  OG1       73.0600    7.2960    4.6250 O.3   122  THR122     -0.2211
     63  CG2       75.1890    6.5060    5.5190 C.3   122  THR122      0.0376
     64  N         71.2270    6.3250    7.6750 N.am  123  GLY123     -0.1942
     65  CA        69.9060    6.7720    8.0610 C.3   123  GLY123      0.2014
     66  C         68.7310    5.9350    7.5980 C.2   123  GLY123      0.2639
     67  O         68.6510    4.7460    7.8920 O.2   123  GLY123     -0.2714
     68  N         67.7980    6.5740    6.8870 N.am  124  THR124     -0.1950
     69  CA        66.5520    5.9310    6.4520 C.3   124  THR124      0.1897
     70  C         66.7490    4.9690    5.3050 C.2   124  THR124      0.2313
     71  O         65.8510    4.1720    5.0430 O.2   124  THR124     -0.2863
     72  CB        65.4720    6.9530    6.1420 C.3   124  THR124      0.1794
     73  OG1       65.9100    7.7530    5.0500 O.3   124  THR124     -0.2208
     74  CG2       65.1170    7.8320    7.3430 C.3   124  THR124      0.0378
     75  N         74.5350    2.7680    9.3830 N.3   150  ALA150     -0.1231
     76  CA        75.1960    3.9480    9.9600 C.3   150  ALA150      0.1694
     77  C         74.2120    5.0740   10.2350 C.2   150  ALA150      0.2592
     78  O         73.3810    5.4040    9.3850 O.2   150  ALA150     -0.2718
     79  CB        76.3080    4.4540    9.0340 C.3   150  ALA150      0.0304
     80  N         74.3270    5.6950   11.4110 N.am  151  ALA151     -0.1966
     81  CA        73.4860    6.8260   11.7710 C.3   151  ALA151      0.1728
     82  C         74.2760    7.7290   12.6900 C.2   151  ALA151      0.2616
     83  O         75.3950    7.3820   13.0540 O.2   151  ALA151     -0.2715
     84  CB        72.1990    6.3510   12.4420 C.3   151  ALA151      0.0334
     85  N         73.7430    8.9110   13.0080 N.am  152  ARG152     -0.1977
     86  CA        74.4140    9.8840   13.8870 C.3   152  ARG152      0.1597
     87  C         74.5380    9.3950   15.3380 C.2   152  ARG152      0.2287
     88  O         75.6160    9.4880   15.9200 O.2   152  ARG152     -0.2864
     89  CB        73.6900   11.2450   13.8560 C.3   152  ARG152      0.0334
     90  CG        73.6520   11.9130   12.4840 C.3   152  ARG152      0.0492
     91  CD        72.9590   13.2730   12.5630 C.3   152  ARG152      0.2205
     92  NE        72.6790   13.8150   11.2310 N.pl3 152  ARG152     -0.0865
     93  CZ        72.4070   15.0910   10.9710 C.cat 152  ARG152      0.5346
     94  NH1       72.3800   15.9840   11.9490 N.pl3 152  ARG152      0.1354
     95  NH2       72.1690   15.4840    9.7270 N.pl3 152  ARG152      0.1354
     96  N         69.0570    6.5170   16.8790 N.3   156  ASP156     -0.1239
     97  CA        68.5870    6.5900   15.4870 C.3   156  ASP156      0.1674
     98  C         68.5730    5.2310   14.7550 C.2   156  ASP156      0.2266
     99  O         68.1010    5.1540   13.6130 O.2   156  ASP156     -0.2867
    100  CB        69.4230    7.6000   14.6880 C.3   156  ASP156      0.1410
    101  CG        69.3520    9.0210   15.1920 C.2   156  ASP156      0.3668
    102  OD1       68.3700    9.3570   15.9130 O.co2 156  ASP156     -0.2456
    103  OD2       70.2630    9.8030   14.8700 O.co2 156  ASP156     -0.2456
    104  N         78.1200    7.8740   14.2470 N.3   181  SER181     -0.1202
    105  CA        79.1290    8.8880   13.9620 C.3   181  SER181      0.2020
    106  C         79.3320    9.9490   15.0280 C.2   181  SER181      0.2618
    107  O         80.4440   10.4530   15.1480 O.2   181  SER181     -0.2717
    108  CB        78.8320    9.5480   12.6230 C.3   181  SER181      0.2103
    109  OG        77.5460   10.1510   12.6560 O.3   181  SER181     -0.2182
    110  N         78.2830   10.3220   15.7830 N.am  182  ARG182     -0.1979
    111  CA        78.3740   11.4450   16.7310 C.3   182  ARG182      0.1597
    112  C         78.5320   11.1020   18.2030 C.2   182  ARG182      0.2287
    113  O         78.4890   12.0000   19.0420 O.2   182  ARG182     -0.2864
    114  CB        77.2300   12.4610   16.4860 C.3   182  ARG182      0.0334
    115  CG        77.2120   12.9360   15.0520 C.3   182  ARG182      0.0492
    116  CD        76.3600   14.1520   14.8110 C.3   182  ARG182      0.2205
    117  NE        76.3210   14.4490   13.3760 N.pl3 182  ARG182     -0.0865
    118  CZ        75.8080   15.5540   12.8470 C.cat 182  ARG182      0.5346
    119  NH1       75.2800   16.4910   13.6290 N.pl3 182  ARG182      0.1354
    120  NH2       75.8300   15.7390   11.5350 N.pl3 182  ARG182      0.1354
    121  N         82.1980    6.1180   13.9260 N.3   191  GLY191     -0.1210
    122  CA        82.7100    6.7950   12.7340 C.3   191  GLY191      0.1956
    123  C         81.7600    6.8200   11.5500 C.2   191  GLY191      0.2612
    124  O         80.5370    6.7370   11.6980 O.2   191  GLY191     -0.2717
    125  N         82.3410    6.9360   10.3620 N.am  192  ARG192     -0.1965
    126  CA        81.6560    6.9600    9.0910 C.3   192  ARG192      0.1729
    127  C         82.0860    5.7150    8.2970 C.2   192  ARG192      0.2616
    128  O         83.2240    5.2740    8.4410 O.2   192  ARG192     -0.2715
    129  CB        82.0190    8.2380    8.3270 C.3   192  ARG192      0.0348
    130  CG        81.3620    9.5120    8.8740 C.3   192  ARG192      0.0492
    131  CD        81.8400   10.7090    8.0730 C.3   192  ARG192      0.2205
    132  NE        80.9430   11.8590    8.1760 N.pl3 192  ARG192     -0.0865
    133  CZ        80.9990   12.9190    7.3760 C.cat 192  ARG192      0.5346
    134  NH1       81.8950   12.9740    6.3960 N.pl3 192  ARG192      0.1354
    135  NH2       80.1570   13.9290    7.5450 N.pl3 192  ARG192      0.1354
    136  N         81.1880    5.1600    7.4770 N.am  193  ILE193     -0.1964
    137  CA        81.4540    3.9440    6.6700 C.3   193  ILE193      0.1712
    138  C         82.7510    4.0010    5.8290 C.2   193  ILE193      0.2462
    139  O         83.5490    3.0760    5.9670 O.2   193  ILE193     -0.2730
    140  CB        80.2110    3.4590    5.8750 C.3   193  ILE193      0.0289
    141  CG1       79.1460    2.8690    6.8340 C.3   193  ILE193      0.0022
    142  CG2       80.5980    2.4040    4.8100 C.3   193  ILE193      0.0023
    143  CD1       77.7330    2.7480    6.2110 C.3   193  ILE193      0.0001
    144  N         83.0130    5.0410    4.9820 N.am  194  PRO194     -0.2651
    145  CA        84.2810    5.0410    4.2200 C.3   194  PRO194      0.1628
    146  C         85.5460    4.9450    5.0730 C.2   194  PRO194      0.2315
    147  O         86.4180    4.1510    4.7500 O.2   194  PRO194     -0.2861
    148  CB        84.2430    6.3260    3.3850 C.2   194  PRO194     -0.0016
    149  CG        83.0380    7.0710    3.8070 C.2   194  PRO194     -0.0072
    150  CD        82.1790    6.2280    4.6800 C.3   194  PRO194      0.1203
    151  N         72.7720    8.5840    1.9950 N.3   222  ASN222     -0.1240
    152  CA        73.3910    9.8910    1.9680 C.3   222  ASN222      0.1653
    153  C         74.1980   10.0510    0.6560 C.2   222  ASN222      0.2266
    154  O         75.0630    9.2140    0.4110 O.2   222  ASN222     -0.2867
    155  CB        74.2630   10.0500    3.2330 C.3   222  ASN222      0.1155
    156  CG        74.9750   11.3360    3.3350 C.2   222  ASN222      0.2627
    157  OD1       75.8640   11.6230    2.5540 O.2   222  ASN222     -0.2716
    158  ND2       74.6070   12.1420    4.3040 N.am  222  ASN222     -0.0877
    159  N         76.5490   12.0390   -0.2410 N.3   224  GLN224     -0.1231
    160  CA        77.9870   12.2200    0.0020 C.3   224  GLN224      0.1698
    161  C         78.6190   10.9100    0.4630 C.2   224  GLN224      0.2592
    162  O         79.7070   10.5830   -0.0070 O.2   224  GLN224     -0.2718
    163  CB        78.2940   13.4160    0.9200 C.3   224  GLN224      0.0381
    164  CG        79.7470   13.9260    0.7610 C.3   224  GLN224      0.0905
    165  CD        80.1250   14.4310   -0.6220 C.2   224  GLN224      0.2608
    166  OE1       79.3780   15.1670   -1.2780 O.2   224  GLN224     -0.2717
    167  NE2       81.3250   14.0810   -1.0760 N.am  224  GLN224     -0.0878
    168  N         77.9050   10.1100    1.2860 N.am  225  MET225     -0.1979
    169  CA        78.4000    8.7900    1.6850 C.3   225  MET225      0.1605
    170  C         78.5860    7.8900    0.4510 C.2   225  MET225      0.2287
    171  O         79.6030    7.2020    0.3590 O.2   225  MET225     -0.2864
    172  CB        77.4870    8.0910    2.7110 C.3   225  MET225      0.0413
    173  CG        77.9190    6.6550    3.0450 C.3   225  MET225      0.0598
    174  SD        77.2770    5.3630    1.9190 S.3   225  MET225     -0.1393
    175  CE        77.9580    3.9340    2.6530 C.3   225  MET225      0.0692
    176  N         81.5500    9.2260   -1.7100 N.3   228  ASP228     -0.1239
    177  CA        82.8290    9.0060   -1.0160 C.3   228  ASP228      0.1674
    178  C         83.2240    7.5260   -0.9460 C.2   228  ASP228      0.2266
    179  O         84.4080    7.2200   -1.0330 O.2   228  ASP228     -0.2867
    180  CB        82.7940    9.5860    0.4160 C.3   228  ASP228      0.1410
    181  CG        82.8000   11.0920    0.5540 C.2   228  ASP228      0.3668
    182  OD1       82.9250   11.7840   -0.4750 O.co2 228  ASP228     -0.2456
    183  OD2       82.6680   11.5810    1.6950 O.co2 228  ASP228     -0.2456
@<TRIPOS>BOND
     1   176   177    1
     2   166   165    2
     3   167   165   am
     4   179   178    2
     5   177   178    1
     6   177   180    1
     7   165   164    1
     8   182   181   ar
     9   159   160    1
    10   162   161    2
    11   160   161    1
    12   160   163    1
    13   171   170    2
    14   154   153    2
    15   180   181    1
    16   170   169    1
    17   161   168   am
    18   181   183   ar
    19   153   152    1
    20   164   163    1
    21   168   169    1
    22   169   172    1
    23   174   175    1
    24   174   173    1
    25   152   151    1
    26   152   155    1
    27   157   156    2
    28   172   173    1
    29   155   156    1
    30   156   158   am
    31   148   149    2
    32   148   145    1
    33   149   150    1
    34   145   144    1
    35   145   146    1
    36    48    47    1
    37    49    47    1
    38    62    61    1
    39   150   144    1
    40   147   146    2
    41   142   140    1
    42    47    44    1
    43   144   138   am
    44    71    70    2
    45    73    72    1
    46    57    58    1
    47    70    69    1
    48    63    61    1
    49    60    59    2
    50    61    58    1
    51   138   139    2
    52   138   137    1
    53   140   137    1
    54   140   141    1
    55    72    69    1
    56    72    74    1
    57    58    59    1
    58   143   141    1
    59   134   133    1
    60    69    68    1
    61    59    64   am
    62    44    45    1
    63    44    43    1
    64   137   136    1
    65    32    31    2
    66    68    66   am
    67    46    45    2
    68    45    50   am
    69    43    38   am
    70    53    52    2
    71    52    51    1
    72    34    33    1
    73    50    51    1
    74   133   135    1
    75   133   132    2
    76    29    30    1
    77   136   127   am
    78    66    67    2
    79    66    65    1
    80    64    65    1
    81    51    54    1
    82    31    30    1
    83    31    36   am
    84   131   132    1
    85   131   130    1
    86    38    37    1
    87    38    39    2
    88   127   128    2
    89   127   126    1
    90    30    33    1
    91   129   130    1
    92   129   126    1
    93    33    35    1
    94    37    36    1
    95    37    40    1
    96    79    76    1
    97   126   125    1
    98    54    55    1
    99    54    56    1
   100    75    76    1
   101    78    77    2
   102    42    40    1
   103    40    41    1
   104    95    93    1
   105    76    77    1
   106    77    80   am
   107   125   123   am
   108    28    26    1
   109    93    92    2
   110    93    94    1
   111    92    91    1
   112    80    81    1
   113    19    18    2
   114   120   118    1
   115   123   124    2
   116   123   122    1
   117    81    84    1
   118    81    82    1
   119    26    25    1
   120    26    27    1
   121    22    23    1
   122    22    25    1
   123    22    21    1
   124    90    91    1
   125    90    89    1
   126    18    21   am
   127    18    17    1
   128   108   109    1
   129   108   105    1
   130    82    85   am
   131    82    83    2
   132    23    24    2
   133   122   121    1
   134   118   117    2
   135   118   119    1
   136    85    86    1
   137    20    17    1
   138   117   116    1
   139    17    16    1
   140    99    98    2
   141    89    86    1
   142    86    87    1
   143   105   104    1
   144   105   106    1
   145   100   101    1
   146   100    97    1
   147    98    97    1
   148   116   115    1
   149   103   101   ar
   150    16    10   am
   151   106   107    2
   152   106   110   am
   153   115   114    1
   154    11    10    2
   155   101   102   ar
   156    87    88    2
   157    97    96    1
   158    10     9    1
   159     6     5    1
   160   110   111    1
   161   114   111    1
   162     4     3    2
   163   111   112    1
   164     1     2    1
   165    15    13   ar
   166     5     7    1
   167     5     2    1
   168     9     8    1
   169     9    12    1
   170     3     2    1
   171     3     8   am
   172    13    14   ar
   173    13    12    1
   174   112   113    2
