@<TRIPOS>MOLECULE
tmp/2xnjA00.pdb
 188 185 0 0 0
SMALL
GASTEIGER

@<TRIPOS>ATOM
      1  N         61.4040    1.4110   -5.0030 N.3    35  PHE35      -0.1241
      2  CA        60.7450    2.5170   -4.3290 C.3    35  PHE35       0.1605
      3  C         59.4630    2.8880   -5.0930 C.2    35  PHE35       0.2264
      4  O         59.2310    2.4540   -6.2420 O.2    35  PHE35      -0.2867
      5  CB        61.6940    3.7390   -4.2370 C.3    35  PHE35       0.0534
      6  CG        62.1700    4.3340   -5.5550 C.ar   35  PHE35      -0.0203
      7  CD1       61.4130    5.3020   -6.2190 C.ar   35  PHE35      -0.0042
      8  CD2       63.3360    3.8820   -6.1610 C.ar   35  PHE35      -0.0042
      9  CE1       61.8470    5.8510   -7.4270 C.ar   35  PHE35      -0.0003
     10  CE2       63.7780    4.4440   -7.3670 C.ar   35  PHE35      -0.0003
     11  CZ        63.0360    5.4330   -7.9840 C.ar   35  PHE35      -0.0000
     12  N         57.4670   12.8220   -3.7080 N.3    49  ARG49      -0.1231
     13  CA        58.8720   12.4480   -3.4850 C.3    49  ARG49       0.1694
     14  C         58.9700   10.9160   -3.4910 C.2    49  ARG49       0.2592
     15  O         57.9610   10.2410   -3.2900 O.2    49  ARG49      -0.2718
     16  CB        59.4140   12.9950   -2.1420 C.3    49  ARG49       0.0321
     17  CG        59.3700   14.5050   -1.9380 C.3    49  ARG49       0.0489
     18  CD        60.3090   15.3060   -2.8300 C.3    49  ARG49       0.2205
     19  NE        60.2490   16.7240   -2.4690 N.pl3  49  ARG49      -0.0865
     20  CZ        59.6690   17.6840   -3.1890 C.cat  49  ARG49       0.5346
     21  NH1       59.0480   17.3920   -4.3260 N.pl3  49  ARG49       0.1354
     22  NH2       59.6870   18.9330   -2.7660 N.pl3  49  ARG49       0.1354
     23  N         60.1840   10.3760   -3.7130 N.am   50  ALA50      -0.1966
     24  CA        60.4000    8.9270   -3.7440 C.3    50  ALA50       0.1728
     25  C         60.6360    8.3990   -2.3280 C.2    50  ALA50       0.2616
     26  O         61.3350    9.0510   -1.5290 O.2    50  ALA50      -0.2715
     27  CB        61.6180    8.6090   -4.6040 C.3    50  ALA50       0.0334
     28  N         60.0470    7.2330   -2.0180 N.am   51  TYR51      -0.1960
     29  CA        60.2340    6.5120   -0.7520 C.3    51  TYR51       0.1771
     30  C         60.3290    5.0370   -1.0140 C.2    51  TYR51       0.2620
     31  O         59.4800    4.4820   -1.7260 O.2    51  TYR51      -0.2715
     32  CB        59.1450    6.8320    0.2780 C.3    51  TYR51       0.0574
     33  CG        59.1190    8.3080    0.6070 C.ar   51  TYR51      -0.0198
     34  CD1       60.0990    8.8780    1.4170 C.ar   51  TYR51      -0.0009
     35  CD2       58.1980    9.1580    0.0000 C.ar   51  TYR51      -0.0009
     36  CE1       60.1420   10.2540    1.6420 C.ar   51  TYR51       0.0417
     37  CE2       58.2170   10.5330    0.2390 C.ar   51  TYR51       0.0417
     38  CZ        59.1960   11.0770    1.0530 C.ar   51  TYR51       0.1957
     39  OH        59.2320   12.4340    1.2760 O.3    51  TYR51      -0.2866
     40  N         61.3520    4.3900   -0.4280 N.am   52  SER52      -0.1950
     41  CA        61.5590    2.9690   -0.5930 C.3    52  SER52       0.1924
     42  C         60.5810    2.1480    0.2390 C.2    52  SER52       0.2314
     43  O         60.2240    2.5220    1.3550 O.2    52  SER52      -0.2863
     44  CB        62.9790    2.5800   -0.1780 C.3    52  SER52       0.2116
     45  OG        63.9650    3.1980   -0.9890 O.3    52  SER52      -0.2180
     46  N         59.8650   -0.7600    2.6730 N.3    54  VAL54      -0.1245
     47  CA        60.6250   -1.4090    3.7480 C.3    54  VAL54       0.1561
     48  C         60.0170   -2.7730    4.0070 C.2    54  VAL54       0.2260
     49  O         60.6530   -3.6200    4.5930 O.2    54  VAL54      -0.2867
     50  CB        60.6240   -0.4720    5.0070 C.3    54  VAL54       0.0252
     51  CG1       61.4610   -1.0580    6.1550 C.3    54  VAL54       0.0019
     52  CG2       61.1310    0.9240    4.6350 C.3    54  VAL54       0.0019
     53  N         60.0390    4.1740    5.7020 N.3    65  TYR65      -0.1227
     54  CA        60.8810    4.6710    6.8010 C.3    65  TYR65       0.1736
     55  C         61.4330    6.0280    6.3780 C.2    65  TYR65       0.2595
     56  O         62.1520    6.1490    5.3710 O.2    65  TYR65      -0.2718
     57  CB        61.9890    3.6530    7.0940 C.3    65  TYR65       0.0548
     58  CG        62.9920    4.0440    8.1620 C.ar   65  TYR65      -0.0200
     59  CD1       62.5880    4.7010    9.3240 C.ar   65  TYR65      -0.0009
     60  CD2       64.3180    3.6420    8.0700 C.ar   65  TYR65      -0.0009
     61  CE1       63.4980    5.0200   10.3300 C.ar   65  TYR65       0.0417
     62  CE2       65.2340    3.9420    9.0720 C.ar   65  TYR65       0.0417
     63  CZ        64.8220    4.6280   10.2030 C.ar   65  TYR65       0.1957
     64  OH        65.7420    4.9220   11.1740 O.3    65  TYR65      -0.2866
     65  N         61.0440    7.0620    7.1220 N.am   66  LEU66      -0.1966
     66  CA        61.3280    8.4360    6.7720 C.3    66  LEU66       0.1728
     67  C         61.9280    9.2530    7.8670 C.2    66  LEU66       0.2616
     68  O         61.9000    8.8890    9.0510 O.2    66  LEU66      -0.2715
     69  CB        59.9860    9.1200    6.3980 C.3    66  LEU66       0.0311
     70  CG        59.5040    9.0470    4.9750 C.3    66  LEU66       0.0022
     71  CD1       58.9370    7.6790    4.6640 C.3    66  LEU66       0.0001
     72  CD2       58.3680   10.0180    4.7780 C.3    66  LEU66       0.0001
     73  N         62.4600   10.3880    7.4470 N.am   67  VAL67      -0.1977
     74  CA        63.0000   11.4250    8.3220 C.3    67  VAL67       0.1596
     75  C         62.4320   12.7950    7.9000 C.2    67  VAL67       0.2287
     76  O         62.2930   13.0550    6.7040 O.2    67  VAL67      -0.2864
     77  CB        64.5490   11.3800    8.4160 C.3    67  VAL67       0.0276
     78  CG1       65.2220   11.6540    7.0690 C.3    67  VAL67       0.0022
     79  CG2       65.0730   12.3280    9.5000 C.3    67  VAL67       0.0022
     80  N         63.0430   16.2260    6.9810 N.3    69  VAL69      -0.1231
     81  CA        64.2220   16.9050    6.4700 C.3    69  VAL69       0.1692
     82  C         64.3000   18.3560    6.9420 C.2    69  VAL69       0.2592
     83  O         63.3040   19.0790    6.9100 O.2    69  VAL69      -0.2718
     84  CB        64.3190   16.7260    4.9340 C.3    69  VAL69       0.0266
     85  CG1       65.2960   17.7060    4.2960 C.3    69  VAL69       0.0020
     86  CG2       64.6870   15.2700    4.5850 C.3    69  VAL69       0.0020
     87  N         65.5200   18.7740    7.3540 N.am   70  VAL70      -0.1966
     88  CA        65.8460   20.1230    7.8000 C.3    70  VAL70       0.1727
     89  C         67.1240   20.5240    7.0670 C.2    70  VAL70       0.2616
     90  O         68.0840   19.7590    7.0370 O.2    70  VAL70      -0.2715
     91  CB        66.0220   20.2290    9.3490 C.3    70  VAL70       0.0290
     92  CG1       66.4900   21.6240    9.7590 C.3    70  VAL70       0.0023
     93  CG2       64.7330   19.8460   10.0940 C.3    70  VAL70       0.0023
     94  N         67.1290   21.7020    6.4670 N.am   71  TYR71      -0.1974
     95  CA        68.3150   22.1890    5.7740 C.3    71  TYR71       0.1639
     96  C         68.4080   23.7080    5.8730 C.2    71  TYR71       0.2290
     97  O         67.4470   24.3850    6.2820 O.2    71  TYR71      -0.2864
     98  CB        68.3480   21.6940    4.3010 C.3    71  TYR71       0.0560
     99  CG        67.2730   22.2970    3.4260 C.ar   71  TYR71      -0.0198
    100  CD1       65.9570   21.8410    3.4900 C.ar   71  TYR71      -0.0009
    101  CD2       67.5560   23.3620    2.5740 C.ar   71  TYR71      -0.0009
    102  CE1       64.9520   22.4260    2.7240 C.ar   71  TYR71       0.0417
    103  CE2       66.5630   23.9470    1.7940 C.ar   71  TYR71       0.0417
    104  CZ        65.2660   23.4650    1.8590 C.ar   71  TYR71       0.1957
    105  OH        64.2760   24.0530    1.1160 O.3    71  TYR71      -0.2866
    106  N         61.9320   20.5900    4.9420 N.3    81  GLY81      -0.1210
    107  CA        61.6460   20.1780    3.5810 C.3    81  GLY81       0.1956
    108  C         60.1500   20.3330    3.3270 C.2    81  GLY81       0.2612
    109  O         59.3740   20.5570    4.2650 O.2    81  GLY81      -0.2717
    110  N         59.7460   20.2950    2.0610 N.am   82  LYS82      -0.1965
    111  CA        58.3490   20.4960    1.6680 C.3    82  LYS82       0.1728
    112  C         57.4360   19.3320    2.0400 C.2    82  LYS82       0.2616
    113  O         56.4130   19.5570    2.6930 O.2    82  LYS82      -0.2715
    114  CB        58.2600   20.8040    0.1640 C.3    82  LYS82       0.0311
    115  CG        56.9440   21.4380   -0.2520 C.3    82  LYS82       0.0038
    116  CD        57.1040   22.2340   -1.5350 C.3    82  LYS82       0.0206
    117  CE        55.8420   22.9700   -1.9090 C.3    82  LYS82       0.1093
    118  NZ        55.5590   24.1230   -1.0080 N.3    82  LYS82      -0.1314
    119  N         57.7670   18.0950    1.6010 N.am   83  LEU83      -0.1963
    120  CA        56.8500   16.9850    1.8300 C.3    83  LEU83       0.1728
    121  C         57.0470   16.2160    3.1280 C.2    83  LEU83       0.2616
    122  O         56.0450   15.8490    3.7380 O.2    83  LEU83      -0.2715
    123  CB        56.8220   16.0230    0.6080 C.3    83  LEU83       0.0311
    124  CG        55.7890   14.8750    0.6410 C.3    83  LEU83       0.0022
    125  CD1       54.3190   15.4090    0.7290 C.3    83  LEU83       0.0001
    126  CD2       56.0330   13.8560   -0.4890 C.3    83  LEU83       0.0001
    127  N         58.3240   15.9450    3.5560 N.am   84  SER84      -0.1950
    128  CA        58.5200   15.1150    4.7640 C.3    84  SER84       0.1924
    129  C         57.7900   15.5140    6.0430 C.2    84  SER84       0.2314
    130  O         57.2550   14.6140    6.6990 O.2    84  SER84      -0.2863
    131  CB        59.9910   14.7750    5.0100 C.3    84  SER84       0.2116
    132  OG        60.8270   15.9110    5.1320 O.3    84  SER84      -0.2180
    133  N         67.7980    6.5740    6.8870 N.3   124  THR124     -0.1218
    134  CA        66.5520    5.9310    6.4520 C.3   124  THR124      0.1862
    135  C         66.7490    4.9690    5.3050 C.2   124  THR124      0.2287
    136  O         65.8510    4.1720    5.0430 O.2   124  THR124     -0.2866
    137  CB        65.4720    6.9530    6.1420 C.3   124  THR124      0.1770
    138  OG1       65.9100    7.7530    5.0500 O.3   124  THR124     -0.2211
    139  CG2       65.1170    7.8320    7.3430 C.3   124  THR124      0.0375
    140  N         73.7430    8.9110   13.0080 N.3   152  ARG152     -0.1245
    141  CA        74.4140    9.8840   13.8870 C.3   152  ARG152      0.1563
    142  C         74.5380    9.3950   15.3380 C.2   152  ARG152      0.2260
    143  O         75.6160    9.4880   15.9200 O.2   152  ARG152     -0.2867
    144  CB        73.6900   11.2450   13.8560 C.3   152  ARG152      0.0307
    145  CG        73.6520   11.9130   12.4840 C.3   152  ARG152      0.0489
    146  CD        72.9590   13.2730   12.5630 C.3   152  ARG152      0.2205
    147  NE        72.6790   13.8150   11.2310 N.pl3 152  ARG152     -0.0865
    148  CZ        72.4070   15.0910   10.9710 C.cat 152  ARG152      0.5346
    149  NH1       72.3800   15.9840   11.9490 N.pl3 152  ARG152      0.1354
    150  NH2       72.1690   15.4840    9.7270 N.pl3 152  ARG152      0.1354
    151  N         73.8940   11.0530   -0.2330 N.3   223  PRO223     -0.2116
    152  CA        74.6310   11.1530   -1.5090 C.3   223  PRO223      0.1372
    153  C         76.1340   11.3360   -1.3160 C.2   223  PRO223      0.2244
    154  O         76.9080   10.8360   -2.1240 O.2   223  PRO223     -0.2868
    155  CB        73.9990   12.3780   -2.2010 C.3   223  PRO223      0.0268
    156  CG        72.6970   12.5750   -1.5490 C.3   223  PRO223      0.0207
    157  CD        72.8900   12.1300   -0.1210 C.3   223  PRO223      0.0892
    158  N         72.3520    3.4860   -4.7990 N.3   253  GLU253     -0.1231
    159  CA        71.1240    4.2400   -4.8550 C.3   253  GLU253      0.1699
    160  C         71.1760    5.3240   -3.7870 C.2   253  GLU253      0.2592
    161  O         71.0290    5.0290   -2.5950 O.2   253  GLU253     -0.2718
    162  CB        69.8660    3.3840   -4.7460 C.3   253  GLU253      0.0402
    163  CG        68.6210    4.2120   -4.9760 C.3   253  GLU253      0.1161
    164  CD        67.3560    3.4140   -4.7880 C.2   253  GLU253      0.3649
    165  OE1       66.9220    3.2290   -3.6260 O.co2 253  GLU253     -0.2457
    166  OE2       66.8140    2.9490   -5.8120 O.co2 253  GLU253     -0.2457
    167  N         71.4090    6.5750   -4.2040 N.am  254  HIS254     -0.1962
    168  CA        71.4170    7.6570   -3.2240 C.3   254  HIS254      0.1787
    169  C         69.9820    8.1420   -2.9980 C.2   254  HIS254      0.2620
    170  O         69.1110    7.9410   -3.8440 O.2   254  HIS254     -0.2715
    171  CB        72.3660    8.7990   -3.6450 C.3   254  HIS254      0.0785
    172  CG        71.8280    9.6910   -4.7120 C.ar  254  HIS254      0.0821
    173  ND1       70.8630   10.6440   -4.4400 N.ar  254  HIS254     -0.2267
    174  CD2       72.1440    9.7570   -6.0250 C.ar  254  HIS254      0.1154
    175  CE1       70.6000   11.2420   -5.5930 C.ar  254  HIS254      0.1986
    176  NE2       71.3390   10.7380   -6.5770 N.ar  254  HIS254     -0.2212
    177  N         69.7420    8.8040   -1.8680 N.am  255  TYR255     -0.1974
    178  CA        68.4460    9.3860   -1.5570 C.3   255  TYR255      0.1639
    179  C         68.5190   10.8880   -1.7740 C.2   255  TYR255      0.2290
    180  O         67.5420   11.5970   -1.4100 O.2   255  TYR255     -0.2864
    181  CB        68.0520    9.0890   -0.1070 C.3   255  TYR255      0.0560
    182  CG        67.4410    7.7360    0.1720 C.ar  255  TYR255     -0.0198
    183  CD1       67.4610    6.7250   -0.7870 C.ar  255  TYR255     -0.0009
    184  CD2       66.9020    7.4430    1.4180 C.ar  255  TYR255     -0.0009
    185  CE1       66.9500    5.4610   -0.5130 C.ar  255  TYR255      0.0417
    186  CE2       66.3150    6.2130    1.6780 C.ar  255  TYR255      0.0417
    187  CZ        66.3430    5.2180    0.7070 C.ar  255  TYR255      0.1957
    188  OH        65.8100    3.9790    0.9490 O.3   255  TYR255     -0.2866
@<TRIPOS>BOND
     1    11     9   ar
     2    11    10   ar
     3     9     7   ar
     4    10     8   ar
     5   176   174   ar
     6   176   175   ar
     7     4     3    2
     8     7     6   ar
     9     8     6   ar
    10   174   172   ar
    11   166   164   ar
    12   175   173   ar
    13     6     5    1
    14     3     2    1
    15     1     2    1
    16   163   164    1
    17   163   162    1
    18   159   158    1
    19   159   162    1
    20   159   160    1
    21   164   165   ar
    22   172   173   ar
    23   172   171    1
    24    27    24    1
    25     2     5    1
    26    21    20    1
    27   167   160   am
    28   167   168    1
    29   170   169    2
    30   160   161    2
    31    24    23    1
    32    24    25    1
    33    23    14   am
    34    12    13    1
    35   171   168    1
    36    14    13    1
    37    14    15    2
    38    13    16    1
    39   168   169    1
    40    20    22    1
    41    20    19    2
    42   169   177   am
    43    18    19    1
    44    18    17    1
    45    25    28   am
    46    25    26    2
    47   155   156    1
    48   155   152    1
    49    16    17    1
    50   154   153    2
    51    28    29    1
    52   117   116    1
    53   117   118    1
    54   177   178    1
    55   179   178    1
    56   179   180    2
    57    31    30    2
    58   178   181    1
    59   156   157    1
    60   116   115    1
    61   152   153    1
    62   152   151    1
    63    30    29    1
    64    30    40   am
    65    45    44    1
    66   183   185   ar
    67   183   182   ar
    68    29    32    1
    69    41    40    1
    70    41    44    1
    71    41    42    1
    72   185   187   ar
    73   126   124    1
    74   115   114    1
    75   151   157    1
    76   181   182    1
    77    35    37   ar
    78    35    33   ar
    79   114   111    1
    80   182   184   ar
    81    42    43    2
    82    37    38   ar
    83    32    33    1
    84    33    34   ar
    85   123   124    1
    86   123   120    1
    87   124   125    1
    88   187   188    1
    89   187   186   ar
    90    38    39    1
    91    38    36   ar
    92   105   104    1
    93    34    36   ar
    94   184   186   ar
    95   119   120    1
    96   119   112   am
    97   111   112    1
    98   111   110    1
    99   103   104   ar
   100   103   101   ar
   101   120   121    1
   102   104   102   ar
   103   112   113    2
   104   110   108   am
   105   101    99   ar
   106    46    47    1
   107   102   100   ar
   108   121   127   am
   109   121   122    2
   110   108   107    1
   111   108   109    2
   112    99   100   ar
   113    99    98    1
   114   127   128    1
   115   107   106    1
   116    47    48    1
   117    47    50    1
   118    48    49    2
   119    85    84    1
   120    98    95    1
   121    86    84    1
   122    52    50    1
   123    71    70    1
   124   128   131    1
   125   128   129    1
   126    72    70    1
   127    84    81    1
   128    70    69    1
   129    50    51    1
   130   131   132    1
   131   136   135    2
   132   138   137    1
   133   135   134    1
   134    56    55    2
   135    53    54    1
   136    95    96    1
   137    95    94    1
   138    96    97    2
   139   129   130    2
   140   137   134    1
   141   137   139    1
   142    55    54    1
   143    55    65   am
   144    69    66    1
   145   134   133    1
   146    94    89   am
   147    81    82    1
   148    81    80    1
   149    76    75    2
   150    66    65    1
   151    66    67    1
   152    54    57    1
   153    83    82    2
   154    82    87   am
   155    90    89    2
   156    89    88    1
   157    78    77    1
   158    57    58    1
   159    87    88    1
   160    73    67   am
   161    73    74    1
   162    88    91    1
   163    67    68    2
   164    75    74    1
   165    60    58   ar
   166    60    62   ar
   167    58    59   ar
   168    74    77    1
   169    77    79    1
   170    62    63   ar
   171    59    61   ar
   172    91    92    1
   173    91    93    1
   174   150   148    1
   175    63    61   ar
   176    63    64    1
   177   148   147    2
   178   148   149    1
   179   147   146    1
   180   145   146    1
   181   145   144    1
   182   140   141    1
   183   144   141    1
   184   141   142    1
   185   142   143    2
