@<TRIPOS>MOLECULE
tmp/2xnmA00.pdb
 178 168 0 0 0
SMALL
GASTEIGER

@<TRIPOS>ATOM
      1  N         33.8980    9.2540  -18.5470 N.3    12  ILE12      -0.1231
      2  CA        32.8780   10.0370  -19.2290 C.3    12  ILE12       0.1692
      3  C         32.6150   11.3560  -18.5130 C.2    12  ILE12       0.2593
      4  O         32.3530   12.3760  -19.1460 O.2    12  ILE12      -0.2718
      5  CB        31.5490    9.2480  -19.2750 C.3    12  ILE12       0.0266
      6  CG1       31.6480    8.1000  -20.2770 C.3    12  ILE12       0.0019
      7  CG2       30.3910   10.1720  -19.6070 C.3    12  ILE12       0.0020
      8  CD1       30.4340    7.1690  -20.2500 C.3    12  ILE12       0.0001
      9  N         32.6740   11.3280  -17.1850 N.am   13  GLY13      -0.1942
     10  CA        32.3790   12.5060  -16.3910 C.3    13  GLY13       0.2014
     11  C         32.9510   12.3990  -14.9930 C.2    13  GLY13       0.2639
     12  O         33.2040   11.3030  -14.4910 O.2    13  GLY13      -0.2714
     13  N         33.1660   13.5460  -14.3590 N.am   14  THR14      -0.1950
     14  CA        33.7790   13.5680  -13.0420 C.3    14  THR14       0.1897
     15  C         33.0850   14.5860  -12.1570 C.2    14  THR14       0.2313
     16  O         32.8870   15.7350  -12.5530 O.2    14  THR14      -0.2863
     17  CB        35.2830   13.9060  -13.1200 C.3    14  THR14       0.1794
     18  OG1       35.9300   13.0250  -14.0490 O.3    14  THR14      -0.2208
     19  CG2       35.9400   13.7640  -11.7490 C.3    14  THR14       0.0378
     20  N         32.1400    8.8230  -13.4710 N.3    20  CYS20      -0.1235
     21  CA        31.3410    7.9440  -14.3110 C.3    20  CYS20       0.1677
     22  C         32.2550    7.5050  -15.4600 C.2    20  CYS20       0.2270
     23  O         32.8550    8.3460  -16.1310 O.2    20  CYS20      -0.2867
     24  CB        30.1160    8.6920  -14.8370 C.3    20  CYS20       0.0956
     25  SG        29.0800    7.7640  -15.9990 S.3    20  CYS20      -0.0801
     26  N         28.3130    1.4070  -18.3050 N.3    33  VAL33      -0.1245
     27  CA        29.0120    2.4630  -17.5830 C.3    33  VAL33       0.1561
     28  C         29.0070    2.1070  -16.1060 C.2    33  VAL33       0.2260
     29  O         28.1860    1.3090  -15.6670 O.2    33  VAL33      -0.2867
     30  CB        28.3640    3.8550  -17.7790 C.3    33  VAL33       0.0252
     31  CG1       28.2790    4.2090  -19.2640 C.3    33  VAL33       0.0019
     32  CG2       26.9960    3.8970  -17.1460 C.3    33  VAL33       0.0019
     33  N         29.3140    4.1020  -12.0500 N.3    35  LYS35      -0.1245
     34  CA        29.5310    5.2450  -11.1850 C.3    35  LYS35       0.1561
     35  C         30.4260    4.7500  -10.0800 C.2    35  LYS35       0.2260
     36  O         30.0900    3.7700   -9.4080 O.2    35  LYS35      -0.2867
     37  CB        28.2170    5.7010  -10.5480 C.3    35  LYS35       0.0271
     38  CG        27.0750    5.8000  -11.5010 C.3    35  LYS35       0.0035
     39  CD        27.3080    6.9090  -12.4840 C.3    35  LYS35       0.0206
     40  CE        26.5250    6.6610  -13.7560 C.3    35  LYS35       0.1093
     41  NZ        26.6930    7.7800  -14.6960 N.3    35  LYS35      -0.1314
     42  N         16.8450    4.0800  -17.3250 N.3    66  VAL66      -0.1245
     43  CA        18.2330    3.6190  -17.3880 C.3    66  VAL66       0.1561
     44  C         18.3770    2.3490  -16.5530 C.2    66  VAL66       0.2260
     45  O         18.0380    2.3230  -15.3680 O.2    66  VAL66      -0.2867
     46  CB        19.2330    4.7010  -16.9330 C.3    66  VAL66       0.0252
     47  CG1       20.6430    4.1190  -16.8210 C.3    66  VAL66       0.0019
     48  CG2       19.2270    5.8870  -17.9090 C.3    66  VAL66       0.0019
     49  N         25.6020    0.4090  -14.8180 N.3    84  MET84      -0.1230
     50  CA        24.3580    0.7560  -15.4940 C.3    84  MET84       0.1702
     51  C         24.5110    0.6850  -17.0110 C.2    84  MET84       0.2592
     52  O         25.6190    0.5730  -17.5330 O.2    84  MET84      -0.2718
     53  CB        23.9360    2.1790  -15.1090 C.3    84  MET84       0.0401
     54  CG        24.0030    2.4880  -13.6190 C.3    84  MET84       0.0596
     55  SD        22.5810    1.8840  -12.6890 S.3    84  MET84      -0.1393
     56  CE        21.2600    2.9220  -13.3190 C.3    84  MET84       0.0692
     57  N         23.3860    0.8080  -17.6930 N.am   85  GLU85      -0.1966
     58  CA        23.3010    0.8500  -19.1360 C.3    85  GLU85       0.1733
     59  C         24.1050    2.0150  -19.7230 C.2    85  GLU85       0.2616
     60  O         24.0950    3.1080  -19.1670 O.2    85  GLU85      -0.2715
     61  CB        21.8170    1.0220  -19.4510 C.3    85  GLU85       0.0429
     62  CG        21.4650    1.2880  -20.8470 C.3    85  GLU85       0.1163
     63  CD        19.9420    1.3360  -21.0370 C.2    85  GLU85       0.3649
     64  OE1       19.5340    1.3770  -22.2040 O.co2  85  GLU85      -0.2457
     65  OE2       19.1750    1.3290  -20.0310 O.co2  85  GLU85      -0.2457
     66  N         24.7850    1.7770  -20.8510 N.am   86  TYR86      -0.1960
     67  CA        25.4670    2.8420  -21.6000 C.3    86  TYR86       0.1771
     68  C         24.5300    3.4180  -22.6480 C.2    86  TYR86       0.2620
     69  O         23.9520    2.6730  -23.4370 O.2    86  TYR86      -0.2715
     70  CB        26.7120    2.3020  -22.3080 C.3    86  TYR86       0.0574
     71  CG        27.3850    3.2870  -23.2400 C.ar   86  TYR86      -0.0198
     72  CD1       27.9380    4.4730  -22.7510 C.ar   86  TYR86      -0.0009
     73  CD2       27.4860    3.0300  -24.6080 C.ar   86  TYR86      -0.0009
     74  CE1       28.5690    5.3700  -23.5900 C.ar   86  TYR86       0.0417
     75  CE2       28.1220    3.9280  -25.4570 C.ar   86  TYR86       0.0417
     76  CZ        28.6570    5.0990  -24.9380 C.ar   86  TYR86       0.1957
     77  OH        29.2890    6.0070  -25.7570 O.3    86  TYR86      -0.2866
     78  N         24.4000    4.7390  -22.6590 N.am   87  CYS87      -0.1954
     79  CA        23.4980    5.4220  -23.5790 C.3    87  CYS87       0.1843
     80  C         24.3120    6.2960  -24.5290 C.2    87  CYS87       0.2625
     81  O         24.6750    7.4270  -24.1980 O.2    87  CYS87      -0.2714
     82  CB        22.5120    6.2780  -22.7900 C.3    87  CYS87       0.0997
     83  SG        21.4220    5.2990  -21.7140 S.3    87  CYS87      -0.0797
     84  N         24.5990    5.7750  -25.7120 N.am   88  GLU88      -0.1977
     85  CA        25.6180    6.4020  -26.5480 C.3    88  GLU88       0.1602
     86  C         25.2800    7.8230  -26.9950 C.2    88  GLU88       0.2287
     87  O         26.1770    8.5990  -27.3220 O.2    88  GLU88      -0.2864
     88  CB        25.9770    5.5120  -27.7390 C.3    88  GLU88       0.0415
     89  CG        24.9440    5.4900  -28.8310 C.3    88  GLU88       0.1163
     90  CD        25.5100    4.8940  -30.1070 C.2    88  GLU88       0.3649
     91  OE1       25.7210    5.6530  -31.0720 O.co2  88  GLU88      -0.2457
     92  OE2       25.7650    3.6750  -30.1250 O.co2  88  GLU88      -0.2457
     93  N         24.0810   10.1770  -25.1490 N.3    90  GLY90      -0.1210
     94  CA        24.3210   11.1530  -24.0970 C.3    90  GLY90       0.1956
     95  C         23.0370   11.7060  -23.5040 C.2    90  GLY90       0.2611
     96  O         21.9700   11.1140  -23.6600 O.2    90  GLY90      -0.2717
     97  N         23.1300   12.8600  -22.8450 N.am   91  ASP91      -0.1973
     98  CA        21.9870   13.4210  -22.1330 C.3    91  ASP91       0.1709
     99  C         21.3190   14.5280  -22.9360 C.2    91  ASP91       0.2293
    100  O         21.9130   15.0890  -23.8590 O.2    91  ASP91      -0.2864
    101  CB        22.4150   13.9750  -20.7690 C.3    91  ASP91       0.1436
    102  CG        23.3310   15.1860  -20.8950 C.2    91  ASP91       0.3671
    103  OD1       24.4270   15.0510  -21.4750 O.co2  91  ASP91      -0.2456
    104  OD2       22.9540   16.2740  -20.4230 O.co2  91  ASP91      -0.2456
    105  N         22.8690   18.2010  -23.0100 N.3    94  SER94      -0.1217
    106  CA        23.9070   18.3990  -24.0150 C.3    94  SER94       0.1889
    107  C         23.3180   18.6600  -25.3920 C.2    94  SER94       0.2288
    108  O         23.8500   19.4550  -26.1630 O.2    94  SER94      -0.2866
    109  CB        24.8720   17.2080  -24.0540 C.3    94  SER94       0.2089
    110  OG        25.5660   17.1090  -22.8180 O.3    94  SER94      -0.2183
    111  N         19.3520   17.0610  -18.0340 N.3   134  ALA134     -0.1231
    112  CA        20.5750   16.3810  -17.6330 C.3   134  ALA134      0.1694
    113  C         20.3090   14.9740  -17.0890 C.2   134  ALA134      0.2592
    114  O         21.2370   14.2220  -16.8360 O.2   134  ALA134     -0.2718
    115  CB        21.3490   17.2240  -16.5990 C.3   134  ALA134      0.0304
    116  N         19.0460   14.6070  -16.9150 N.am  135  ASN135     -0.1974
    117  CA        18.7400   13.2800  -16.3810 C.3   135  ASN135      0.1688
    118  C         17.9830   12.4180  -17.3860 C.2   135  ASN135      0.2292
    119  O         17.3440   11.4240  -17.0220 O.2   135  ASN135     -0.2864
    120  CB        17.9580   13.3950  -15.0680 C.3   135  ASN135      0.1181
    121  CG        17.7420   12.0440  -14.3890 C.2   135  ASN135      0.2629
    122  OD1       16.6480   11.7480  -13.9070 O.2   135  ASN135     -0.2716
    123  ND2       18.7890   11.2270  -14.3410 N.am  135  ASN135     -0.0877
    124  N         18.4450   10.4450  -21.1150 N.3   137  PHE137     -0.1241
    125  CA        19.5240    9.9070  -21.9190 C.3   137  PHE137      0.1605
    126  C         18.9970    9.2460  -23.1730 C.2   137  PHE137      0.2264
    127  O         17.8320    8.8490  -23.2390 O.2   137  PHE137     -0.2867
    128  CB        20.3670    8.9290  -21.0810 C.3   137  PHE137      0.0534
    129  CG        20.9220    9.5600  -19.8340 C.ar  137  PHE137     -0.0203
    130  CD1       20.1820    9.5740  -18.6580 C.ar  137  PHE137     -0.0042
    131  CD2       22.1430   10.1930  -19.8540 C.ar  137  PHE137     -0.0042
    132  CE1       20.6710   10.1920  -17.5220 C.ar  137  PHE137     -0.0003
    133  CE2       22.6480   10.7980  -18.7200 C.ar  137  PHE137     -0.0003
    134  CZ        21.9140   10.8010  -17.5540 C.ar  137  PHE137     -0.0000
    135  N         17.0360    8.7330  -16.2360 N.3   147  GLY147     -0.1210
    136  CA        18.1080    8.2700  -15.3590 C.3   147  GLY147      0.1956
    137  C         17.7520    8.3460  -13.8830 C.2   147  GLY147      0.2612
    138  O         16.6070    8.6040  -13.5050 O.2   147  GLY147     -0.2717
    139  N         18.7480    8.1010  -13.0360 N.am  148  ASP148     -0.1959
    140  CA        18.5990    8.3260  -11.6090 C.3   148  ASP148      0.1840
    141  C         19.4460    9.5380  -11.2560 C.2   148  ASP148      0.2622
    142  O         20.6770    9.4580  -11.2100 O.2   148  ASP148     -0.2715
    143  CB        19.0760    7.1090  -10.8170 C.3   148  ASP148      0.1450
    144  CG        19.3060    7.4260   -9.3560 C.2   148  ASP148      0.3671
    145  OD1       18.3350    7.7960   -8.6650 O.co2 148  ASP148     -0.2456
    146  OD2       20.4630    7.3120   -8.9000 O.co2 148  ASP148     -0.2456
    147  N         18.8040   10.6720  -11.0240 N.am  149  PHE149     -0.1974
    148  CA        19.5650   11.8800  -10.7460 C.3   149  PHE149      0.1639
    149  C         20.2920   11.7880   -9.4040 C.2   149  PHE149      0.2290
    150  O         21.1680   12.6060   -9.1050 O.2   149  PHE149     -0.2864
    151  CB        18.6810   13.1240  -10.8110 C.3   149  PHE149      0.0560
    152  CG        19.4540   14.3950  -10.9620 C.ar  149  PHE149     -0.0200
    153  CD1       19.4270   15.3630   -9.9710 C.ar  149  PHE149     -0.0042
    154  CD2       20.2280   14.6150  -12.0890 C.ar  149  PHE149     -0.0042
    155  CE1       20.1480   16.5350  -10.1090 C.ar  149  PHE149     -0.0003
    156  CE2       20.9510   15.7830  -12.2340 C.ar  149  PHE149     -0.0003
    157  CZ        20.9120   16.7450  -11.2420 C.ar  149  PHE149     -0.0000
    158  N         22.3230    9.5940   -8.7670 N.3   151  LEU151     -0.1231
    159  CA        23.6850    9.2240   -9.1440 C.3   151  LEU151      0.1693
    160  C         24.5380   10.4560   -9.4290 C.2   151  LEU151      0.2591
    161  O         25.6970   10.5320   -9.0120 O.2   151  LEU151     -0.2718
    162  CB        23.6810    8.2920  -10.3590 C.3   151  LEU151      0.0284
    163  CG        23.7900    6.7920  -10.0760 C.3   151  LEU151      0.0019
    164  CD1       23.6360    6.4990   -8.5910 C.3   151  LEU151      0.0001
    165  CD2       22.7500    6.0400  -10.8790 C.3   151  LEU151      0.0001
    166  N         23.9600   11.4150  -10.1430 N.am  152  ALA152     -0.1980
    167  CA        24.6380   12.6770  -10.4120 C.3   152  ALA152      0.1597
    168  C         24.9920   13.3790   -9.1000 C.2   152  ALA152      0.2287
    169  O         26.0910   13.9150   -8.9430 O.2   152  ALA152     -0.2864
    170  CB        23.7660   13.5730  -11.2860 C.3   152  ALA152      0.0319
    171  N         27.9290   11.6830   -7.0790 N.3   155  LEU155     -0.1245
    172  CA        29.2350   11.7720   -7.7190 C.3   155  LEU155      0.1561
    173  C         30.1760   12.6810   -6.9340 C.2   155  LEU155      0.2260
    174  O         30.4020   13.8330   -7.3070 O.2   155  LEU155     -0.2867
    175  CB        29.0930   12.2820   -9.1540 C.3   155  LEU155      0.0270
    176  CG        29.6480   11.3650  -10.2440 C.3   155  LEU155      0.0019
    177  CD1       28.9230   10.0330  -10.2250 C.3   155  LEU155      0.0001
    178  CD2       29.5420   12.0270  -11.6110 C.3   155  LEU155      0.0001
@<TRIPOS>BOND
     1    91    90   ar
     2    92    90   ar
     3    90    89    1
     4    89    88    1
     5    88    85    1
     6    87    86    2
     7    86    85    1
     8    85    84    1
     9   108   107    2
    10    77    76    1
    11    84    80   am
    12    75    76   ar
    13    75    73   ar
    14   107   106    1
    15    93    94    1
    16    76    74   ar
    17    73    71   ar
    18    80    81    2
    19    80    79    1
    20    94    95    1
    21   109   106    1
    22   109   110    1
    23   106   105    1
    24   100    99    2
    25    96    95    2
    26    74    72   ar
    27    79    82    1
    28    79    78    1
    29    95    97   am
    30    69    68    2
    31    71    72   ar
    32    71    70    1
    33   127   126    2
    34   126   125    1
    35    99    98    1
    36    97    98    1
    37    82    83    1
    38    78    68   am
    39    68    67    1
    40    70    67    1
    41    64    63   ar
    42    98   101    1
    43   125   124    1
    44   125   128    1
    45    67    66    1
    46   103   102   ar
    47   128   129    1
    48    63    62    1
    49    63    65   ar
    50   102   101    1
    51   102   104   ar
    52    66    59   am
    53    62    61    1
    54     6     8    1
    55     6     5    1
    56   131   129   ar
    57   131   133   ar
    58   129   130   ar
    59    59    60    2
    60    59    58    1
    61     7     5    1
    62    61    58    1
    63     5     2    1
    64    31    30    1
    65     2     1    1
    66     2     3    1
    67     4     3    2
    68    58    57    1
    69   133   134   ar
    70   130   132   ar
    71     3     9   am
    72    26    27    1
    73   111   112    1
    74    48    46    1
    75    30    27    1
    76    30    32    1
    77    57    51   am
    78   112   113    1
    79   112   115    1
    80    27    28    1
    81   134   132   ar
    82    52    51    2
    83    43    42    1
    84    43    46    1
    85    43    44    1
    86   118   119    2
    87   118   117    1
    88     9    10    1
    89   113   116   am
    90   113   114    2
    91    51    50    1
    92    46    47    1
    93   116   117    1
    94    44    45    2
    95    10    11    1
    96   117   120    1
    97   135   136    1
    98    23    22    2
    99    28    29    2
   100    25    24    1
   101    50    53    1
   102    50    49    1
   103    22    21    1
   104   136   137    1
   105    53    54    1
   106   120   121    1
   107    11    12    2
   108    11    13   am
   109    24    21    1
   110    41    40    1
   111   121   123   am
   112   121   122    2
   113    13    14    1
   114    21    20    1
   115    18    17    1
   116   137   138    2
   117   137   139   am
   118    40    39    1
   119    54    55    1
   120    56    55    1
   121    17    14    1
   122    17    19    1
   123    14    15    1
   124   139   140    1
   125    16    15    2
   126    39    38    1
   127   156   154   ar
   128   156   157   ar
   129   154   152   ar
   130    33    34    1
   131   178   176    1
   132   140   141    1
   133   140   143    1
   134    38    37    1
   135   170   167    1
   136   141   142    2
   137   141   147   am
   138   157   155   ar
   139    34    37    1
   140    34    35    1
   141   147   148    1
   142   152   151    1
   143   152   153   ar
   144   165   163    1
   145   143   144    1
   146   151   148    1
   147   148   149    1
   148   167   166    1
   149   167   168    1
   150   162   163    1
   151   162   159    1
   152   176   177    1
   153   176   175    1
   154   166   160   am
   155   155   153   ar
   156    35    36    2
   157   163   164    1
   158   160   159    1
   159   160   161    2
   160   149   150    2
   161   144   146   ar
   162   144   145   ar
   163   175   172    1
   164   159   158    1
   165   168   169    2
   166   172   171    1
   167   172   173    1
   168   174   173    2
