@<TRIPOS>MOLECULE
tmp/2xnnA00.pdb
 167 160 0 0 0
SMALL
GASTEIGER

@<TRIPOS>ATOM
      1  N         33.7470    9.1630  -18.3750 N.3    12  ILE12      -0.1231
      2  CA        32.7520    9.9680  -19.0450 C.3    12  ILE12       0.1692
      3  C         32.5950   11.2960  -18.3240 C.2    12  ILE12       0.2593
      4  O         32.6100   12.3490  -18.9570 O.2    12  ILE12      -0.2718
      5  CB        31.3880    9.2510  -19.0700 C.3    12  ILE12       0.0266
      6  CG1       31.4760    7.9560  -19.8750 C.3    12  ILE12       0.0019
      7  CG2       30.3150   10.1620  -19.6600 C.3    12  ILE12       0.0020
      8  CD1       30.3150    7.0340  -19.6410 C.3    12  ILE12       0.0001
      9  N         32.4430   11.2400  -17.0010 N.am   13  GLY13      -0.1942
     10  CA        32.2520   12.4370  -16.1990 C.3    13  GLY13       0.2014
     11  C         32.7160   12.2860  -14.7580 C.2    13  GLY13       0.2639
     12  O         32.7680   11.1780  -14.2240 O.2    13  GLY13      -0.2714
     13  N         33.0520   13.4040  -14.1240 N.am   14  THR14      -0.1950
     14  CA        33.5880   13.3800  -12.7680 C.3    14  THR14       0.1897
     15  C         32.8050   14.3130  -11.8590 C.2    14  THR14       0.2313
     16  O         31.8850   14.9900  -12.3100 O.2    14  THR14      -0.2863
     17  CB        35.0720   13.7930  -12.7380 C.3    14  THR14       0.1794
     18  OG1       35.7790   13.1430  -13.7990 O.3    14  THR14      -0.2208
     19  CG2       35.7030   13.4060  -11.4110 C.3    14  THR14       0.0378
     20  N         28.1280   12.4180   -8.0480 N.3    15  TYR15      -0.1241
     21  CA        28.9540   12.4260   -6.8480 C.3    15  TYR15       0.1605
     22  C         30.0020   11.3240   -6.9160 C.2    15  TYR15       0.2264
     23  O         29.8550   10.2830   -6.2820 O.2    15  TYR15      -0.2867
     24  CB        28.0880   12.2450   -5.5980 C.3    15  TYR15       0.0534
     25  CG        28.8460   12.2830   -4.2990 C.ar   15  TYR15      -0.0201
     26  CD1       29.5250   13.4100   -3.9000 C.ar   15  TYR15      -0.0009
     27  CD2       28.9010   11.2010   -3.4820 C.ar   15  TYR15      -0.0009
     28  CE1       30.2400   13.4700   -2.7120 C.ar   15  TYR15       0.0417
     29  CE2       29.6250   11.2370   -2.2890 C.ar   15  TYR15       0.0417
     30  CZ        30.2350   12.3680   -1.8990 C.ar   15  TYR15       0.1957
     31  OH        30.9550   12.3680   -0.7040 O.3    15  TYR15      -0.2866
     32  N         31.9710    8.7350  -13.3060 N.3    18  CYS18      -0.1235
     33  CA        31.2000    7.8420  -14.1560 C.3    18  CYS18       0.1677
     34  C         32.1020    7.3320  -15.2680 C.2    18  CYS18       0.2270
     35  O         32.7630    8.1150  -15.9430 O.2    18  CYS18      -0.2867
     36  CB        29.9880    8.5750  -14.7300 C.3    18  CYS18       0.0956
     37  SG        28.8330    7.5490  -15.6920 S.3    18  CYS18      -0.0801
     38  N         28.2400    1.0650  -17.9160 N.3    31  VAL31      -0.1245
     39  CA        28.9320    2.1180  -17.2140 C.3    31  VAL31       0.1561
     40  C         28.8450    1.7820  -15.7420 C.2    31  VAL31       0.2260
     41  O         27.9730    1.0120  -15.3330 O.2    31  VAL31      -0.2867
     42  CB        28.2960    3.4980  -17.4630 C.3    31  VAL31       0.0252
     43  CG1       27.9750    3.6800  -18.9420 C.3    31  VAL31       0.0019
     44  CG2       27.0560    3.6560  -16.6350 C.3    31  VAL31       0.0019
     45  N         29.1540    3.9270  -11.8050 N.3    33  LYS33      -0.1245
     46  CA        29.3980    5.1110  -11.0010 C.3    33  LYS33       0.1561
     47  C         30.3120    4.7290   -9.8450 C.2    33  LYS33       0.2260
     48  O         30.0660    3.7350   -9.1560 O.2    33  LYS33      -0.2867
     49  CB        28.0850    5.6520  -10.4410 C.3    33  LYS33       0.0271
     50  CG        27.6630    6.9590  -11.0550 C.3    33  LYS33       0.0035
     51  CD        27.6860    6.8560  -12.5610 C.3    33  LYS33       0.0206
     52  CE        26.2960    7.0380  -13.1290 C.3    33  LYS33       0.1093
     53  NZ        26.2790    6.7570  -14.5860 N.3    33  LYS33      -0.1314
     54  N         16.6150    3.8410  -16.9790 N.3    64  VAL64      -0.1245
     55  CA        18.0010    3.3710  -17.0240 C.3    64  VAL64       0.1561
     56  C         18.1450    2.1620  -16.1080 C.2    64  VAL64       0.2260
     57  O         17.8320    2.2440  -14.9220 O.2    64  VAL64      -0.2867
     58  CB        19.0340    4.4800  -16.6150 C.3    64  VAL64       0.0252
     59  CG1       20.4360    3.9030  -16.5500 C.3    64  VAL64       0.0019
     60  CG2       19.0100    5.6560  -17.5740 C.3    64  VAL64       0.0019
     61  N         25.5890    0.0820  -14.4560 N.3    82  MET82      -0.1230
     62  CA        24.3310    0.3280  -15.1460 C.3    82  MET82       0.1702
     63  C         24.4300    0.3260  -16.6670 C.2    82  MET82       0.2592
     64  O         25.5050    0.1890  -17.2390 O.2    82  MET82      -0.2718
     65  CB        23.6990    1.6370  -14.6520 C.3    82  MET82       0.0401
     66  CG        24.6870    2.7740  -14.5130 C.3    82  MET82       0.0596
     67  SD        24.0180    4.1770  -13.6120 S.3    82  MET82      -0.1393
     68  CE        23.0090    3.3050  -12.4080 C.3    82  MET82       0.0692
     69  N         23.2740    0.4740  -17.2980 N.am   83  GLU83      -0.1966
     70  CA        23.1250    0.5260  -18.7440 C.3    83  GLU83       0.1733
     71  C         23.9360    1.6700  -19.3310 C.2    83  GLU83       0.2616
     72  O         23.9760    2.7750  -18.7770 O.2    83  GLU83      -0.2715
     73  CB        21.6380    0.7460  -19.0430 C.3    83  GLU83       0.0429
     74  CG        21.2010    0.6430  -20.4830 C.3    83  GLU83       0.1163
     75  CD        19.6850    0.8200  -20.6530 C.2    83  GLU83       0.3649
     76  OE1       19.2240    0.8550  -21.8040 O.co2  83  GLU83      -0.2457
     77  OE2       18.9520    0.9280  -19.6500 O.co2  83  GLU83      -0.2457
     78  N         24.5890    1.4030  -20.4540 N.am   84  TYR84      -0.1960
     79  CA        25.2520    2.4480  -21.2270 C.3    84  TYR84       0.1771
     80  C         24.2610    3.0200  -22.2450 C.2    84  TYR84       0.2620
     81  O         23.6250    2.2720  -22.9930 O.2    84  TYR84      -0.2715
     82  CB        26.4800    1.8910  -21.9540 C.3    84  TYR84       0.0574
     83  CG        27.1740    2.9100  -22.8360 C.ar   84  TYR84      -0.0198
     84  CD1       27.7310    4.0560  -22.2940 C.ar   84  TYR84      -0.0009
     85  CD2       27.2700    2.7260  -24.2080 C.ar   84  TYR84      -0.0009
     86  CE1       28.3630    4.9970  -23.0870 C.ar   84  TYR84       0.0417
     87  CE2       27.9060    3.6570  -25.0100 C.ar   84  TYR84       0.0417
     88  CZ        28.4530    4.7930  -24.4420 C.ar   84  TYR84       0.1957
     89  OH        29.0770    5.7400  -25.2310 O.3    84  TYR84      -0.2866
     90  N         24.1160    4.3410  -22.2620 N.am   85  CYS85      -0.1954
     91  CA        23.2420    4.9840  -23.2260 C.3    85  CYS85       0.1843
     92  C         24.0900    5.8030  -24.1700 C.2    85  CYS85       0.2625
     93  O         24.5300    6.9020  -23.8320 O.2    85  CYS85      -0.2714
     94  CB        22.2230    5.8690  -22.5180 C.3    85  CYS85       0.0997
     95  SG        21.2450    4.9780  -21.3080 S.3    85  CYS85      -0.0797
     96  N         24.3160    5.2690  -25.3620 N.am   86  GLU86      -0.1977
     97  CA        25.3420    5.8260  -26.2310 C.3    86  GLU86       0.1602
     98  C         25.0510    7.2520  -26.7310 C.2    86  GLU86       0.2287
     99  O         25.9680    7.9620  -27.1350 O.2    86  GLU86      -0.2864
    100  CB        25.6320    4.8830  -27.4000 C.3    86  GLU86       0.0415
    101  CG        24.7070    5.0570  -28.5560 C.3    86  GLU86       0.1163
    102  CD        25.2310    4.3940  -29.8080 C.2    86  GLU86       0.3649
    103  OE1       25.5170    5.1210  -30.7910 O.co2  86  GLU86      -0.2457
    104  OE2       25.3660    3.1520  -29.8000 O.co2  86  GLU86      -0.2457
    105  N         23.9080    9.7230  -24.9420 N.3    88  GLY88      -0.1210
    106  CA        24.1320   10.6950  -23.8820 C.3    88  GLY88       0.1956
    107  C         22.8510   11.2580  -23.2950 C.2    88  GLY88       0.2611
    108  O         21.7820   10.6700  -23.4410 O.2    88  GLY88      -0.2717
    109  N         22.9580   12.4120  -22.6440 N.am   89  ASP89      -0.1973
    110  CA        21.8310   13.0380  -21.9540 C.3    89  ASP89       0.1709
    111  C         21.1640   14.1280  -22.8000 C.2    89  ASP89       0.2293
    112  O         21.7220   14.5660  -23.7970 O.2    89  ASP89      -0.2864
    113  CB        22.3390   13.6740  -20.6710 C.3    89  ASP89       0.1436
    114  CG        23.3040   14.7930  -20.9510 C.2    89  ASP89       0.3671
    115  OD1       24.4160   14.5150  -21.4440 O.co2  89  ASP89      -0.2456
    116  OD2       22.9390   15.9520  -20.7160 O.co2  89  ASP89      -0.2456
    117  N         19.2240   16.7820  -17.8980 N.3   133  ALA133     -0.1231
    118  CA        20.4940   16.1530  -17.5610 C.3   133  ALA133      0.1694
    119  C         20.3020   14.7350  -17.0530 C.2   133  ALA133      0.2592
    120  O         21.2550   13.9820  -16.9110 O.2   133  ALA133     -0.2718
    121  CB        21.2500   16.9960  -16.5220 C.3   133  ALA133      0.0304
    122  N         19.0650   14.3730  -16.7660 N.am  134  ASN134     -0.1974
    123  CA        18.7840   13.0590  -16.2160 C.3   134  ASN134      0.1688
    124  C         17.8820   12.2670  -17.1650 C.2   134  ASN134      0.2292
    125  O         17.1460   11.3870  -16.7460 O.2   134  ASN134     -0.2864
    126  CB        18.1460   13.2000  -14.8330 C.3   134  ASN134      0.1181
    127  CG        17.8810   11.8560  -14.1600 C.2   134  ASN134      0.2629
    128  OD1       16.8310   11.6570  -13.5480 O.2   134  ASN134     -0.2716
    129  ND2       18.8400   10.9330  -14.2560 N.am  134  ASN134     -0.0877
    130  N         18.2230   10.1000  -20.8720 N.3   136  PHE136     -0.1241
    131  CA        19.2750    9.5370  -21.7020 C.3   136  PHE136      0.1605
    132  C         18.7750    8.8750  -22.9780 C.2   136  PHE136      0.2264
    133  O         17.6490    8.4070  -23.0480 O.2   136  PHE136     -0.2867
    134  CB        20.1440    8.5880  -20.8720 C.3   136  PHE136      0.0534
    135  CG        20.7890    9.2600  -19.6840 C.ar  136  PHE136     -0.0203
    136  CD1       20.1290    9.3370  -18.4710 C.ar  136  PHE136     -0.0042
    137  CD2       22.0390    9.8330  -19.7880 C.ar  136  PHE136     -0.0042
    138  CE1       20.7090    9.9520  -17.3920 C.ar  136  PHE136     -0.0003
    139  CE2       22.6170   10.4560  -18.7110 C.ar  136  PHE136     -0.0003
    140  CZ        21.9500   10.5170  -17.5140 C.ar  136  PHE136     -0.0000
    141  N         16.9200    8.4540  -16.0550 N.3   146  GLY146     -0.1210
    142  CA        17.9050    8.0390  -15.0710 C.3   146  GLY146      0.1956
    143  C         17.4730    8.4090  -13.6630 C.2   146  GLY146      0.2612
    144  O         16.3110    8.6950  -13.4140 O.2   146  GLY146     -0.2717
    145  N         18.4030    8.3940  -12.7240 N.am  147  ASP147     -0.1959
    146  CA        18.1320    8.9680  -11.4140 C.3   147  ASP147      0.1840
    147  C         19.3440    9.7770  -10.9890 C.2   147  ASP147      0.2622
    148  O         20.4750    9.4490  -11.3450 O.2   147  ASP147     -0.2715
    149  CB        17.8360    7.8830  -10.3810 C.3   147  ASP147      0.1450
    150  CG        19.0820    7.3940   -9.6860 C.2   147  ASP147      0.3671
    151  OD1       19.1330    7.4660   -8.4390 O.co2 147  ASP147     -0.2456
    152  OD2       20.0170    6.9520  -10.3870 O.co2 147  ASP147     -0.2456
    153  N         19.1170   10.8470  -10.2430 N.am  148  PHE148     -0.1960
    154  CA        20.2380   11.6200   -9.7340 C.3   148  PHE148      0.1771
    155  C         20.7740   11.0010   -8.4330 C.2   148  PHE148      0.2620
    156  O         20.1100   11.0350   -7.3930 O.2   148  PHE148     -0.2715
    157  CB        19.8350   13.0790   -9.5380 C.3   148  PHE148      0.0574
    158  CG        20.9170   13.9860   -8.9940 C.ar  148  PHE148     -0.0200
    159  CD1       22.1220   14.1400   -9.6210 C.ar  148  PHE148     -0.0042
    160  CD2       20.6960   14.7330   -7.8650 C.ar  148  PHE148     -0.0042
    161  CE1       23.0980   15.0170   -9.1980 C.ar  148  PHE148     -0.0003
    162  CE2       21.6690   15.6550   -7.4020 C.ar  148  PHE148     -0.0003
    163  CZ        22.8480   15.7410   -8.0590 C.ar  148  PHE148     -0.0000
    164  N         21.9690   10.4170   -8.5100 N.am  149  GLY149     -0.1954
    165  CA        22.5960    9.7870   -7.3630 C.3   149  GLY149      0.1869
    166  C         24.1000   10.0120   -7.3000 C.2   149  GLY149      0.2309
    167  O         24.8050    9.9360   -8.3110 O.2   149  GLY149     -0.2863
@<TRIPOS>BOND
     1   103   102   ar
     2   102   104   ar
     3   102   101    1
     4   101   100    1
     5   100    97    1
     6    99    98    2
     7    98    97    1
     8    97    96    1
     9    96    92   am
    10    89    88    1
    11    87    88   ar
    12    87    85   ar
    13   105   106    1
    14    88    86   ar
    15    85    83   ar
    16    92    93    2
    17    92    91    1
    18   106   107    1
    19   112   111    2
    20   108   107    2
    21   107   109   am
    22    91    94    1
    23    91    90    1
    24    86    84   ar
    25   133   132    2
    26    81    80    2
    27   132   131    1
    28    83    84   ar
    29    83    82    1
    30   111   110    1
    31   109   110    1
    32    94    95    1
    33    90    80   am
    34    80    79    1
    35   110   113    1
    36    82    79    1
    37    76    75   ar
    38   131   130    1
    39   131   134    1
    40   115   114   ar
    41    79    78    1
    42   114   116   ar
    43   114   113    1
    44   134   135    1
    45    75    74    1
    46    75    77   ar
    47    74    73    1
    48    78    71   am
    49     6     8    1
    50     6     5    1
    51   137   135   ar
    52   137   139   ar
    53   135   136   ar
    54     7     5    1
    55    71    72    2
    56    71    70    1
    57     5     2    1
    58     2     1    1
    59     2     3    1
    60    73    70    1
    61     4     3    2
    62    43    42    1
    63    70    69    1
    64   139   140   ar
    65   136   138   ar
    66     3     9   am
    67    38    39    1
    68   117   118    1
    69    60    58    1
    70   118   119    1
    71   118   121    1
    72   140   138   ar
    73    42    39    1
    74    42    44    1
    75    69    63   am
    76    64    63    2
    77    39    40    1
    78   124   125    2
    79   124   123    1
    80   119   120    2
    81   119   122   am
    82    55    54    1
    83    55    58    1
    84    55    56    1
    85     9    10    1
    86   122   123    1
    87    63    62    1
    88    58    59    1
    89   123   126    1
    90    10    11    1
    91    56    57    2
    92   141   142    1
    93    35    34    2
    94    40    41    2
    95    37    36    1
    96    34    33    1
    97    62    65    1
    98    62    61    1
    99   142   143    1
   100   126   127    1
   101    11    12    2
   102    11    13   am
   103    36    33    1
   104    65    66    1
   105    53    52    1
   106    66    67    1
   107   129   127   am
   108   127   128    2
   109    33    32    1
   110    13    14    1
   111    18    17    1
   112   143   144    2
   113   143   145   am
   114    67    68    1
   115    52    51    1
   116    14    17    1
   117    14    15    1
   118    17    19    1
   119   145   146    1
   120    51    50    1
   121    16    15    2
   122    45    46    1
   123   146   147    1
   124   146   149    1
   125   148   147    2
   126    50    49    1
   127    46    49    1
   128    46    47    1
   129   147   153   am
   130   152   150   ar
   131   149   150    1
   132   153   154    1
   133    47    48    2
   134   154   157    1
   135   154   155    1
   136   150   151   ar
   137   159   161   ar
   138   159   158   ar
   139   157   158    1
   140   161   163   ar
   141   158   160   ar
   142   164   155   am
   143   164   165    1
   144   155   156    2
   145   167   166    2
   146   163   162   ar
   147    20    21    1
   148   160   162   ar
   149   165   166    1
   150    22    21    1
   151    22    23    2
   152    21    24    1
   153    24    25    1
   154    25    26   ar
   155    25    27   ar
   156    26    28   ar
   157    27    29   ar
   158    28    30   ar
   159    29    30   ar
   160    30    31    1
