@<TRIPOS>MOLECULE
tmp/2xnoA00.pdb
 157 149 0 0 0
SMALL
GASTEIGER

@<TRIPOS>ATOM
      1  N        -34.2570    8.8300   18.5640 N.3    12  ILE12      -0.1231
      2  CA       -33.2630    9.5890   19.3040 C.3    12  ILE12       0.1692
      3  C        -33.0590   10.9410   18.6390 C.2    12  ILE12       0.2593
      4  O        -32.9400   11.9730   19.3030 O.2    12  ILE12      -0.2718
      5  CB       -31.9110    8.8570   19.3000 C.3    12  ILE12       0.0266
      6  CG1      -31.9640    7.6170   20.1860 C.3    12  ILE12       0.0019
      7  CG2      -30.8060    9.7760   19.7590 C.3    12  ILE12       0.0020
      8  CD1      -30.7110    6.7790   20.0970 C.3    12  ILE12       0.0001
      9  N        -33.0050   10.9220   17.3150 N.am   13  GLY13      -0.1942
     10  CA       -32.7340   12.1220   16.5570 C.3    13  GLY13       0.2014
     11  C        -33.2910   12.0270   15.1570 C.2    13  GLY13       0.2639
     12  O        -33.5650   10.9380   14.6470 O.2    13  GLY13      -0.2714
     13  N        -33.4680   13.1850   14.5360 N.am   14  THR14      -0.1950
     14  CA       -33.9270   13.2580   13.1640 C.3    14  THR14       0.1897
     15  C        -33.0350   14.2620   12.4550 C.2    14  THR14       0.2313
     16  O        -32.0980   14.7940   13.0530 O.2    14  THR14      -0.2863
     17  CB       -35.3940   13.7050   13.0960 C.3    14  THR14       0.1794
     18  OG1      -36.1660   12.9590   14.0460 O.3    14  THR14      -0.2208
     19  CG2      -35.9650   13.4760   11.7030 C.3    14  THR14       0.0378
     20  N        -32.4740    8.5310   13.5520 N.3    20  CYS20      -0.1235
     21  CA       -31.6450    7.6430   14.3580 C.3    20  CYS20       0.1677
     22  C        -32.5580    7.1660   15.4790 C.2    20  CYS20       0.2270
     23  O        -33.1940    7.9840   16.1490 O.2    20  CYS20      -0.2867
     24  CB       -30.4290    8.3910   14.9090 C.3    20  CYS20       0.0956
     25  SG       -29.3300    7.3950   15.9650 S.3    20  CYS20      -0.0801
     26  N        -28.5140    1.0400   18.1850 N.3    33  VAL33      -0.1245
     27  CA       -29.2130    2.0810   17.4580 C.3    33  VAL33       0.1561
     28  C        -29.2080    1.7360   15.9780 C.2    33  VAL33       0.2260
     29  O        -28.4060    0.9190   15.5290 O.2    33  VAL33      -0.2867
     30  CB       -28.5710    3.4490   17.6620 C.3    33  VAL33       0.0252
     31  CG1      -28.4770    3.7580   19.1430 C.3    33  VAL33       0.0019
     32  CG2      -27.1990    3.4840   17.0100 C.3    33  VAL33       0.0019
     33  N        -29.5920    3.8630   11.9880 N.3    35  LYS35      -0.1245
     34  CA       -29.8440    5.0180   11.1580 C.3    35  LYS35       0.1561
     35  C        -30.7430    4.5760   10.0220 C.2    35  LYS35       0.2260
     36  O        -30.4430    3.5990    9.3270 O.2    35  LYS35      -0.2867
     37  CB       -28.5330    5.5670   10.5980 C.3    35  LYS35       0.0271
     38  CG       -27.7570    6.4310   11.5690 C.3    35  LYS35       0.0035
     39  CD       -27.0540    5.5970   12.6190 C.3    35  LYS35       0.0206
     40  CE       -26.2340    6.4760   13.5410 C.3    35  LYS35       0.1093
     41  NZ       -27.0800    7.5090   14.1850 N.3    35  LYS35      -0.1314
     42  N        -16.8850    3.5220   17.1610 N.3    66  VAL66      -0.1245
     43  CA       -18.2630    3.0610   17.2740 C.3    66  VAL66       0.1561
     44  C        -18.3930    1.8280   16.4040 C.2    66  VAL66       0.2260
     45  O        -18.0210    1.8510   15.2400 O.2    66  VAL66      -0.2867
     46  CB       -19.2920    4.1300   16.8440 C.3    66  VAL66       0.0252
     47  CG1      -20.6890    3.5070   16.7310 C.3    66  VAL66       0.0019
     48  CG2      -19.3000    5.2990   17.8290 C.3    66  VAL66       0.0019
     49  N        -25.8110    0.1600   14.6400 N.3    84  MET84      -0.1230
     50  CA       -24.5540    0.3460   15.3450 C.3    84  MET84       0.1702
     51  C        -24.7080    0.3600   16.8540 C.2    84  MET84       0.2592
     52  O        -25.8180    0.2910   17.3930 O.2    84  MET84      -0.2718
     53  CB       -23.8200    1.5960   14.8440 C.3    84  MET84       0.0401
     54  CG       -24.5850    2.8910   14.9870 C.3    84  MET84       0.0596
     55  SD       -23.9550    4.1360   13.8480 S.3    84  MET84      -0.1393
     56  CE       -24.2620    3.3390   12.2740 C.3    84  MET84       0.0692
     57  N        -23.5690    0.3930   17.5260 N.am   85  GLU85      -0.1966
     58  CA       -23.4740    0.3870   18.9680 C.3    85  GLU85       0.1733
     59  C        -24.2570    1.5610   19.5640 C.2    85  GLU85       0.2616
     60  O        -24.2050    2.6700   19.0310 O.2    85  GLU85      -0.2715
     61  CB       -21.9820    0.5120   19.3050 C.3    85  GLU85       0.0429
     62  CG       -21.6270    0.7010   20.7330 C.3    85  GLU85       0.1163
     63  CD       -20.1080    0.7320   20.9500 C.2    85  GLU85       0.3649
     64  OE1      -19.7080    0.7270   22.1270 O.co2  85  GLU85      -0.2457
     65  OE2      -19.3270    0.7580   19.9570 O.co2  85  GLU85      -0.2457
     66  N        -24.9780    1.3230   20.6640 N.am   86  TYR86      -0.1960
     67  CA       -25.6180    2.4100   21.4230 C.3    86  TYR86       0.1771
     68  C        -24.6620    3.0150   22.4590 C.2    86  TYR86       0.2620
     69  O        -24.0970    2.2990   23.2800 O.2    86  TYR86      -0.2715
     70  CB       -26.8840    1.9020   22.1230 C.3    86  TYR86       0.0574
     71  CG       -27.5470    2.9100   23.0490 C.ar   86  TYR86      -0.0198
     72  CD1      -28.0230    4.1240   22.5610 C.ar   86  TYR86      -0.0009
     73  CD2      -27.7180    2.6360   24.4070 C.ar   86  TYR86      -0.0009
     74  CE1      -28.6500    5.0390   23.3980 C.ar   86  TYR86       0.0417
     75  CE2      -28.3400    3.5490   25.2490 C.ar   86  TYR86       0.0417
     76  CZ       -28.8040    4.7490   24.7340 C.ar   86  TYR86       0.1957
     77  OH       -29.4220    5.6590   25.5550 O.3    86  TYR86      -0.2866
     78  N        -24.4830    4.3310   22.4100 N.am   87  CYS87      -0.1954
     79  CA       -23.6290    5.0450   23.3470 C.3    87  CYS87       0.1843
     80  C        -24.4730    5.9170   24.2920 C.2    87  CYS87       0.2625
     81  O        -24.8550    7.0450   23.9540 O.2    87  CYS87      -0.2714
     82  CB       -22.6030    5.8860   22.5760 C.3    87  CYS87       0.0997
     83  SG       -21.5230    4.9040   21.4540 S.3    87  CYS87      -0.0797
     84  N        -24.7590    5.3970   25.4780 N.am   88  GLU88      -0.1977
     85  CA       -25.7670    6.0060   26.3350 C.3    88  GLU88       0.1602
     86  C        -25.4010    7.4210   26.7880 C.2    88  GLU88       0.2287
     87  O        -26.2780    8.2110   27.1220 O.2    88  GLU88      -0.2864
     88  CB       -26.0880    5.1140   27.5430 C.3    88  GLU88       0.0415
     89  CG       -25.1020    5.2340   28.6870 C.3    88  GLU88       0.1163
     90  CD       -25.6150    4.5680   29.9590 C.2    88  GLU88       0.3649
     91  OE1      -25.6560    5.2340   31.0180 O.co2  88  GLU88      -0.2457
     92  OE2      -25.9830    3.3820   29.8930 O.co2  88  GLU88      -0.2457
     93  N        -24.1880    9.7340   25.0030 N.3    90  GLY90      -0.1210
     94  CA       -24.4080   10.6970   23.9310 C.3    90  GLY90       0.1956
     95  C        -23.1200   11.2380   23.3100 C.2    90  GLY90       0.2611
     96  O        -22.0490   10.6390   23.4390 O.2    90  GLY90      -0.2717
     97  N        -23.2190   12.3840   22.6410 N.am   91  ASP91      -0.1973
     98  CA       -22.0720   12.9590   21.9470 C.3    91  ASP91       0.1709
     99  C        -21.4050   14.0650   22.7640 C.2    91  ASP91       0.2293
    100  O        -21.9880   14.5860   23.7060 O.2    91  ASP91      -0.2864
    101  CB       -22.4770   13.5100   20.5820 C.3    91  ASP91       0.1436
    102  CG       -23.3850   14.7220   20.7000 C.2    91  ASP91       0.3671
    103  OD1      -24.4730   14.5890   21.2800 O.co2  91  ASP91      -0.2456
    104  OD2      -23.0000   15.8070   20.2380 O.co2  91  ASP91      -0.2456
    105  N        -22.9570   17.7720   22.8400 N.3    94  SER94      -0.1217
    106  CA       -24.0050   17.9400   23.8450 C.3    94  SER94       0.1889
    107  C        -23.4040   18.1970   25.2070 C.2    94  SER94       0.2288
    108  O        -23.9230   19.0060   25.9750 O.2    94  SER94      -0.2866
    109  CB       -24.9540   16.7290   23.9030 C.3    94  SER94       0.2089
    110  OG       -25.6890   16.6260   22.6940 O.3    94  SER94      -0.2183
    111  N        -19.4090   16.5710   17.8410 N.3   135  ALA135     -0.1231
    112  CA       -20.6500   15.8660   17.5050 C.3   135  ALA135      0.1694
    113  C        -20.3960   14.4460   17.0170 C.2   135  ALA135      0.2592
    114  O        -21.3220   13.6540   16.8810 O.2   135  ALA135     -0.2718
    115  CB       -21.4760   16.6600   16.4680 C.3   135  ALA135      0.0304
    116  N        -19.1390   14.1160   16.7480 N.am  136  ASN136     -0.1974
    117  CA       -18.8320   12.8010   16.2210 C.3   136  ASN136      0.1688
    118  C        -18.0890   11.9270   17.2380 C.2   136  ASN136      0.2292
    119  O        -17.5300   10.8930   16.9000 O.2   136  ASN136     -0.2864
    120  CB       -18.0260   12.9190   14.9380 C.3   136  ASN136      0.1181
    121  CG       -17.7910   11.5820   14.2860 C.2   136  ASN136      0.2629
    122  OD1      -18.7070   10.7600   14.1880 O.2   136  ASN136     -0.2716
    123  ND2      -16.5570   11.3430   13.8430 N.am  136  ASN136     -0.0877
    124  N        -18.5720    9.9530   20.8710 N.3   138  PHE138     -0.1241
    125  CA       -19.6030    9.4260   21.7360 C.3   138  PHE138      0.1605
    126  C        -19.0560    8.7990   23.0200 C.2   138  PHE138      0.2264
    127  O        -17.8880    8.3970   23.0880 O.2   138  PHE138     -0.2867
    128  CB       -20.4660    8.4410   20.9370 C.3   138  PHE138      0.0534
    129  CG       -21.1210    9.0810   19.7370 C.ar  138  PHE138     -0.0203
    130  CD1      -20.4460    9.1730   18.5280 C.ar  138  PHE138     -0.0042
    131  CD2      -22.3810    9.6410   19.8370 C.ar  138  PHE138     -0.0042
    132  CE1      -21.0330    9.7880   17.4360 C.ar  138  PHE138     -0.0003
    133  CE2      -22.9800   10.2460   18.7450 C.ar  138  PHE138     -0.0003
    134  CZ       -22.3030   10.3270   17.5470 C.ar  138  PHE138     -0.0000
    135  N        -17.0790    8.1310   16.1580 N.3   148  GLY148     -0.1210
    136  CA       -18.0440    7.6980   15.1560 C.3   148  GLY148      0.1956
    137  C        -17.5710    7.9630   13.7370 C.2   148  GLY148      0.2612
    138  O        -16.6080    8.6790   13.5040 O.2   148  GLY148     -0.2717
    139  N        -18.2510    7.3790   12.7640 N.am  149  ASP149     -0.1959
    140  CA       -17.9750    7.7120   11.3780 C.3   149  ASP149      0.1840
    141  C        -18.9320    8.8330   11.0070 C.2   149  ASP149      0.2622
    142  O        -19.6730    9.3270   11.8520 O.2   149  ASP149     -0.2715
    143  CB       -18.2530    6.5240   10.4810 C.3   149  ASP149      0.1450
    144  CG       -19.6350    6.5740    9.8970 C.2   149  ASP149      0.3671
    145  OD1      -20.5970    6.4870   10.6850 O.co2 149  ASP149     -0.2456
    146  OD2      -19.7600    6.7260    8.6640 O.co2 149  ASP149     -0.2456
    147  N        -18.9380    9.2280    9.7420 N.am  150  PHE150     -0.1974
    148  CA       -19.8580   10.2680    9.3040 C.3   150  PHE150      0.1639
    149  C        -19.7100   10.5540    7.8180 C.2   150  PHE150      0.2290
    150  O        -20.5860   10.2190    7.0290 O.2   150  PHE150     -0.2864
    151  CB       -19.6500   11.5450   10.1240 C.3   150  PHE150      0.0560
    152  CG       -20.5400   12.7110    9.7520 C.ar  150  PHE150     -0.0200
    153  CD1      -21.9040   12.6200    9.7690 C.ar  150  PHE150     -0.0042
    154  CD2      -19.9950   13.9280    9.4310 C.ar  150  PHE150     -0.0042
    155  CE1      -22.7450   13.6830    9.5130 C.ar  150  PHE150     -0.0003
    156  CE2      -20.8230   15.0490    9.1720 C.ar  150  PHE150     -0.0003
    157  CZ       -22.1650   14.8830    9.1850 C.ar  150  PHE150     -0.0000
@<TRIPOS>BOND
     1   150   149    2
     2   149   148    1
     3   146   144   ar
     4   156   157   ar
     5   156   154   ar
     6   157   155   ar
     7   148   147    1
     8   148   151    1
     9    36    35    2
    10   154   152   ar
    11   155   153   ar
    12   147   141   am
    13   152   153   ar
    14   152   151    1
    15   144   143    1
    16   144   145   ar
    17    35    34    1
    18   143   140    1
    19    37    34    1
    20    37    38    1
    21   141   140    1
    22   141   142    2
    23    34    33    1
    24   140   139    1
    25    38    39    1
    26    19    17    1
    27    56    55    1
    28    15    16    2
    29    15    14    1
    30    39    40    1
    31   139   137   am
    32    17    14    1
    33    17    18    1
    34    14    13    1
    35   138   137    2
    36    40    41    1
    37    20    21    1
    38   137   136    1
    39   123   121   am
    40    55    54    1
    41   122   121    2
    42   121   120    1
    43    21    24    1
    44    21    22    1
    45    13    11   am
    46    49    50    1
    47    12    11    2
    48    53    54    1
    49    53    50    1
    50    24    25    1
    51   120   117    1
    52   136   135    1
    53    11    10    1
    54    45    44    2
    55    50    51    1
    56    22    23    2
    57    29    28    2
    58    28    27    1
    59   117   116    1
    60   117   118    1
    61    44    43    1
    62   115   112    1
    63    10     9    1
    64    47    46    1
    65   116   113   am
    66    46    43    1
    67    46    48    1
    68    51    52    2
    69    51    57   am
    70   114   113    2
    71   119   118    2
    72    32    30    1
    73   113   112    1
    74    42    43    1
    75     9     3   am
    76   132   134   ar
    77   132   130   ar
    78    27    30    1
    79    27    26    1
    80   112   111    1
    81    57    58    1
    82   134   133   ar
    83    30    31    1
    84   130   129   ar
    85     1     2    1
    86     3     4    2
    87     3     2    1
    88   133   131   ar
    89    58    61    1
    90    58    59    1
    91    60    59    2
    92     5     2    1
    93     5     7    1
    94     5     6    1
    95    61    62    1
    96    59    66   am
    97   129   131   ar
    98   129   128    1
    99    65    63   ar
   100     8     6    1
   101   104   102   ar
   102   101   102    1
   103   101    98    1
   104    66    67    1
   105   102   103   ar
   106    62    63    1
   107   124   125    1
   108   128   125    1
   109    63    64   ar
   110    67    70    1
   111    67    68    1
   112    83    82    1
   113   125   126    1
   114    98    97    1
   115    98    99    1
   116    70    71    1
   117    78    68   am
   118    78    79    1
   119    68    69    2
   120    72    71   ar
   121    72    74   ar
   122    82    79    1
   123    97    95   am
   124   110   109    1
   125    99   100    2
   126   105   106    1
   127   126   127    2
   128    71    73   ar
   129    95    96    2
   130    95    94    1
   131    79    80    1
   132    74    76   ar
   133   106   109    1
   134   106   107    1
   135    94    93    1
   136    81    80    2
   137    80    84   am
   138    73    75   ar
   139    76    75   ar
   140    76    77    1
   141   107   108    2
   142    84    85    1
   143    85    86    1
   144    85    88    1
   145    86    87    2
   146    88    89    1
   147    89    90    1
   148    92    90   ar
   149    90    91   ar
