@<TRIPOS>MOLECULE
tmp/2xnpA00.pdb
 178 171 0 0 0
SMALL
GASTEIGER

@<TRIPOS>ATOM
      1  N        -37.5760   -7.8180   20.8210 N.3    10  TYR10      -0.1241
      2  CA       -37.9870   -6.4750   20.4230 C.3    10  TYR10       0.1605
      3  C        -36.9340   -5.8410   19.5440 C.2    10  TYR10       0.2264
      4  O        -35.8150   -6.3330   19.4610 O.2    10  TYR10      -0.2867
      5  CB       -38.2370   -5.5910   21.6440 C.3    10  TYR10       0.0534
      6  CG       -37.1260   -5.6030   22.6590 C.ar   10  TYR10      -0.0201
      7  CD1      -36.0610   -4.7070   22.5690 C.ar   10  TYR10      -0.0009
      8  CD2      -37.1510   -6.4960   23.7260 C.ar   10  TYR10      -0.0009
      9  CE1      -35.0270   -4.7120   23.5210 C.ar   10  TYR10       0.0417
     10  CE2      -36.1430   -6.5070   24.6710 C.ar   10  TYR10       0.0417
     11  CZ       -35.0850   -5.6170   24.5670 C.ar   10  TYR10       0.1957
     12  OH       -34.0870   -5.6480   25.5140 O.3    10  TYR10      -0.2866
     13  N        -34.1750   -3.1380   18.5580 N.3    12  ILE12      -0.1231
     14  CA       -33.2840   -2.2750   19.3200 C.3    12  ILE12       0.1692
     15  C        -32.8260   -1.0420   18.5580 C.2    12  ILE12       0.2592
     16  O        -32.4220   -0.0600   19.1680 O.2    12  ILE12      -0.2718
     17  CB       -32.0870   -3.0230   19.9000 C.3    12  ILE12       0.0266
     18  CG1      -31.3380   -3.8040   18.8310 C.3    12  ILE12       0.0019
     19  CG2      -32.5460   -4.0030   20.9680 C.3    12  ILE12       0.0020
     20  CD1      -30.3710   -4.8320   19.4700 C.3    12  ILE12       0.0001
     21  N        -32.9120   -1.0750   17.2350 N.am   13  GLY13      -0.1957
     22  CA       -32.5310    0.0840   16.4500 C.3    13  GLY13       0.1869
     23  C        -33.1660    0.0030   15.0770 C.2    13  GLY13       0.2309
     24  O        -33.4650   -1.0860   14.5940 O.2    13  GLY13      -0.2863
     25  N        -30.5270    1.4120    6.8750 N.3    16  TYR16      -0.1241
     26  CA       -30.0400    0.0710    6.5560 C.3    16  TYR16       0.1605
     27  C        -31.1490   -0.9780    6.6760 C.2    16  TYR16       0.2264
     28  O        -31.1880   -1.9470    5.9170 O.2    16  TYR16      -0.2867
     29  CB       -28.8670   -0.3020    7.4680 C.3    16  TYR16       0.0534
     30  CG       -29.2000   -0.2310    8.9400 C.ar   16  TYR16      -0.0201
     31  CD1      -29.0790    0.9620    9.6450 C.ar   16  TYR16      -0.0009
     32  CD2      -29.6390   -1.3580    9.6280 C.ar   16  TYR16      -0.0009
     33  CE1      -29.3880    1.0320   10.9980 C.ar   16  TYR16       0.0417
     34  CE2      -29.9500   -1.2990   10.9800 C.ar   16  TYR16       0.0417
     35  CZ       -29.8260   -0.1020   11.6570 C.ar   16  TYR16       0.1957
     36  OH       -30.1420   -0.0360   12.9920 O.3    16  TYR16      -0.2866
     37  N        -32.3930   -3.6020   13.5970 N.3    19  CYS19      -0.1235
     38  CA       -31.6590   -4.5330   14.4410 C.3    19  CYS19       0.1677
     39  C        -32.5890   -4.9720   15.5720 C.2    19  CYS19       0.2270
     40  O        -33.1950   -4.1320   16.2270 O.2    19  CYS19      -0.2867
     41  CB       -30.4360   -3.8130   15.0150 C.3    19  CYS19       0.0956
     42  SG       -29.2950   -4.8430   15.9190 S.3    19  CYS19      -0.0801
     43  N        -28.6830  -11.0620   18.4420 N.3    32  VAL32      -0.1245
     44  CA       -29.4240  -10.0510   17.7180 C.3    32  VAL32       0.1561
     45  C        -29.3700  -10.3880   16.2490 C.2    32  VAL32       0.2260
     46  O        -28.5490  -11.2120   15.8250 O.2    32  VAL32      -0.2867
     47  CB       -28.8800   -8.6060   17.9690 C.3    32  VAL32       0.0252
     48  CG1      -28.7810   -8.3160   19.4500 C.3    32  VAL32       0.0019
     49  CG2      -27.5610   -8.4200   17.3070 C.3    32  VAL32       0.0019
     50  N        -29.5670   -8.3370   12.2410 N.3    34  LYS34      -0.1245
     51  CA       -29.7940   -7.2110   11.3480 C.3    34  LYS34       0.1561
     52  C        -30.6950   -7.6840   10.2180 C.2    34  LYS34       0.2260
     53  O        -30.3940   -8.6700    9.5310 O.2    34  LYS34      -0.2867
     54  CB       -28.4710   -6.7040   10.7620 C.3    34  LYS34       0.0271
     55  CG       -27.6300   -5.9610   11.7630 C.3    34  LYS34       0.0035
     56  CD       -26.5800   -5.0710   11.0960 C.3    34  LYS34       0.0206
     57  CE       -25.4320   -5.8750   10.4850 C.3    34  LYS34       0.1093
     58  NZ       -24.2910   -4.9860   10.1110 N.3    34  LYS34      -0.1314
     59  N        -17.0060   -8.3420   17.2300 N.3    65  VAL65      -0.1245
     60  CA       -18.3890   -8.8090   17.3890 C.3    65  VAL65       0.1561
     61  C        -18.5740  -10.0780   16.5270 C.2    65  VAL65       0.2260
     62  O        -18.2470  -10.0840   15.3380 O.2    65  VAL65      -0.2867
     63  CB       -19.4190   -7.7270   16.9870 C.3    65  VAL65       0.0252
     64  CG1      -20.8210   -8.3330   16.9350 C.3    65  VAL65       0.0019
     65  CG2      -19.3940   -6.5400   17.9810 C.3    65  VAL65       0.0019
     66  N        -25.9570  -12.0470   14.9950 N.3    83  MET83      -0.1230
     67  CA       -24.7000  -11.7140   15.6730 C.3    83  MET83       0.1702
     68  C        -24.8600  -11.7510   17.1990 C.2    83  MET83       0.2592
     69  O        -25.9700  -11.8940   17.7050 O.2    83  MET83      -0.2718
     70  CB       -24.2410  -10.3190   15.2240 C.3    83  MET83       0.0401
     71  CG       -25.3470   -9.2960   15.2700 C.3    83  MET83       0.0596
     72  SD       -24.8350   -7.6640   14.7330 S.3    83  MET83      -0.1393
     73  CE       -23.7660   -8.0920   13.3880 C.3    83  MET83       0.0692
     74  N        -23.7590  -11.5980   17.9340 N.am   84  GLU84      -0.1966
     75  CA       -23.8270  -11.6160   19.3940 C.3    84  GLU84       0.1733
     76  C        -24.5470  -10.3990   19.9510 C.2    84  GLU84       0.2616
     77  O        -24.4870   -9.2990   19.3870 O.2    84  GLU84      -0.2715
     78  CB       -22.4370  -11.7780   20.0550 C.3    84  GLU84       0.0429
     79  CG       -21.4270  -10.6870   19.8080 C.3    84  GLU84       0.1163
     80  CD       -20.0610  -10.9970   20.4740 C.2    84  GLU84       0.3649
     81  OE1      -19.9880  -11.0850   21.7120 O.co2  84  GLU84      -0.2457
     82  OE2      -19.0690  -11.1500   19.7500 O.co2  84  GLU84      -0.2457
     83  N        -25.2350  -10.6160   21.0620 N.am   85  TYR85      -0.1960
     84  CA       -25.9230   -9.5550   21.7880 C.3    85  TYR85       0.1771
     85  C        -24.9490   -8.9100   22.7680 C.2    85  TYR85       0.2620
     86  O        -24.3180   -9.6030   23.5710 O.2    85  TYR85      -0.2715
     87  CB       -27.0960  -10.1390   22.5740 C.3    85  TYR85       0.0574
     88  CG       -27.7980   -9.1430   23.4430 C.ar   85  TYR85      -0.0198
     89  CD1      -28.3970   -8.0160   22.8900 C.ar   85  TYR85      -0.0009
     90  CD2      -27.8430   -9.3060   24.8260 C.ar   85  TYR85      -0.0009
     91  CE1      -29.0480   -7.1030   23.6740 C.ar   85  TYR85       0.0417
     92  CE2      -28.4930   -8.3920   25.6200 C.ar   85  TYR85       0.0417
     93  CZ       -29.0880   -7.2860   25.0330 C.ar   85  TYR85       0.1957
     94  OH       -29.7480   -6.3660   25.7980 O.3    85  TYR85      -0.2866
     95  N        -24.8190   -7.5940   22.6980 N.am   86  CYS86      -0.1954
     96  CA       -23.8850   -6.8690   23.5770 C.3    86  CYS86       0.1843
     97  C        -24.6650   -6.0300   24.5590 C.2    86  CYS86       0.2625
     98  O        -25.0800   -4.9340   24.2360 O.2    86  CYS86      -0.2714
     99  CB       -22.9800   -5.9860   22.7320 C.3    86  CYS86       0.0997
    100  SG       -21.9880   -6.9800   21.5630 S.3    86  CYS86      -0.0797
    101  N        -24.8840   -6.5570   25.7540 N.am   87  GLU87      -0.1963
    102  CA       -25.8380   -5.9490   26.6770 C.3    87  GLU87       0.1733
    103  C        -25.5080   -4.5120   27.0970 C.2    87  GLU87       0.2617
    104  O        -26.4080   -3.7590   27.4850 O.2    87  GLU87      -0.2715
    105  CB       -26.0520   -6.8500   27.9040 C.3    87  GLU87       0.0429
    106  CG       -26.1360   -6.0650   29.1990 C.3    87  GLU87       0.1163
    107  CD       -25.7080   -6.8570   30.4140 C.2    87  GLU87       0.3649
    108  OE1      -24.8710   -6.3400   31.1940 O.co2  87  GLU87      -0.2457
    109  OE2      -26.1900   -7.9940   30.5750 O.co2  87  GLU87      -0.2457
    110  N        -24.2290   -4.1220   27.0350 N.am   88  GLY88      -0.1940
    111  CA       -23.8440   -2.7790   27.4340 C.3    88  GLY88       0.2014
    112  C        -23.9980   -1.7760   26.3020 C.2    88  GLY88       0.2639
    113  O        -23.7520   -0.5770   26.4740 O.2    88  GLY88      -0.2714
    114  N        -24.3890   -2.2510   25.1270 N.am   89  GLY89      -0.1939
    115  CA       -24.6230   -1.3310   24.0190 C.3    89  GLY89       0.2014
    116  C        -23.3300   -0.7510   23.4480 C.2    89  GLY89       0.2638
    117  O        -22.2630   -1.3330   23.6230 O.2    89  GLY89      -0.2714
    118  N        -23.4140    0.3910   22.7630 N.am   90  ASP90      -0.1971
    119  CA       -22.2500    0.9400   22.0580 C.3    90  ASP90       0.1709
    120  C        -21.5880    2.0640   22.8460 C.2    90  ASP90       0.2293
    121  O        -22.2050    2.6540   23.7160 O.2    90  ASP90      -0.2864
    122  CB       -22.6590    1.5040   20.7090 C.3    90  ASP90       0.1436
    123  CG       -23.5450    2.7360   20.8510 C.2    90  ASP90       0.3671
    124  OD1      -24.7100    2.6140   21.2980 O.co2  90  ASP90      -0.2456
    125  OD2      -23.0660    3.8340   20.5380 O.co2  90  ASP90      -0.2456
    126  N        -23.0000    5.8320   22.9130 N.3    93  SER93      -0.1217
    127  CA       -24.0770    6.0880   23.8670 C.3    93  SER93       0.1889
    128  C        -23.5170    6.2460   25.2680 C.2    93  SER93       0.2288
    129  O        -24.0430    7.0100   26.0720 O.2    93  SER93      -0.2866
    130  CB       -25.1680    4.9900   23.8300 C.3    93  SER93       0.2089
    131  OG       -25.7280    4.9030   22.5310 O.3    93  SER93      -0.2183
    132  N        -19.4020    4.6190   17.9540 N.3   135  ALA135     -0.1231
    133  CA       -20.6120    3.9220   17.5270 C.3   135  ALA135      0.1694
    134  C        -20.3400    2.4910   17.0670 C.2   135  ALA135      0.2592
    135  O        -21.2650    1.7100   16.8840 O.2   135  ALA135     -0.2718
    136  CB       -21.2930    4.7060   16.3980 C.3   135  ALA135      0.0304
    137  N        -19.0810    2.1650   16.8120 N.am  136  ASN136     -0.1974
    138  CA       -18.7490    0.8360   16.2970 C.3   136  ASN136      0.1688
    139  C        -18.0390   -0.0090   17.3530 C.2   136  ASN136      0.2292
    140  O        -17.3990   -1.0300   17.0260 O.2   136  ASN136     -0.2864
    141  CB       -17.8820    0.9230   15.0390 C.3   136  ASN136      0.1181
    142  CG       -17.7840   -0.4160   14.3060 C.2   136  ASN136      0.2629
    143  OD1      -18.7460   -1.1850   14.2660 O.2   136  ASN136     -0.2716
    144  ND2      -16.6220   -0.7020   13.7350 N.am  136  ASN136     -0.0877
    145  N        -18.5660   -2.0170   21.1210 N.3   138  PHE138     -0.1241
    146  CA       -19.6890   -2.5990   21.8500 C.3   138  PHE138      0.1605
    147  C        -19.2040   -3.2360   23.1400 C.2   138  PHE138      0.2264
    148  O        -18.0800   -3.7100   23.2170 O.2   138  PHE138     -0.2867
    149  CB       -20.4570   -3.6120   20.9460 C.3   138  PHE138      0.0534
    150  CG       -20.9820   -2.9680   19.6860 C.ar  138  PHE138     -0.0203
    151  CD1      -20.2170   -2.9340   18.5360 C.ar  138  PHE138     -0.0042
    152  CD2      -22.1880   -2.2780   19.6980 C.ar  138  PHE138     -0.0042
    153  CE1      -20.6810   -2.2810   17.3930 C.ar  138  PHE138     -0.0003
    154  CE2      -22.6590   -1.6260   18.5600 C.ar  138  PHE138     -0.0003
    155  CZ       -21.9060   -1.6200   17.4120 C.ar  138  PHE138     -0.0000
    156  N        -17.2030   -3.6500   15.9820 N.3   148  GLY148     -0.1210
    157  CA       -18.2340   -4.1080   15.0540 C.3   148  GLY148      0.1956
    158  C        -17.8870   -3.9330   13.5810 C.2   148  GLY148      0.2612
    159  O        -16.7260   -3.7100   13.2270 O.2   148  GLY148     -0.2717
    160  N        -18.9000   -4.0250   12.7140 N.am  149  ASP149     -0.1959
    161  CA       -18.6490   -4.1330   11.2730 C.3   149  ASP149      0.1840
    162  C        -18.8610   -2.8450   10.4770 C.2   149  ASP149      0.2622
    163  O        -18.7940   -2.8830    9.2470 O.2   149  ASP149     -0.2715
    164  CB       -19.5100   -5.2430   10.6610 C.3   149  ASP149      0.1450
    165  CG       -21.0050   -4.9090   10.6880 C.2   149  ASP149      0.3671
    166  OD1      -21.3650   -3.7100   10.7670 O.co2 149  ASP149     -0.2456
    167  OD2      -21.8270   -5.8470   10.6320 O.co2 149  ASP149     -0.2456
    168  N        -19.1330   -1.7240   11.1490 N.am  150  PHE150     -0.1974
    169  CA       -19.2350   -0.4270   10.4510 C.3   150  PHE150      0.1639
    170  C        -17.9800   -0.1730    9.6230 C.2   150  PHE150      0.2290
    171  O        -16.8720   -0.4100   10.0910 O.2   150  PHE150     -0.2864
    172  CB       -19.4720    0.7400   11.4260 C.3   150  PHE150      0.0560
    173  CG       -20.8860    0.8200   11.9330 C.ar  150  PHE150     -0.0200
    174  CD1      -21.1530    1.0740   13.2690 C.ar  150  PHE150     -0.0042
    175  CD2      -21.9580    0.6210   11.0680 C.ar  150  PHE150     -0.0042
    176  CE1      -22.4590    1.1440   13.7330 C.ar  150  PHE150     -0.0003
    177  CE2      -23.2680    0.6920   11.5280 C.ar  150  PHE150     -0.0003
    178  CZ       -23.5180    0.9570   12.8590 C.ar  150  PHE150     -0.0000
@<TRIPOS>BOND
     1    28    27    2
     2    26    27    1
     3    26    25    1
     4    26    29    1
     5    29    30    1
     6    30    32   ar
     7    30    31   ar
     8   163   162    2
     9    53    52    2
    10   170   171    2
    11   170   169    1
    12    32    34   ar
    13    31    33   ar
    14    58    57    1
    15    52    51    1
    16   169   168    1
    17   169   172    1
    18   162   168   am
    19   162   161    1
    20    57    56    1
    21   167   165   ar
    22   164   165    1
    23   164   161    1
    24   165   166   ar
    25    54    51    1
    26    54    55    1
    27    34    35   ar
    28    33    35   ar
    29   175   177   ar
    30   175   173   ar
    31    56    55    1
    32   161   160    1
    33    51    50    1
    34   172   173    1
    35   177   178   ar
    36    35    36    1
    37   173   174   ar
    38   160   158   am
    39   178   176   ar
    40   159   158    2
    41   174   176   ar
    42    73    72    1
    43   158   157    1
    44    37    38    1
    45   144   142   am
    46   143   142    2
    47   142   141    1
    48    38    41    1
    49    38    39    1
    50    24    23    2
    51    72    71    1
    52    66    67    1
    53    41    42    1
    54   141   138    1
    55   157   156    1
    56    23    22    1
    57    70    71    1
    58    70    67    1
    59    62    61    2
    60    39    40    2
    61    67    68    1
    62    46    45    2
    63    45    44    1
    64   138   137    1
    65   138   139    1
    66   136   133    1
    67    22    21    1
    68    61    60    1
    69   137   134   am
    70   135   134    2
    71    64    63    1
    72    63    60    1
    73    63    65    1
    74   140   139    2
    75   134   133    1
    76    68    69    2
    77    68    74   am
    78    59    60    1
    79    21    15   am
    80    49    47    1
    81   153   155   ar
    82   153   151   ar
    83   155   154   ar
    84   133   132    1
    85    44    47    1
    86    44    43    1
    87    74    75    1
    88    47    48    1
    89   151   150   ar
    90    15    16    2
    91    15    14    1
    92    13    14    1
    93   154   152   ar
    94    18    20    1
    95    18    17    1
    96    14    17    1
    97    77    76    2
    98    75    76    1
    99    75    78    1
   100     4     3    2
   101     3     2    1
   102   150   152   ar
   103   150   149    1
   104    82    80   ar
   105    79    78    1
   106    79    80    1
   107    17    19    1
   108    76    83   am
   109     2     1    1
   110     2     5    1
   111    80    81   ar
   112   125   123   ar
   113   122   123    1
   114   122   119    1
   115   123   124   ar
   116   149   146    1
   117    83    84    1
   118   145   146    1
   119   100    99    1
   120     5     6    1
   121    84    87    1
   122    84    85    1
   123   146   147    1
   124   119   118    1
   125   119   120    1
   126   131   130    1
   127     7     6   ar
   128     7     9   ar
   129    87    88    1
   130     6     8   ar
   131    95    85   am
   132    95    96    1
   133    99    96    1
   134   118   116   am
   135    85    86    2
   136   120   121    2
   137    89    88   ar
   138    89    91   ar
   139   126   127    1
   140   147   148    2
   141    88    90   ar
   142   116   117    2
   143   116   115    1
   144     9    11   ar
   145    96    97    1
   146    91    93   ar
   147     8    10   ar
   148   130   127    1
   149   127   128    1
   150   115   114    1
   151    98    97    2
   152    97   101   am
   153    11    10   ar
   154    11    12    1
   155    90    92   ar
   156    93    92   ar
   157    93    94    1
   158   114   112   am
   159   128   129    2
   160   101   102    1
   161   112   113    2
   162   112   111    1
   163   102   103    1
   164   102   105    1
   165   110   103   am
   166   110   111    1
   167   103   104    2
   168   105   106    1
   169   106   107    1
   170   107   109   ar
   171   107   108   ar
