@<TRIPOS>MOLECULE
tmp/2xnrA00.pdb
 131 126 0 0 0
SMALL
GASTEIGER

@<TRIPOS>ATOM
      1  N         17.9090   13.2480    5.4750 N.3     4  ARG4       -0.1245
      2  CA        17.3650   11.9500    5.0770 C.3     4  ARG4        0.1563
      3  C         16.5440   11.3390    6.2110 C.2     4  ARG4        0.2260
      4  O         16.9710   11.3550    7.3720 O.2     4  ARG4       -0.2867
      5  CB        18.4980   11.0140    4.6890 C.3     4  ARG4        0.0307
      6  CG        18.0430    9.7180    4.0300 C.3     4  ARG4        0.0489
      7  CD        19.2260    8.7500    3.8220 C.3     4  ARG4        0.2205
      8  NE        20.3570    9.3630    3.1380 N.pl3   4  ARG4       -0.0865
      9  CZ        20.6000    9.2620    1.8310 C.cat   4  ARG4        0.5346
     10  NH1       19.7790    8.5680    1.0440 N.pl3   4  ARG4        0.1354
     11  NH2       21.6700    9.8600    1.3040 N.pl3   4  ARG4        0.1354
     12  N         14.8620    7.9620    7.8370 N.3     6  PHE6       -0.1241
     13  CA        14.9480    6.4960    7.9220 C.3     6  PHE6        0.1605
     14  C         13.6030    5.8970    8.3310 C.2     6  PHE6        0.2264
     15  O         12.9290    6.3980    9.2450 O.2     6  PHE6       -0.2867
     16  CB        16.0020    6.1060    8.9620 C.3     6  PHE6        0.0534
     17  CG        16.0500    4.6370    9.2640 C.ar    6  PHE6       -0.0203
     18  CD1       16.4840    3.7230    8.2990 C.ar    6  PHE6       -0.0042
     19  CD2       15.6750    4.1640   10.5180 C.ar    6  PHE6       -0.0042
     20  CE1       16.5490    2.3550    8.5860 C.ar    6  PHE6       -0.0003
     21  CE2       15.7350    2.7940   10.8100 C.ar    6  PHE6       -0.0003
     22  CZ        16.1860    1.8950    9.8330 C.ar    6  PHE6       -0.0000
     23  N         12.2090    2.1800    9.5350 N.3     8  GLY8       -0.1210
     24  CA        12.8420    0.9520   10.0350 C.3     8  GLY8        0.1956
     25  C         12.0820   -0.3560    9.8970 C.2     8  GLY8        0.2611
     26  O         12.6480   -1.4260   10.1410 O.2     8  GLY8       -0.2717
     27  N         10.8030   -0.2720    9.5380 N.am    9  ASN9       -0.1974
     28  CA         9.9330   -1.4470    9.5670 C.3     9  ASN9        0.1688
     29  C          8.8910   -1.4630    8.4570 C.2     9  ASN9        0.2292
     30  O          7.7130   -1.7380    8.6950 O.2     9  ASN9       -0.2864
     31  CB         9.2580   -1.5920   10.9460 C.3     9  ASN9        0.1181
     32  CG         8.3300   -0.4200   11.2780 C.2     9  ASN9        0.2629
     33  OD1        8.4380    0.6610   10.7040 O.2     9  ASN9       -0.2716
     34  ND2        7.4200   -0.6430   12.2210 N.am    9  ASN9       -0.0877
     35  N         14.8700    5.2750   -1.5130 N.3    34  ASN34      -0.1225
     36  CA        15.4600    3.9360   -1.5960 C.3    34  ASN34       0.1785
     37  C         14.7520    2.9950   -0.6260 C.2    34  ASN34       0.2597
     38  O         14.4410    3.3720    0.5120 O.2    34  ASN34      -0.2718
     39  CB        16.9650    3.9750   -1.2930 C.3    34  ASN34       0.1169
     40  CG        17.7430    4.8430   -2.2760 C.2    34  ASN34       0.2627
     41  OD1       18.5250    5.6940   -1.8690 O.2    34  ASN34      -0.2716
     42  ND2       17.5230    4.6360   -3.5660 N.am   34  ASN34      -0.0877
     43  N         14.4720    1.7800   -1.0880 N.am   35  ILE35      -0.1966
     44  CA        13.9010    0.7450   -0.2270 C.3    35  ILE35       0.1727
     45  C         14.8530   -0.4390   -0.2290 C.2    35  ILE35       0.2616
     46  O         15.2560   -0.9140   -1.2920 O.2    35  ILE35      -0.2715
     47  CB        12.5170    0.3010   -0.7110 C.3    35  ILE35       0.0290
     48  CG1       11.5470    1.4880   -0.6700 C.3    35  ILE35       0.0022
     49  CG2       11.9850   -0.8830    0.1360 C.3    35  ILE35       0.0023
     50  CD1       10.2980    1.2670   -1.5080 C.3    35  ILE35       0.0001
     51  N         15.2270   -0.8940    0.9640 N.am   36  LYS36      -0.1977
     52  CA        16.0560   -2.0840    1.0960 C.3    36  LYS36       0.1596
     53  C         15.3480   -2.9700    2.0900 C.2    36  LYS36       0.2287
     54  O         15.5810   -2.8960    3.2920 O.2    36  LYS36      -0.2864
     55  CB        17.4920   -1.7810    1.5490 C.3    36  LYS36       0.0298
     56  CG        18.4200   -3.0310    1.5550 C.3    36  LYS36       0.0038
     57  CD        18.7340   -3.5390    0.1320 C.3    36  LYS36       0.0206
     58  CE        19.1920   -4.9930    0.1400 C.3    36  LYS36       0.1093
     59  NZ        19.8380   -5.3690   -1.1520 N.3    36  LYS36      -0.1314
     60  N         13.8370   -1.5930    5.3000 N.3    39  PHE39      -0.1241
     61  CA        14.3840   -0.2540    5.5090 C.3    39  PHE39       0.1605
     62  C         14.0490    0.6850    4.3590 C.2    39  PHE39       0.2264
     63  O         14.2490    0.3440    3.1750 O.2    39  PHE39      -0.2867
     64  CB        15.9070   -0.2840    5.7390 C.3    39  PHE39       0.0534
     65  CG        16.3490   -1.1880    6.8720 C.ar   39  PHE39      -0.0203
     66  CD1       17.5760   -1.8230    6.8080 C.ar   39  PHE39      -0.0042
     67  CD2       15.5410   -1.3950    7.9960 C.ar   39  PHE39      -0.0042
     68  CE1       18.0100   -2.6560    7.8450 C.ar   39  PHE39      -0.0003
     69  CE2       15.9620   -2.2440    9.0440 C.ar   39  PHE39      -0.0003
     70  CZ        17.2030   -2.8670    8.9610 C.ar   39  PHE39      -0.0000
     71  N         14.5890    4.7820    2.9280 N.3    41  PHE41      -0.1241
     72  CA        15.3770    5.9980    3.0430 C.3    41  PHE41       0.1605
     73  C         14.8050    7.0520    2.1170 C.2    41  PHE41       0.2264
     74  O         14.7490    6.8580    0.8980 O.2    41  PHE41      -0.2867
     75  CB        16.8390    5.7120    2.6780 C.3    41  PHE41       0.0534
     76  CG        17.4640    4.6300    3.4980 C.ar   41  PHE41      -0.0203
     77  CD1       18.1160    4.9430    4.6870 C.ar   41  PHE41      -0.0042
     78  CD2       17.4010    3.2870    3.0850 C.ar   41  PHE41      -0.0042
     79  CE1       18.7000    3.9360    5.4460 C.ar   41  PHE41      -0.0003
     80  CE2       17.9740    2.2810    3.8490 C.ar   41  PHE41      -0.0003
     81  CZ        18.6370    2.6110    5.0360 C.ar   41  PHE41      -0.0000
     82  N          8.3860    3.0000   12.2180 N.3    68  ILE68      -0.1245
     83  CA         9.5730    3.4980   12.8840 C.3    68  ILE68       0.1561
     84  C         10.1760    4.5680   11.9810 C.2    68  ILE68       0.2260
     85  O         10.6030    4.2680   10.8760 O.2    68  ILE68      -0.2867
     86  CB        10.5770    2.3460   13.0910 C.3    68  ILE68       0.0252
     87  CG1       10.0190    1.3270   14.0940 C.3    68  ILE68       0.0019
     88  CG2       11.9290    2.8670   13.5530 C.3    68  ILE68       0.0019
     89  CD1        9.7330    1.8900   15.4740 C.3    68  ILE68       0.0001
     90  N         12.8730    7.8780   11.8170 N.3    70  GLU70      -0.1231
     91  CA        14.0290    8.4550   12.5070 C.3    70  GLU70       0.1699
     92  C         14.8510    9.3330   11.5770 C.2    70  GLU70       0.2592
     93  O         14.7470    9.2390   10.3550 O.2    70  GLU70      -0.2718
     94  CB        14.9460    7.3440   13.0690 C.3    70  GLU70       0.0402
     95  CG        14.2590    6.2230   13.8860 C.3    70  GLU70       0.1161
     96  CD        13.9220    6.6150   15.3380 C.2    70  GLU70       0.3649
     97  OE1       13.4150    5.7480   16.0710 O.co2  70  GLU70      -0.2457
     98  OE2       14.1650    7.7690   15.7400 O.co2  70  GLU70      -0.2457
     99  N         15.6700   10.2070   12.1540 N.am   71  VAL71      -0.1966
    100  CA        16.6640   10.9010   11.3450 C.3    71  VAL71       0.1727
    101  C         17.6760    9.8520   10.9180 C.2    71  VAL71       0.2617
    102  O         18.1790    9.0980   11.7700 O.2    71  VAL71      -0.2715
    103  CB        17.3590   12.0190   12.1620 C.3    71  VAL71       0.0290
    104  CG1       18.4090   12.7280   11.3440 C.3    71  VAL71       0.0023
    105  CG2       16.3290   13.0000   12.6760 C.3    71  VAL71       0.0023
    106  N         17.9660    9.7840    9.6170 N.am   72  SER72      -0.1936
    107  CA        18.8760    8.7570    9.1060 C.3    72  SER72       0.2055
    108  C         20.3190    9.0640    9.4550 C.2    72  SER72       0.2644
    109  O         20.7730   10.1920    9.3280 O.2    72  SER72      -0.2714
    110  CB        18.7570    8.5670    7.6000 C.3    72  SER72       0.2130
    111  OG        19.6030    7.4950    7.1960 O.3    72  SER72      -0.2179
    112  N         21.0160    8.0240    9.8850 N.am   73  SER73      -0.1935
    113  CA        22.4230    8.1120   10.2460 C.3    73  SER73       0.2055
    114  C         23.2860    7.4030    9.2040 C.2    73  SER73       0.2644
    115  O         24.5180    7.4000    9.3100 O.2    73  SER73      -0.2714
    116  CB        22.6150    7.4690   11.6120 C.3    73  SER73       0.2130
    117  OG        22.2210    6.1130   11.5740 O.3    73  SER73      -0.2179
    118  N         22.6410    6.8240    8.1900 N.am   74  SER74      -0.1935
    119  CA        23.3100    5.9580    7.2170 C.3    74  SER74       0.2055
    120  C         24.2110    6.7450    6.2740 C.2    74  SER74       0.2643
    121  O         23.7830    7.7380    5.6810 O.2    74  SER74      -0.2714
    122  CB        22.2830    5.1600    6.4090 C.3    74  SER74       0.2130
    123  OG        22.9060    4.3880    5.3890 O.3    74  SER74      -0.2179
    124  N         25.4570    6.2890    6.1480 N.am   75  ASN75      -0.1971
    125  CA        26.4000    6.8390    5.1700 C.3    75  ASN75       0.1688
    126  C         26.4270    6.0490    3.8540 C.2    75  ASN75       0.2292
    127  O         25.6140    5.1420    3.6270 O.2    75  ASN75      -0.2864
    128  CB        27.8090    6.9140    5.7690 C.3    75  ASN75       0.1181
    129  CG        27.8920    7.8670    6.9580 C.2    75  ASN75       0.2629
    130  OD1       27.6830    9.0750    6.8230 O.2    75  ASN75      -0.2716
    131  ND2       28.2180    7.3280    8.1250 N.am   75  ASN75      -0.0877
@<TRIPOS>BOND
     1    42    40   am
     2    40    41    2
     3    40    39    1
     4    36    35    1
     5    36    39    1
     6    36    37    1
     7    50    48    1
     8    46    45    2
     9    59    58    1
    10    43    37   am
    11    43    44    1
    12    47    48    1
    13    47    44    1
    14    47    49    1
    15    37    38    2
    16    45    44    1
    17    45    51   am
    18    57    58    1
    19    57    56    1
    20    74    73    2
    21    51    52    1
    22    10     9    1
    23    52    55    1
    24    52    53    1
    25    11     9    1
    26    55    56    1
    27     9     8    2
    28    53    54    2
    29    73    72    1
    30    75    72    1
    31    75    76    1
    32    71    72    1
    33    78    76   ar
    34    78    80   ar
    35     8     7    1
    36    63    62    2
    37    76    77   ar
    38   127   126    2
    39     7     6    1
    40    80    81   ar
    41   126   125    1
    42     6     5    1
    43    62    61    1
    44    77    79   ar
    45     5     2    1
    46    81    79   ar
    47     2     1    1
    48     2     3    1
    49   125   128    1
    50   125   124    1
    51    60    61    1
    52   123   122    1
    53    61    64    1
    54   121   120    2
    55    64    65    1
    56   128   129    1
    57   124   120   am
    58     3     4    2
    59   120   119    1
    60   122   119    1
    61    66    65   ar
    62    66    68   ar
    63   130   129    2
    64    65    67   ar
    65   129   131   am
    66   111   110    1
    67   119   118    1
    68   110   107    1
    69    12    13    1
    70    68    70   ar
    71    13    14    1
    72    13    16    1
    73    67    69   ar
    74   118   114   am
    75    18    20   ar
    76    18    17   ar
    77    14    15    2
    78    29    30    2
    79    29    28    1
    80    20    22   ar
    81    70    69   ar
    82    16    17    1
    83   107   108    1
    84   107   106    1
    85   114   115    2
    86   114   113    1
    87    17    19   ar
    88   109   108    2
    89   108   112   am
    90    23    24    1
    91    27    28    1
    92    27    25   am
    93    28    31    1
    94   106   101   am
    95    22    21   ar
    96   112   113    1
    97    25    24    1
    98    25    26    2
    99   113   116    1
   100    93    92    2
   101    19    21   ar
   102    33    32    2
   103    85    84    2
   104   101   100    1
   105   101   102    2
   106    31    32    1
   107    32    34   am
   108   104   103    1
   109   100    99    1
   110   100   103    1
   111   117   116    1
   112    92    99   am
   113    92    91    1
   114    90    91    1
   115    84    83    1
   116   103   105    1
   117    82    83    1
   118    91    94    1
   119    83    86    1
   120    94    95    1
   121    86    88    1
   122    86    87    1
   123    95    96    1
   124    87    89    1
   125    96    98   ar
   126    96    97   ar
