@<TRIPOS>MOLECULE
tmp/2xo5A00.pdb
 95 95 0 0 0
SMALL
GASTEIGER

@<TRIPOS>ATOM
      1  N         -6.2390   70.0740   31.1840 N.3   556  ALA556     -0.1231
      2  CA        -5.7850   68.9970   30.2950 C.3   556  ALA556      0.1694
      3  C         -5.9890   67.6360   30.9620 C.2   556  ALA556      0.2592
      4  O         -6.3000   66.6460   30.2970 O.2   556  ALA556     -0.2718
      5  CB        -4.3300   69.1850   29.9210 C.3   556  ALA556      0.0304
      6  N         -5.8110   67.6100   32.2800 N.am  557  LYS557     -0.1966
      7  CA        -6.0800   66.4360   33.0810 C.3   557  LYS557      0.1728
      8  C         -7.5390   66.0450   32.9300 C.2   557  LYS557      0.2616
      9  O         -7.8620   64.8790   32.7060 O.2   557  LYS557     -0.2715
     10  CB        -5.7940   66.7230   34.5500 C.3   557  LYS557      0.0311
     11  CG        -4.3430   66.8240   34.9090 C.3   557  LYS557      0.0038
     12  CD        -4.2010   66.7180   36.4020 C.3   557  LYS557      0.0206
     13  CE        -2.7580   66.5250   36.7860 C.3   557  LYS557      0.1093
     14  NZ        -2.6240   66.7060   38.2420 N.3   557  LYS557     -0.1314
     15  N         -8.4150   67.0380   33.0350 N.am  558  GLU558     -0.1963
     16  CA        -9.8500   66.8030   33.0720 C.3   558  GLU558      0.1733
     17  C        -10.4380   66.4630   31.7050 C.2   558  GLU558      0.2616
     18  O        -11.3710   65.6650   31.6300 O.2   558  GLU558     -0.2715
     19  CB       -10.5740   68.0070   33.6990 C.3   558  GLU558      0.0429
     20  CG       -12.0620   67.7910   33.9530 C.3   558  GLU558      0.1163
     21  CD       -12.7910   69.0820   34.3070 C.2   558  GLU558      0.3649
     22  OE1      -12.6710   69.5340   35.4650 O.co2 558  GLU558     -0.2457
     23  OE2      -13.4920   69.6330   33.4260 O.co2 558  GLU558     -0.2457
     24  N         -9.8920   67.0610   30.6380 N.am  559  GLN559     -0.1963
     25  CA       -10.5420   67.0530   29.3120 C.3   559  GLN559      0.1733
     26  C         -9.6100   66.7220   28.1340 C.2   559  GLN559      0.2617
     27  O        -10.0650   66.5830   26.9980 O.2   559  GLN559     -0.2715
     28  CB       -11.2290   68.3930   29.0510 C.3   559  GLN559      0.0408
     29  CG       -12.3410   68.7800   30.0380 C.3   559  GLN559      0.0908
     30  CD       -13.0750   70.0520   29.6000 C.2   559  GLN559      0.2608
     31  OE1      -13.0180   70.4380   28.4240 O.2   559  GLN559     -0.2717
     32  NE2      -13.7520   70.7080   30.5380 N.am  559  GLN559     -0.0878
     33  N         -8.3110   66.6110   28.4000 N.am  560  GLY560     -0.1940
     34  CA        -7.3450   66.2540   27.3590 C.3   560  GLY560      0.2014
     35  C         -6.4970   67.4220   26.8960 C.2   560  GLY560      0.2639
     36  O         -6.9900   68.5400   26.7570 O.2   560  GLY560     -0.2714
     37  N         -5.2210   67.1570   26.6500 N.am  561  ALA561     -0.1963
     38  CA        -4.3080   68.1530   26.0980 C.3   561  ALA561      0.1728
     39  C         -4.7430   68.5490   24.6870 C.2   561  ALA561      0.2616
     40  O         -5.5070   67.8380   24.0510 O.2   561  ALA561     -0.2715
     41  CB        -2.8740   67.6140   26.0970 C.3   561  ALA561      0.0334
     42  N         -4.2820   69.6840   24.1910 N.am  562  CYS562     -0.1954
     43  CA        -4.6760   70.0830   22.8440 C.3   562  CYS562      0.1828
     44  C         -4.0310   69.1500   21.8120 C.2   562  CYS562      0.2467
     45  O         -2.8760   68.7430   21.9870 O.2   562  CYS562     -0.2730
     46  CB        -4.2890   71.5400   22.5830 C.3   562  CYS562      0.0996
     47  SG        -2.5240   71.8230   22.7090 S.3   562  CYS562     -0.0797
     48  N         -4.7610   68.8080   20.7360 N.am  563  PRO563     -0.2726
     49  CA        -4.2550   67.8240   19.7890 C.3   563  PRO563      0.1402
     50  C         -2.7760   68.0260   19.4430 C.2   563  PRO563      0.2269
     51  O         -2.0020   67.0820   19.5180 O.2   563  PRO563     -0.2865
     52  CB        -5.1390   68.0350   18.5550 C.3   563  PRO563      0.0296
     53  CG        -6.4090   68.5140   19.0880 C.3   563  PRO563      0.0237
     54  CD        -6.0900   69.3060   20.3390 C.3   563  PRO563      0.0939
     55  N         -0.3480   69.4200   21.0220 N.3   565  PHE565     -0.1241
     56  CA         0.5280   69.6790   22.1700 C.3   565  PHE565      0.1605
     57  C          1.9840   69.2480   21.9680 C.2   565  PHE565      0.2264
     58  O          2.8840   69.8990   22.4850 O.2   565  PHE565     -0.2867
     59  CB        -0.0300   69.0600   23.4520 C.3   565  PHE565      0.0534
     60  CG         0.8210   69.3130   24.6720 C.ar  565  PHE565     -0.0203
     61  CD1        0.9570   70.6080   25.1980 C.ar  565  PHE565     -0.0042
     62  CD2        1.4890   68.2640   25.3030 C.ar  565  PHE565     -0.0042
     63  CE1        1.7400   70.8450   26.3270 C.ar  565  PHE565     -0.0003
     64  CE2        2.2790   68.4990   26.4380 C.ar  565  PHE565     -0.0003
     65  CZ         2.4020   69.7930   26.9460 C.ar  565  PHE565     -0.0000
     66  N          4.5870   67.8690   31.3530 N.3   604  LYS604     -0.1231
     67  CA         5.1660   66.8700   30.4670 C.3   604  LYS604      0.1693
     68  C          4.3130   65.5850   30.4750 C.2   604  LYS604      0.2593
     69  O          4.1510   64.9320   29.4420 O.2   604  LYS604     -0.2718
     70  CB         6.6270   66.5920   30.8430 C.3   604  LYS604      0.0285
     71  CG         7.4250   65.8940   29.7440 C.3   604  LYS604      0.0035
     72  CD         8.4860   64.9200   30.3010 C.3   604  LYS604      0.0206
     73  CE         9.8740   65.5900   30.4580 C.3   604  LYS604      0.1093
     74  NZ        10.6430   65.0900   31.6530 N.3   604  LYS604     -0.1314
     75  N          3.7410   65.2540   31.6290 N.am  605  THR605     -0.1939
     76  CA         2.8830   64.0870   31.7680 C.3   605  THR605      0.2028
     77  C          1.4750   64.3200   31.2090 C.2   605  THR605      0.2642
     78  O          1.0570   63.6390   30.2740 O.2   605  THR605     -0.2714
     79  CB         2.7900   63.6760   33.2460 C.3   605  THR605      0.1808
     80  OG1        4.0940   63.3130   33.7130 O.3   605  THR605     -0.2208
     81  CG2        1.8160   62.5130   33.4580 C.3   605  THR605      0.0379
     82  N          0.7490   65.2770   31.7870 N.am  606  HIS606     -0.1959
     83  CA        -0.6780   65.4870   31.4870 C.3   606  HIS606      0.1787
     84  C         -0.9360   66.4600   30.3470 C.2   606  HIS606      0.2620
     85  O         -2.0380   66.5090   29.8160 O.2   606  HIS606     -0.2715
     86  CB        -1.4260   65.9440   32.7410 C.3   606  HIS606      0.0785
     87  CG        -1.2010   65.0580   33.9260 C.ar  606  HIS606      0.0821
     88  ND1       -0.1310   65.2180   34.7830 N.ar  606  HIS606     -0.2267
     89  CD2       -1.8910   63.9860   34.3830 C.ar  606  HIS606      0.1154
     90  CE1       -0.1820   64.2950   35.7270 C.ar  606  HIS606      0.1986
     91  NE2       -1.2400   63.5350   35.5060 N.ar  606  HIS606     -0.2212
     92  N          0.0750   67.2360   29.9790 N.am  607  GLY607     -0.1954
     93  CA        -0.0450   68.1690   28.8660 C.3   607  GLY607      0.1869
     94  C         -0.6550   69.4980   29.2540 C.2   607  GLY607      0.2309
     95  O         -0.8790   69.7810   30.4340 O.2   607  GLY607     -0.2863
@<TRIPOS>BOND
     1    52    53    1
     2    52    49    1
     3    53    54    1
     4    50    51    2
     5    50    49    1
     6    49    48    1
     7    54    48    1
     8    48    44   am
     9    55    56    1
    10    44    45    2
    11    44    43    1
    12    57    56    1
    13    57    58    2
    14    56    59    1
    15    46    47    1
    16    46    43    1
    17    43    42    1
    18    59    60    1
    19    40    39    2
    20    42    39   am
    21    60    61   ar
    22    60    62   ar
    23    39    38    1
    24    61    63   ar
    25    62    64   ar
    26    41    38    1
    27    38    37    1
    28    63    65   ar
    29    64    65   ar
    30    37    35   am
    31    36    35    2
    32    35    34    1
    33    27    26    2
    34    34    33    1
    35    26    33   am
    36    26    25    1
    37    31    30    2
    38    93    94    1
    39    93    92    1
    40    28    25    1
    41    28    29    1
    42    94    95    2
    43    25    24    1
    44    69    68    2
    45    30    29    1
    46    30    32   am
    47    71    72    1
    48    71    70    1
    49    85    84    2
    50     5     2    1
    51    92    84   am
    52    78    77    2
    53     2     3    1
    54     2     1    1
    55     4     3    2
    56    72    73    1
    57    84    83    1
    58    73    74    1
    59    67    68    1
    60    67    70    1
    61    67    66    1
    62    68    75   am
    63    24    17   am
    64     3     6   am
    65    77    76    1
    66    77    82   am
    67    83    82    1
    68    83    86    1
    69    75    76    1
    70    18    17    2
    71    17    16    1
    72    76    79    1
    73     6     7    1
    74     9     8    2
    75    86    87    1
    76     8    15   am
    77     8     7    1
    78    15    16    1
    79    16    19    1
    80     7    10    1
    81    79    81    1
    82    79    80    1
    83    23    21   ar
    84    19    20    1
    85    87    89   ar
    86    87    88   ar
    87    20    21    1
    88    21    22   ar
    89    89    91   ar
    90    10    11    1
    91    88    90   ar
    92    11    12    1
    93    91    90   ar
    94    12    13    1
    95    13    14    1
