@<TRIPOS>MOLECULE
tmp/2xo8A00.pdb
 130 121 0 0 0
SMALL
GASTEIGER

@<TRIPOS>ATOM
      1  N         66.8990   43.0660  -39.6650 N.3   262  LEU262     -0.1245
      2  CA        66.1320   44.2070  -39.1850 C.3   262  LEU262      0.1561
      3  C         64.7190   44.1430  -39.7420 C.2   262  LEU262      0.2260
      4  O         64.5300   43.8780  -40.9120 O.2   262  LEU262     -0.2867
      5  CB        66.7790   45.5300  -39.6230 C.3   262  LEU262      0.0270
      6  CG        66.0420   46.7660  -39.0830 C.3   262  LEU262      0.0019
      7  CD1       65.9030   46.6240  -37.5700 C.3   262  LEU262      0.0001
      8  CD2       66.7490   48.0740  -39.4660 C.3   262  LEU262      0.0001
      9  N         62.4280   45.8550  -41.2190 N.3   264  LYS264     -0.1245
     10  CA        62.1620   47.0800  -41.9750 C.3   264  LYS264      0.1561
     11  C         60.7190   47.4710  -42.1060 C.2   264  LYS264      0.2260
     12  O         60.3950   48.6520  -42.2210 O.2   264  LYS264     -0.2867
     13  CB        62.7870   46.9850  -43.3600 C.3   264  LYS264      0.0271
     14  CG        64.0170   47.1780  -43.1770 C.3   264  LYS264      0.0035
     15  CD        64.6770   47.3140  -44.2400 C.3   264  LYS264      0.0206
     16  CE        65.0650   46.2380  -44.9090 C.3   264  LYS264      0.1093
     17  NZ        66.2800   45.7670  -44.5180 N.3   264  LYS264     -0.1314
     18  N         58.8690   51.6100  -49.7260 N.3   419  ALA419     -0.1245
     19  CA        60.0840   50.8950  -50.0640 C.3   419  ALA419      0.1562
     20  C         61.2700   51.8200  -49.8910 C.2   419  ALA419      0.2260
     21  O         62.3220   51.4050  -49.4140 O.2   419  ALA419     -0.2867
     22  CB        60.0140   50.3680  -51.5040 C.3   419  ALA419      0.0290
     23  N         61.8170   52.0800  -46.1400 N.3   422  LYS422     -0.1231
     24  CA        62.4500   50.9260  -45.5160 C.3   422  LYS422      0.1693
     25  C         63.9200   50.8050  -45.9040 C.2   422  LYS422      0.2591
     26  O         64.7460   50.4030  -45.0910 O.2   422  LYS422     -0.2718
     27  CB        61.6790   49.6440  -45.8130 C.3   422  LYS422      0.0285
     28  CG        60.2140   49.7620  -45.4270 C.3   422  LYS422      0.0035
     29  CD        59.5080   48.4390  -45.4800 C.3   422  LYS422      0.0206
     30  CE        59.4310   47.8940  -46.8760 C.3   422  LYS422      0.1093
     31  NZ        58.6390   46.6210  -46.9130 N.3   422  LYS422     -0.1314
     32  N         64.2380   51.1820  -47.1350 N.am  423  ALA423     -0.1980
     33  CA        65.6060   51.1540  -47.6310 C.3   423  ALA423      0.1597
     34  C         66.4260   52.1810  -46.8840 C.2   423  ALA423      0.2287
     35  O         67.5470   51.9270  -46.4860 O.2   423  ALA423     -0.2864
     36  CB        65.6210   51.4580  -49.1260 C.3   423  ALA423      0.0319
     37  N         66.8000   50.8650  -43.2720 N.3   426  GLY426     -0.1210
     38  CA        67.6470   49.6920  -43.2360 C.3   426  GLY426      0.1956
     39  C         69.1030   49.9990  -43.5100 C.2   426  GLY426      0.2611
     40  O         69.9960   49.4280  -42.8900 O.2   426  GLY426     -0.2717
     41  N         69.3500   50.9120  -44.4380 N.am  427  ARG427     -0.1979
     42  CA        70.7190   51.2810  -44.7760 C.3   427  ARG427      0.1597
     43  C         71.3310   52.0970  -43.6640 C.2   427  ARG427      0.2287
     44  O         72.4890   51.8990  -43.3170 O.2   427  ARG427     -0.2864
     45  CB        70.7590   52.0490  -46.0940 C.3   427  ARG427      0.0334
     46  CG        70.4290   51.1710  -47.2790 C.3   427  ARG427      0.0492
     47  CD        70.0570   51.9760  -48.4890 C.3   427  ARG427      0.2205
     48  NE        69.5690   51.1040  -49.5390 N.pl3 427  ARG427     -0.0865
     49  CZ        69.8390   51.2660  -50.8270 C.cat 427  ARG427      0.5346
     50  NH1       70.5900   52.2780  -51.2410 N.pl3 427  ARG427      0.1354
     51  NH2       69.3480   50.4110  -51.7000 N.pl3 427  ARG427      0.1354
     52  N         72.2490   49.8210  -40.9770 N.3   430  LEU430     -0.1245
     53  CA        73.4500   49.0880  -41.3090 C.3   430  LEU430      0.1561
     54  C         74.6800   49.9710  -41.1800 C.2   430  LEU430      0.2260
     55  O         75.7450   49.5200  -40.7560 O.2   430  LEU430     -0.2867
     56  CB        73.3750   48.5370  -42.7160 C.3   430  LEU430      0.0270
     57  CG        74.4150   47.4220  -42.7180 C.3   430  LEU430      0.0019
     58  CD1       73.8480   46.1850  -41.9760 C.3   430  LEU430      0.0001
     59  CD2       74.9390   47.0910  -44.1300 C.3   430  LEU430      0.0001
     60  N         62.2280   42.6330  -52.3660 N.3   589  ASP589     -0.1225
     61  CA        62.6890   43.8360  -51.7210 C.3   589  ASP589      0.1790
     62  C         63.1040   44.9000  -52.7330 C.2   589  ASP589      0.2440
     63  O         64.2100   45.4210  -52.6830 O.2   589  ASP589     -0.2733
     64  CB        63.8440   43.5170  -50.7880 C.3   589  ASP589      0.1423
     65  CG        64.1900   44.6750  -49.9090 C.2   589  ASP589      0.3668
     66  OD1       63.2800   45.4720  -49.6180 O.co2 589  ASP589     -0.2456
     67  OD2       65.3690   44.7980  -49.5360 O.co2 589  ASP589     -0.2456
     68  N         62.1890   45.2550  -53.6290 N.am  590  PRO590     -0.2718
     69  CA        62.4650   46.1780  -54.7370 C.3   590  PRO590      0.1535
     70  C         62.4600   47.6720  -54.3590 C.2   590  PRO590      0.2598
     71  O         61.7060   48.1210  -53.5050 O.2   590  PRO590     -0.2715
     72  CB        61.3150   45.8930  -55.6890 C.3   590  PRO590      0.0310
     73  CG        60.1570   45.5980  -54.7410 C.3   590  PRO590      0.0237
     74  CD        60.7670   44.8730  -53.5660 C.3   590  PRO590      0.0939
     75  N         63.3080   48.4340  -55.0280 N.am  591  LEU591     -0.1978
     76  CA        63.3330   49.8780  -54.9140 C.3   591  LEU591      0.1596
     77  C         63.5320   50.4640  -56.3150 C.2   591  LEU591      0.2287
     78  O         64.4860   50.1100  -57.0080 O.2   591  LEU591     -0.2864
     79  CB        64.4950   50.2990  -54.0100 C.3   591  LEU591      0.0297
     80  CG        64.5560   51.7820  -53.6500 C.3   591  LEU591      0.0022
     81  CD1       63.2870   52.1840  -52.8940 C.3   591  LEU591      0.0001
     82  CD2       65.8080   52.0720  -52.8420 C.3   591  LEU591      0.0001
     83  N         66.6810   55.6990  -56.0260 N.3   596  GLU596     -0.1245
     84  CA        68.1080   55.6320  -55.7360 C.3   596  GLU596      0.1567
     85  C         68.8780   56.7530  -56.4210 C.2   596  GLU596      0.2260
     86  O         69.6850   57.4270  -55.7890 O.2   596  GLU596     -0.2867
     87  CB        68.6670   54.2630  -56.1080 C.3   596  GLU596      0.0388
     88  CG        68.5200   53.2600  -54.9810 C.3   596  GLU596      0.1160
     89  CD        68.8820   51.8680  -55.4030 C.2   596  GLU596      0.3649
     90  OE1       68.8180   51.5790  -56.6250 O.co2 596  GLU596     -0.2457
     91  OE2       69.2310   51.0660  -54.5180 O.co2 596  GLU596     -0.2457
     92  N         76.8540   49.1710  -48.8170 N.3   616  ILE616     -0.1231
     93  CA        75.6460   49.5020  -48.0860 C.3   616  ILE616      0.1692
     94  C         74.4680   49.5550  -49.0410 C.2   616  ILE616      0.2592
     95  O         73.3890   49.0410  -48.7380 O.2   616  ILE616     -0.2718
     96  CB        75.7840   50.8490  -47.3780 C.3   616  ILE616      0.0266
     97  CG1       76.6760   50.6990  -46.1560 C.3   616  ILE616      0.0019
     98  CG2       74.4250   51.3840  -46.9710 C.3   616  ILE616      0.0020
     99  CD1       76.8660   51.9890  -45.4050 C.3   616  ILE616      0.0001
    100  N         74.6930   50.1580  -50.2050 N.am  617  ALA617     -0.1966
    101  CA        73.6290   50.4150  -51.1660 C.3   617  ALA617      0.1728
    102  C         73.5680   49.3690  -52.2680 C.2   617  ALA617      0.2617
    103  O         72.5510   49.2530  -52.9520 O.2   617  ALA617     -0.2715
    104  CB        73.8040   51.7900  -51.7730 C.3   617  ALA617      0.0334
    105  N         74.6550   48.6230  -52.4570 N.am  618  SER618     -0.1936
    106  CA        74.7100   47.6260  -53.5230 C.3   618  SER618      0.2055
    107  C         74.0250   46.3420  -53.0990 C.2   618  SER618      0.2642
    108  O         73.8940   46.0470  -51.9090 O.2   618  SER618     -0.2714
    109  CB        76.1550   47.3300  -53.9620 C.3   618  SER618      0.2130
    110  OG        76.6010   48.2060  -54.9920 O.3   618  SER618     -0.2179
    111  N         73.5880   45.5790  -54.0860 N.am  619  ARG619     -0.1977
    112  CA        72.9110   44.3280  -53.8200 C.3   619  ARG619      0.1597
    113  C         73.6260   43.2050  -54.5580 C.2   619  ARG619      0.2287
    114  O         74.0520   43.3850  -55.6970 O.2   619  ARG619     -0.2864
    115  CB        71.4610   44.4250  -54.2800 C.3   619  ARG619      0.0334
    116  CG        70.6310   43.1920  -53.9660 C.3   619  ARG619      0.0492
    117  CD        69.8650   43.3460  -52.6630 C.3   619  ARG619      0.2205
    118  NE        68.7650   42.3870  -52.5960 N.pl3 619  ARG619     -0.0865
    119  CZ        67.5830   42.5700  -53.1760 C.cat 619  ARG619      0.5346
    120  NH1       67.3400   43.6840  -53.8540 N.pl3 619  ARG619      0.1354
    121  NH2       66.6400   41.6450  -53.0640 N.pl3 619  ARG619      0.1354
    122  N         69.6710   35.5120  -49.0820 N.3   632  GLN632     -0.1245
    123  CA        70.6910   36.2730  -48.3970 C.3   632  GLN632      0.1566
    124  C         70.6990   35.8810  -46.9130 C.2   632  GLN632      0.2260
    125  O         71.7470   35.5490  -46.3450 O.2   632  GLN632     -0.2867
    126  CB        70.3840   37.7540  -48.5750 C.3   632  GLN632      0.0367
    127  CG        71.5290   38.6820  -48.3070 C.3   632  GLN632      0.0905
    128  CD        71.1240   40.1430  -48.4420 C.2   632  GLN632      0.2608
    129  OE1       70.1860   40.4820  -49.1780 O.2   632  GLN632     -0.2717
    130  NE2       71.8310   41.0190  -47.7310 N.am  632  GLN632     -0.0878
@<TRIPOS>BOND
     1    78    77    2
     2    90    89   ar
     3    85    86    2
     4    85    84    1
     5    77    76    1
     6    87    84    1
     7    87    88    1
     8    83    84    1
     9   114   113    2
    10    72    73    1
    11    72    69    1
    12    89    88    1
    13    89    91   ar
    14    75    76    1
    15    75    70   am
    16   110   109    1
    17    76    79    1
    18    73    74    1
    19    69    70    1
    20    69    68    1
    21   113   112    1
    22    70    71    2
    23   115   116    1
    24   115   112    1
    25   111   112    1
    26   111   107   am
    27    79    80    1
    28   116   117    1
    29   109   106    1
    30   120   119    1
    31    80    81    1
    32    80    82    1
    33    68    74    1
    34    68    62   am
    35   106   107    1
    36   106   105    1
    37   119   121    1
    38   119   118    2
    39   107   108    2
    40   103   102    2
    41    62    63    2
    42    62    61    1
    43   117   118    1
    44   105   102   am
    45    60    61    1
    46   102   101    1
    47   104   101    1
    48    61    64    1
    49    51    49    1
    50    22    19    1
    51    50    49    1
    52   101   100    1
    53    49    48    2
    54    64    65    1
    55   100    94   am
    56    19    20    1
    57    19    18    1
    58    65    66   ar
    59    65    67   ar
    60    20    21    2
    61    48    47    1
    62   129   128    2
    63    36    33    1
    64   122   123    1
    65    94    95    2
    66    94    93    1
    67    92    93    1
    68   126   123    1
    69   126   127    1
    70    47    46    1
    71   128   127    1
    72   128   130   am
    73   123   124    1
    74    93    96    1
    75    33    32    1
    76    33    34    1
    77    96    98    1
    78    96    97    1
    79    46    45    1
    80    32    25   am
    81   124   125    2
    82    31    30    1
    83    34    35    2
    84    30    29    1
    85    97    99    1
    86    23    24    1
    87    45    42    1
    88    25    24    1
    89    25    26    2
    90    27    24    1
    91    27    28    1
    92    29    28    1
    93    16    17    1
    94    16    15    1
    95    42    41    1
    96    42    43    1
    97    41    39   am
    98    15    14    1
    99    59    57    1
   100    43    44    2
   101    39    38    1
   102    39    40    2
   103    13    14    1
   104    13    10    1
   105    37    38    1
   106    57    56    1
   107    57    58    1
   108    56    53    1
   109    12    11    2
   110    11    10    1
   111    10     9    1
   112    53    54    1
   113    53    52    1
   114    54    55    2
   115     4     3    2
   116     3     2    1
   117     1     2    1
   118     5     2    1
   119     5     6    1
   120     8     6    1
   121     6     7    1
