@<TRIPOS>MOLECULE
tmp/2xoiB00.pdb
 75 67 0 0 0
SMALL
GASTEIGER

@<TRIPOS>ATOM
      1  N         17.9360   -9.9830   34.8600 N.3     4  ALA4       -0.1245
      2  CA        16.7440   -9.2110   35.2030 C.3     4  ALA4        0.1562
      3  C         16.9740   -7.7080   35.0120 C.2     4  ALA4        0.2260
      4  O         16.1100   -7.0040   34.4760 O.2     4  ALA4       -0.2867
      5  CB        16.3240   -9.5090   36.6330 C.3     4  ALA4        0.0290
      6  N          4.8910   -3.8960   46.2570 N.3    63  CYS63      -0.1235
      7  CA         4.6790   -4.1770   44.8460 C.3    63  CYS63       0.1677
      8  C          3.2590   -4.6900   44.6470 C.2    63  CYS63       0.2270
      9  O          2.6160   -5.1290   45.6040 O.2    63  CYS63      -0.2867
     10  CB         5.6660   -5.2450   44.3660 C.3    63  CYS63       0.0956
     11  SG         7.4040   -4.8850   44.6940 S.3    63  CYS63      -0.0801
     12  N          2.4690   -7.3890   43.3470 N.3    65  ASN65      -0.1240
     13  CA         2.5120   -8.8250   43.6540 C.3    65  ASN65       0.1653
     14  C          2.6760   -9.1750   45.1410 C.2    65  ASN65       0.2266
     15  O          2.7230  -10.3570   45.5070 O.2    65  ASN65      -0.2867
     16  CB         3.5870   -9.5260   42.8060 C.3    65  ASN65       0.1155
     17  CG         5.0100   -9.2660   43.2990 C.2    65  ASN65       0.2627
     18  OD1        5.2380   -8.4690   44.2080 O.2    65  ASN65      -0.2716
     19  ND2        5.9750   -9.9490   42.6910 N.am   65  ASN65      -0.0877
     20  N          5.2820   -8.3600   47.1440 N.3    67  GLN67      -0.1245
     21  CA         6.6830   -8.2570   47.5720 C.3    67  GLN67       0.1566
     22  C          6.9770   -6.8800   48.1760 C.2    67  GLN67       0.2260
     23  O          6.2740   -5.9030   47.8970 O.2    67  GLN67      -0.2867
     24  CB         7.6370   -8.5470   46.4110 C.3    67  GLN67       0.0367
     25  CG         7.7100  -10.0150   45.9800 C.3    67  GLN67       0.0905
     26  CD         8.6440  -10.2340   44.7970 C.2    67  GLN67       0.2608
     27  OE1        9.5090   -9.4030   44.5030 O.2    67  GLN67      -0.2717
     28  NE2        8.4750  -11.3580   44.1120 N.am   67  GLN67      -0.0878
     29  N          9.9190   -5.1110   48.0170 N.3    69  ASN69      -0.1240
     30  CA        11.1030   -4.4840   47.4180 C.3    69  ASN69       0.1653
     31  C         10.8120   -3.4900   46.2880 C.2    69  ASN69       0.2266
     32  O         11.6230   -3.3330   45.3710 O.2    69  ASN69      -0.2867
     33  CB        12.0950   -5.5580   46.9400 C.3    69  ASN69       0.1155
     34  CG        11.5220   -6.4430   45.8440 C.2    69  ASN69       0.2627
     35  OD1       10.3940   -6.9310   45.9450 O.2    69  ASN69      -0.2716
     36  ND2       12.3040   -6.6630   44.7920 N.am   69  ASN69      -0.0877
     37  N         10.6320   -2.4150   41.0740 N.3   107  ALA107     -0.1245
     38  CA        11.1540   -3.4130   42.0100 C.3   107  ALA107      0.1562
     39  C         12.6720   -3.4440   41.8890 C.2   107  ALA107      0.2260
     40  O         13.2070   -3.4020   40.7800 O.2   107  ALA107     -0.2867
     41  CB        10.5710   -4.7910   41.7200 C.3   107  ALA107      0.0290
     42  N         16.4420   -5.3340   43.0570 N.3   109  GLU109     -0.1245
     43  CA        17.0100   -6.6190   43.4510 C.3   109  GLU109      0.1567
     44  C         18.4630   -6.7430   42.9960 C.2   109  GLU109      0.2260
     45  O         18.8700   -6.1300   42.0010 O.2   109  GLU109     -0.2867
     46  CB        16.1750   -7.7490   42.8380 C.3   109  GLU109      0.0388
     47  CG        16.2990   -9.1020   43.5160 C.3   109  GLU109      0.1160
     48  CD        15.2960  -10.1060   42.9800 C.2   109  GLU109      0.3649
     49  OE1       15.6810  -11.2700   42.7590 O.co2 109  GLU109     -0.2457
     50  OE2       14.1220   -9.7360   42.7710 O.co2 109  GLU109     -0.2457
     51  N         14.6190   -4.0810   38.4850 N.3   116  VAL116     -0.1231
     52  CA        14.4490   -5.3350   37.7460 C.3   116  VAL116      0.1692
     53  C         13.0320   -5.5000   37.1850 C.2   116  VAL116      0.2592
     54  O         12.7680   -6.4420   36.4310 O.2   116  VAL116     -0.2718
     55  CB        14.8470   -6.5890   38.5910 C.3   116  VAL116      0.0266
     56  CG1       16.3420   -6.5910   38.9000 C.3   116  VAL116      0.0020
     57  CG2       14.0190   -6.6910   39.8790 C.3   116  VAL116      0.0020
     58  N         12.1340   -4.5840   37.5500 N.am  117  HIS117     -0.1976
     59  CA        10.7300   -4.6350   37.1200 C.3   117  HIS117      0.1656
     60  C         10.0750   -3.2580   37.1940 C.2   117  HIS117      0.2291
     61  O         10.2830   -2.5240   38.1580 O.2   117  HIS117     -0.2864
     62  CB         9.9430   -5.6310   37.9860 C.3   117  HIS117      0.0771
     63  CG         8.5000   -5.7610   37.6060 C.ar  117  HIS117      0.0820
     64  ND1        7.4810   -5.2170   38.3580 N.ar  117  HIS117     -0.2267
     65  CD2        7.9070   -6.3750   36.5560 C.ar  117  HIS117      0.1154
     66  CE1        6.3220   -5.4890   37.7860 C.ar  117  HIS117      0.1986
     67  NE2        6.5520   -6.1890   36.6900 N.ar  117  HIS117     -0.2212
     68  N          6.7540   -1.5400   37.8700 N.3   119  ASP119     -0.1239
     69  CA         5.4880   -1.9030   38.5080 C.3   119  ASP119      0.1674
     70  C          4.3240   -1.0080   38.0880 C.2   119  ASP119      0.2266
     71  O          3.2320   -1.5060   37.8000 O.2   119  ASP119     -0.2867
     72  CB         5.6320   -1.9270   40.0360 C.3   119  ASP119      0.1410
     73  CG         4.7250   -2.9590   40.6940 C.2   119  ASP119      0.3668
     74  OD1        4.5720   -4.0710   40.1440 O.co2 119  ASP119     -0.2456
     75  OD2        4.1730   -2.6660   41.7710 O.co2 119  ASP119     -0.2456
@<TRIPOS>BOND
     1     4     3    2
     2     1     2    1
     3     3     2    1
     4     2     5    1
     5    54    53    2
     6    65    67   ar
     7    65    63   ar
     8    67    66   ar
     9    59    60    1
    10    59    58    1
    11    59    62    1
    12    53    58   am
    13    53    52    1
    14    60    61    2
    15    63    62    1
    16    63    64   ar
    17    52    51    1
    18    52    55    1
    19    66    64   ar
    20    71    70    2
    21    68    69    1
    22    70    69    1
    23    69    72    1
    24    55    56    1
    25    55    57    1
    26    72    73    1
    27    74    73   ar
    28    73    75   ar
    29    40    39    2
    30    37    38    1
    31    41    38    1
    32    39    38    1
    33    45    44    2
    34    19    17   am
    35    49    48   ar
    36    50    48   ar
    37    16    17    1
    38    16    13    1
    39    46    43    1
    40    46    47    1
    41    48    47    1
    42    44    43    1
    43    42    43    1
    44    17    18    2
    45    12    13    1
    46    13    14    1
    47    28    26   am
    48    10    11    1
    49    10     7    1
    50    27    26    2
    51     8     7    1
    52     8     9    2
    53    36    34   am
    54    26    25    1
    55     7     6    1
    56    14    15    2
    57    32    31    2
    58    34    35    2
    59    34    33    1
    60    25    24    1
    61    31    30    1
    62    24    21    1
    63    33    30    1
    64    20    21    1
    65    30    29    1
    66    21    22    1
    67    23    22    2
