@<TRIPOS>MOLECULE
tmp/2xoiA00.pdb
 157 152 0 0 0
SMALL
GASTEIGER

@<TRIPOS>ATOM
      1  N         31.1510    4.9220    8.0560 N.3    11  HIS11      -0.1241
      2  CA        30.4080    3.7270    8.4700 C.3    11  HIS11       0.1621
      3  C         28.9300    3.6340    8.0860 C.2    11  HIS11       0.2264
      4  O         28.3280    2.5730    8.2470 O.2    11  HIS11      -0.2867
      5  CB        30.5750    3.4970    9.9780 C.3    11  HIS11       0.0745
      6  CG        31.9770    3.1730   10.3780 C.ar   11  HIS11       0.0817
      7  ND1       32.7310    3.9930   11.1890 N.ar   11  HIS11      -0.2268
      8  CD2       32.7710    2.1260   10.0590 C.ar   11  HIS11       0.1154
      9  CE1       33.9260    3.4570   11.3610 C.ar   11  HIS11       0.1986
     10  NE2       33.9770    2.3250   10.6830 N.ar   11  HIS11      -0.2212
     11  N         43.0950    1.4460    4.1740 N.3    40  LYS40      -0.1231
     12  CA        42.5320    1.0470    5.4590 C.3    40  LYS40       0.1678
     13  C         42.2610   -0.4600    5.4100 C.2    40  LYS40       0.2434
     14  O         41.5040   -0.9170    4.5520 O.2    40  LYS40      -0.2733
     15  CB        41.2530    1.8370    5.7660 C.3    40  LYS40       0.0284
     16  CG        40.7100    1.6190    7.1700 C.3    40  LYS40       0.0035
     17  CD        39.5050    2.5060    7.4630 C.3    40  LYS40       0.0206
     18  CE        38.8900    2.1600    8.8160 C.3    40  LYS40       0.1093
     19  NZ        37.7150    3.0140    9.1610 N.3    40  LYS40      -0.1314
     20  N         42.9020   -1.2330    6.3120 N.am   41  PRO41      -0.2718
     21  CA        42.8530   -2.7000    6.3280 C.3    41  PRO41       0.1535
     22  C         41.4390   -3.2880    6.3830 C.2    41  PRO41       0.2598
     23  O         41.1030   -4.1540    5.5710 O.2    41  PRO41      -0.2715
     24  CB        43.6320   -3.0600    7.5970 C.3    41  PRO41       0.0310
     25  CG        44.5550   -1.9230    7.7980 C.3    41  PRO41       0.0237
     26  CD        43.7880   -0.7130    7.3700 C.3    41  PRO41       0.0939
     27  N         40.6300   -2.8250    7.3330 N.am   42  VAL42      -0.1964
     28  CA        39.2490   -3.2980    7.4870 C.3    42  VAL42       0.1727
     29  C         38.2900   -2.1310    7.7090 C.2    42  VAL42       0.2616
     30  O         38.6690   -1.1120    8.2880 O.2    42  VAL42      -0.2715
     31  CB        39.0840   -4.3270    8.6490 C.3    42  VAL42       0.0290
     32  CG1       39.7980   -5.6460    8.3340 C.3    42  VAL42       0.0023
     33  CG2       39.5590   -3.7530    9.9850 C.3    42  VAL42       0.0023
     34  N         37.0540   -2.2880    7.2370 N.am   43  ASN43      -0.1958
     35  CA        35.9910   -1.3050    7.4710 C.3    43  ASN43       0.1819
     36  C         34.6140   -1.9490    7.3640 C.2    43  ASN43       0.2621
     37  O         34.4360   -2.9270    6.6390 O.2    43  ASN43      -0.2715
     38  CB        36.0970   -0.1240    6.4990 C.3    43  ASN43       0.1195
     39  CG        35.2940    1.0860    6.9550 C.2    43  ASN43       0.2630
     40  OD1       35.5760    1.6710    8.0030 O.2    43  ASN43      -0.2716
     41  ND2       34.2940    1.4710    6.1660 N.am   43  ASN43      -0.0877
     42  N         33.6460   -1.4010    8.0940 N.am   44  THR44      -0.1951
     43  CA        32.2770   -1.9040    8.0520 C.3    44  THR44       0.1897
     44  C         31.3080   -0.7720    7.7060 C.2    44  THR44       0.2313
     45  O         31.4070    0.3240    8.2540 O.2    44  THR44      -0.2863
     46  CB        31.8750   -2.5720    9.3940 C.3    44  THR44       0.1794
     47  OG1       32.8200   -3.6020    9.7200 O.3    44  THR44      -0.2208
     48  CG2       30.4830   -3.1920    9.3040 C.3    44  THR44       0.0378
     49  N         34.0260   -1.6230   25.7360 N.3    64  CYS64      -0.1221
     50  CA        34.7340   -1.3520   24.4860 C.3    64  CYS64       0.1808
     51  C         36.0040   -2.1820   24.4250 C.2    64  CYS64       0.2601
     52  O         36.5770   -2.5120   25.4620 O.2    64  CYS64      -0.2717
     53  CB        35.1340    0.1210   24.3860 C.3    64  CYS64       0.0970
     54  SG        33.7930    1.3050   24.4980 S.3    64  CYS64      -0.0800
     55  N         36.4530   -2.4890   23.2100 N.am   65  LYS65      -0.1965
     56  CA        37.6870   -3.2480   23.0000 C.3    65  LYS65       0.1728
     57  C         38.8910   -2.5980   23.6870 C.2    65  LYS65       0.2616
     58  O         39.7910   -3.3000   24.1550 O.2    65  LYS65      -0.2715
     59  CB        37.9570   -3.4500   21.5030 C.3    65  LYS65       0.0311
     60  CG        37.2020   -4.6210   20.8860 C.3    65  LYS65       0.0038
     61  CD        37.2840   -4.6010   19.3640 C.3    65  LYS65       0.0206
     62  CE        36.5620   -5.7980   18.7560 C.3    65  LYS65       0.1093
     63  NZ        36.5260   -5.7320   17.2650 N.3    65  LYS65      -0.1314
     64  N         38.8850   -1.2650   23.7640 N.am   66  ASN66      -0.1972
     65  CA        39.9720   -0.5040   24.3970 C.3    66  ASN66       0.1688
     66  C         39.8410   -0.3200   25.9150 C.2    66  ASN66       0.2292
     67  O         40.6840    0.3290   26.5410 O.2    66  ASN66      -0.2864
     68  CB        40.1730    0.8560   23.6990 C.3    66  ASN66       0.1181
     69  CG        39.1580    1.9140   24.1320 C.2    66  ASN66       0.2629
     70  OD1       38.1010    1.6110   24.6910 O.2    66  ASN66      -0.2716
     71  ND2       39.4870    3.1760   23.8660 N.am   66  ASN66      -0.0877
     72  N         37.3460    1.2540   27.5840 N.3    68  GLN68      -0.1245
     73  CA        36.4080    2.3140   27.9570 C.3    68  GLN68       0.1566
     74  C         34.9970    1.7420   28.1150 C.2    68  GLN68       0.2260
     75  O         34.7130    0.6470   27.6310 O.2    68  GLN68      -0.2867
     76  CB        36.4170    3.4470   26.9280 C.3    68  GLN68       0.0367
     77  CG        37.6270    4.3660   27.0280 C.3    68  GLN68       0.0905
     78  CD        37.4820    5.6010   26.1600 C.2    68  GLN68       0.2608
     79  OE1       36.6980    6.5020   26.4630 O.2    68  GLN68      -0.2717
     80  NE2       38.2380    5.6470   25.0750 N.am   68  GLN68      -0.0878
     81  N         32.0070    3.3100   27.2090 N.3    70  ASN70      -0.1240
     82  CA        31.0120    4.0410   26.4150 C.3    70  ASN70       0.1653
     83  C         30.5790    3.3240   25.1310 C.2    70  ASN70       0.2266
     84  O         30.2730    3.9680   24.1230 O.2    70  ASN70      -0.2867
     85  CB        31.4930    5.4710   26.1060 C.3    70  ASN70       0.1155
     86  CG        32.7520    5.5020   25.2500 C.2    70  ASN70       0.2627
     87  OD1       33.6890    4.7380   25.4750 O.2    70  ASN70      -0.2716
     88  ND2       32.7770    6.3970   24.2640 N.am   70  ASN70      -0.0877
     89  N         31.0200   -5.9230    5.3810 N.3    82  ASP82      -0.1239
     90  CA        32.4220   -5.8770    5.7930 C.3    82  ASP82       0.1674
     91  C         33.3550   -5.7580    4.5890 C.2    82  ASP82       0.2266
     92  O         33.1630   -6.4270    3.5710 O.2    82  ASP82      -0.2867
     93  CB        32.7870   -7.1210    6.6070 C.3    82  ASP82       0.1410
     94  CG        32.1350   -7.1390    7.9760 C.2    82  ASP82       0.3668
     95  OD1       32.2440   -6.1340    8.7120 O.co2  82  ASP82      -0.2456
     96  OD2       31.5250   -8.1720    8.3240 O.co2  82  ASP82      -0.2456
     97  N         30.8090    3.0540   19.8710 N.3   108  ALA108     -0.1245
     98  CA        31.1220    3.9600   20.9750 C.3   108  ALA108      0.1562
     99  C         30.4190    5.2970   20.7590 C.2   108  ALA108      0.2260
    100  O         30.4020    5.8160   19.6430 O.2   108  ALA108     -0.2867
    101  CB        32.6230    4.1680   21.0890 C.3   108  ALA108      0.0290
    102  N         29.6420    9.4360   22.1580 N.3   110  GLU110     -0.1245
    103  CA        30.1860   10.6050   22.8580 C.3   110  GLU110      0.1567
    104  C         29.3550   11.8460   22.5420 C.2   110  GLU110      0.2260
    105  O         28.6400   11.8850   21.5360 O.2   110  GLU110     -0.2867
    106  CB        31.6310   10.8840   22.4190 C.3   110  GLU110      0.0388
    107  CG        32.6960    9.9240   22.9550 C.3   110  GLU110      0.1160
    108  CD        34.1090   10.3090   22.5290 C.2   110  GLU110      0.3649
    109  OE1       35.0700    9.7290   23.0670 O.co2 110  GLU110     -0.2457
    110  OE2       34.2680   11.1880   21.6610 O.co2 110  GLU110     -0.2457
    111  N         30.4700    7.6980   17.4930 N.3   117  VAL117     -0.1231
    112  CA        31.7220    8.2970   17.0060 C.3   117  VAL117      0.1692
    113  C         32.7630    7.2510   16.5760 C.2   117  VAL117      0.2592
    114  O         33.7990    7.5990   16.0050 O.2   117  VAL117     -0.2718
    115  CB        32.3510    9.2830   18.0400 C.3   117  VAL117      0.0266
    116  CG1       31.4370   10.4810   18.2720 C.3   117  VAL117      0.0020
    117  CG2       32.6640    8.5810   19.3580 C.3   117  VAL117      0.0020
    118  N         32.4810    5.9760   16.8460 N.am  118  HIS118     -0.1962
    119  CA        33.4280    4.8930   16.5760 C.3   118  HIS118      0.1787
    120  C         32.6840    3.5790   16.3770 C.2   118  HIS118      0.2620
    121  O         31.7640    3.2650   17.1350 O.2   118  HIS118     -0.2715
    122  CB        34.4250    4.7740   17.7350 C.3   118  HIS118      0.0785
    123  CG        35.2900    3.5520   17.6840 C.ar  118  HIS118      0.0821
    124  ND1       35.1310    2.4910   18.5500 N.ar  118  HIS118     -0.2267
    125  CD2       36.3330    3.2290   16.8840 C.ar  118  HIS118      0.1154
    126  CE1       36.0360    1.5670   18.2830 C.ar  118  HIS118      0.1986
    127  NE2       36.7770    1.9890   17.2750 N.ar  118  HIS118     -0.2212
    128  N         33.0740    2.8230   15.3520 N.am  119  PHE119     -0.1960
    129  CA        32.5310    1.4800   15.1460 C.3   119  PHE119      0.1771
    130  C         33.4750    0.4720   15.7850 C.2   119  PHE119      0.2620
    131  O         34.6200    0.3330   15.3490 O.2   119  PHE119     -0.2715
    132  CB        32.3470    1.1720   13.6550 C.3   119  PHE119      0.0574
    133  CG        31.5550   -0.0830   13.3890 C.ar  119  PHE119     -0.0200
    134  CD1       30.1870   -0.0150   13.1500 C.ar  119  PHE119     -0.0042
    135  CD2       32.1750   -1.3320   13.3880 C.ar  119  PHE119     -0.0042
    136  CE1       29.4430   -1.1700   12.9130 C.ar  119  PHE119     -0.0003
    137  CE2       31.4390   -2.4940   13.1510 C.ar  119  PHE119     -0.0003
    138  CZ        30.0720   -2.4120   12.9150 C.ar  119  PHE119     -0.0000
    139  N         32.9980   -0.2270   16.8160 N.am  120  ASP120     -0.1957
    140  CA        33.8710   -1.1000   17.6130 C.3   120  ASP120      0.1840
    141  C         33.9380   -2.5480   17.1260 C.2   120  ASP120      0.2622
    142  O         35.0260   -3.1210   17.0440 O.2   120  ASP120     -0.2715
    143  CB        33.4900   -1.0610   19.1000 C.3   120  ASP120      0.1450
    144  CG        34.6760   -1.3510   20.0190 C.2   120  ASP120      0.3671
    145  OD1       35.7640   -0.7870   19.7820 O.co2 120  ASP120     -0.2456
    146  OD2       34.5160   -2.1250   20.9870 O.co2 120  ASP120     -0.2456
    147  N         32.7810   -3.1370   16.8250 N.am  121  ALA121     -0.1963
    148  CA        32.6930   -4.5540   16.4630 C.3   121  ALA121      0.1728
    149  C         31.3230   -4.9200   15.9000 C.2   121  ALA121      0.2616
    150  O         30.3590   -4.1730   16.0510 O.2   121  ALA121     -0.2715
    151  CB        32.9940   -5.4310   17.6880 C.3   121  ALA121      0.0334
    152  N         31.2550   -6.0740   15.2410 N.am  122  SER122     -0.1950
    153  CA        29.9800   -6.7190   14.9460 C.3   122  SER122      0.1924
    154  C         30.0200   -8.1110   15.5640 C.2   122  SER122      0.2314
    155  O         31.0810   -8.7380   15.6100 O.2   122  SER122     -0.2863
    156  CB        29.7160   -6.7830   13.4400 C.3   122  SER122      0.2116
    157  OG        30.6290   -7.6430   12.7850 O.3   122  SER122     -0.2180
@<TRIPOS>BOND
     1    92    91    2
     2    11    12    1
     3    14    13    2
     4    91    90    1
     5    89    90    1
     6    13    12    1
     7    13    20   am
     8    12    15    1
     9    23    22    2
    10    15    16    1
    11    90    93    1
    12    41    39   am
    13    20    21    1
    14    20    26    1
    15    21    22    1
    16    21    24    1
    17    22    27   am
    18    38    39    1
    19    38    35    1
    20    93    94    1
    21    37    36    2
    22    39    40    2
    23    16    17    1
    24    34    35    1
    25    34    29   am
    26    27    28    1
    27    36    35    1
    28    36    42   am
    29    26    25    1
    30    17    18    1
    31    28    29    1
    32    28    31    1
    33    24    25    1
    34    44    43    1
    35    44    45    2
    36    29    30    2
    37    94    96   ar
    38    94    95   ar
    39    43    42    1
    40    43    46    1
    41     1     2    1
    42     3     4    2
    43     3     2    1
    44    32    31    1
    45     2     5    1
    46    31    33    1
    47    18    19    1
    48    48    46    1
    49    46    47    1
    50     5     6    1
    51     8     6   ar
    52     8    10   ar
    53     6     7   ar
    54    10     9   ar
    55     7     9   ar
    56   157   156    1
    57   136   138   ar
    58   136   134   ar
    59   138   137   ar
    60   134   133   ar
    61   137   135   ar
    62   135   133   ar
    63   133   132    1
    64   156   153    1
    65   132   129    1
    66   153   152    1
    67   153   154    1
    68   129   128    1
    69   129   130    1
    70   152   149   am
    71   131   130    2
    72   128   120   am
    73   154   155    2
    74   130   139   am
    75   149   150    2
    76   149   148    1
    77   114   113    2
    78   120   119    1
    79   120   121    2
    80   148   147    1
    81   148   151    1
    82   113   118   am
    83   113   112    1
    84   119   118    1
    85   119   122    1
    86   139   140    1
    87   147   141   am
    88   125   127   ar
    89   125   123   ar
    90   112   111    1
    91   112   115    1
    92   142   141    2
    93   141   140    1
    94    63    62    1
    95   127   126   ar
    96   140   143    1
    97   123   122    1
    98   123   124   ar
    99   115   116    1
   100   115   117    1
   101   126   124   ar
   102    62    61    1
   103   143   144    1
   104    61    60    1
   105   100    99    2
   106   145   144   ar
   107    97    98    1
   108   144   146   ar
   109    99    98    1
   110    60    59    1
   111    98   101    1
   112    59    56    1
   113   105   104    2
   114   110   108   ar
   115   102   103    1
   116   106   103    1
   117   106   107    1
   118   108   107    1
   119   108   109   ar
   120   104   103    1
   121    56    55    1
   122    56    57    1
   123    55    51   am
   124    57    64   am
   125    57    58    2
   126    68    69    1
   127    68    65    1
   128    64    65    1
   129    71    69   am
   130    84    83    2
   131    69    70    2
   132    88    86   am
   133    53    50    1
   134    53    54    1
   135    65    66    1
   136    51    50    1
   137    51    52    2
   138    50    49    1
   139    80    78   am
   140    83    82    1
   141    86    87    2
   142    86    85    1
   143    66    67    2
   144    85    82    1
   145    78    79    2
   146    78    77    1
   147    82    81    1
   148    76    77    1
   149    76    73    1
   150    72    73    1
   151    75    74    2
   152    73    74    1
