@<TRIPOS>MOLECULE
tmp/2xokF01.pdb
 188 184 0 0 0
SMALL
GASTEIGER

@<TRIPOS>ATOM
      1  N         39.8130   20.7640  -18.1220 N.3   152  GLY152     -0.1210
      2  CA        39.5320   19.9760  -19.3090 C.3   152  GLY152      0.1956
      3  C         38.5500   20.6780  -20.2410 C.2   152  GLY152      0.2612
      4  O         38.2120   21.8600  -20.0690 O.2   152  GLY152     -0.2717
      5  N         38.0800   19.9110  -21.2200 N.am  153  ALA153     -0.1965
      6  CA        37.4650   20.4480  -22.4140 C.3   153  ALA153      0.1728
      7  C         36.1090   20.9210  -22.0650 C.2   153  ALA153      0.2617
      8  O         35.3510   20.2190  -21.4100 O.2   153  ALA153     -0.2715
      9  CB        37.3670   19.3930  -23.4700 C.3   153  ALA153      0.0334
     10  N         35.8130   22.1340  -22.4960 N.am  154  GLY154     -0.1940
     11  CA        34.5190   22.7020  -22.2650 C.3   154  GLY154      0.2014
     12  C         34.1260   22.8960  -20.8180 C.2   154  GLY154      0.2639
     13  O         32.9530   22.7810  -20.4750 O.2   154  GLY154     -0.2714
     14  N         35.0690   23.2090  -19.9460 N.am  155  VAL155     -0.1963
     15  CA        34.6540   23.5300  -18.5740 C.3   155  VAL155      0.1727
     16  C         34.5180   25.0220  -18.4720 C.2   155  VAL155      0.2617
     17  O         33.6970   25.5360  -17.7070 O.2   155  VAL155     -0.2715
     18  CB        35.5870   22.9420  -17.4910 C.3   155  VAL155      0.0290
     19  CG1       35.2110   21.4870  -17.2570 C.3   155  VAL155      0.0023
     20  CG2       37.0450   23.0830  -17.9050 C.3   155  VAL155      0.0023
     21  N         35.3400   25.7080  -19.2570 N.am  156  GLY156     -0.1940
     22  CA        35.2100   27.1220  -19.4000 C.3   156  GLY156      0.2014
     23  C         36.4470   27.9060  -19.0990 C.2   156  GLY156      0.2639
     24  O         36.4060   28.8030  -18.2550 O.2   156  GLY156     -0.2714
     25  N         37.5500   27.6280  -19.7740 N.am  157  LYS157     -0.1963
     26  CA        38.7390   28.3760  -19.3810 C.3   157  LYS157      0.1728
     27  C         38.6780   29.6340  -20.1840 C.2   157  LYS157      0.2617
     28  O         38.9100   30.7340  -19.6480 O.2   157  LYS157     -0.2715
     29  CB        40.0840   27.6140  -19.5450 C.3   157  LYS157      0.0311
     30  CG        40.0310   26.1510  -19.2130 C.3   157  LYS157      0.0038
     31  CD        40.9530   25.4490  -20.1490 C.3   157  LYS157      0.0206
     32  CE        40.4810   25.3630  -21.6000 C.3   157  LYS157      0.1093
     33  NZ        40.0830   23.9850  -21.9180 N.3   157  LYS157     -0.1314
     34  N         38.3160   29.4540  -21.4570 N.am  158  THR158     -0.1937
     35  CA        38.1480   30.5730  -22.3970 C.3   158  THR158      0.2028
     36  C         37.0980   31.5930  -21.8930 C.2   158  THR158      0.2642
     37  O         37.4310   32.7640  -21.7340 O.2   158  THR158     -0.2714
     38  CB        37.8690   30.0880  -23.8420 C.3   158  THR158      0.1808
     39  OG1       38.8540   29.1010  -24.2240 O.3   158  THR158     -0.2208
     40  CG2       37.9170   31.2670  -24.8160 C.3   158  THR158      0.0379
     41  N         35.8760   31.1580  -21.5770 N.am  159  VAL159     -0.1963
     42  CA        34.8880   32.1150  -21.0720 C.3   159  VAL159      0.1727
     43  C         35.3440   32.7880  -19.7700 C.2   159  VAL159      0.2616
     44  O         35.2380   34.0020  -19.6430 O.2   159  VAL159     -0.2715
     45  CB        33.4080   31.5710  -21.0370 C.3   159  VAL159      0.0290
     46  CG1       32.5820   32.2090  -19.9220 C.3   159  VAL159      0.0023
     47  CG2       32.7100   31.8220  -22.3780 C.3   159  VAL159      0.0023
     48  N         35.8790   32.0180  -18.8310 N.am  160  PHE160     -0.1974
     49  CA        36.4770   32.6160  -17.6350 C.3   160  PHE160      0.1639
     50  C         37.4940   33.7300  -17.9360 C.2   160  PHE160      0.2290
     51  O         37.4620   34.7760  -17.3000 O.2   160  PHE160     -0.2864
     52  CB        37.1390   31.5440  -16.7670 C.3   160  PHE160      0.0560
     53  CG        37.3970   31.9860  -15.3650 C.ar  160  PHE160     -0.0200
     54  CD1       38.5760   32.6470  -15.0390 C.ar  160  PHE160     -0.0042
     55  CD2       36.4500   31.7490  -14.3650 C.ar  160  PHE160     -0.0042
     56  CE1       38.8200   33.0710  -13.7340 C.ar  160  PHE160     -0.0003
     57  CE2       36.6720   32.1610  -13.0550 C.ar  160  PHE160     -0.0003
     58  CZ        37.8670   32.8290  -12.7320 C.ar  160  PHE160     -0.0000
     59  N         44.0320   27.4460  -30.3030 N.3   183  GLU183     -0.1231
     60  CA        42.5870   27.5180  -30.0620 C.3   183  GLU183      0.1699
     61  C         41.8390   27.6640  -31.3600 C.2   183  GLU183      0.2592
     62  O         42.4360   27.5310  -32.4240 O.2   183  GLU183     -0.2718
     63  CB        42.2070   28.6230  -29.0680 C.3   183  GLU183      0.0402
     64  CG        42.3450   28.1680  -27.5880 C.3   183  GLU183      0.1161
     65  CD        41.3640   27.0420  -27.1680 C.2   183  GLU183      0.3649
     66  OE1       40.1380   27.3230  -27.0780 O.co2 183  GLU183     -0.2457
     67  OE2       41.8250   25.8960  -26.9030 O.co2 183  GLU183     -0.2457
     68  N         40.5330   27.9090  -31.2730 N.am  184  ARG184     -0.1980
     69  CA        39.6890   28.0600  -32.4720 C.3   184  ARG184      0.1597
     70  C         39.8760   29.4020  -33.1600 C.2   184  ARG184      0.2287
     71  O         39.9110   30.4510  -32.5090 O.2   184  ARG184     -0.2864
     72  CB        38.2150   27.9170  -32.1260 C.3   184  ARG184      0.0334
     73  CG        37.9350   26.7940  -31.2010 C.3   184  ARG184      0.0492
     74  CD        36.5420   26.9130  -30.6780 C.3   184  ARG184      0.2205
     75  NE        36.2010   25.6750  -30.0170 N.pl3 184  ARG184     -0.0865
     76  CZ        36.7260   25.2890  -28.8640 C.cat 184  ARG184      0.5346
     77  NH1       37.6020   26.0770  -28.2400 N.pl3 184  ARG184      0.1354
     78  NH2       36.3680   24.1190  -28.3390 N.pl3 184  ARG184      0.1354
     79  N         37.6370   30.7420  -35.1180 N.3   186  ARG186     -0.1231
     80  CA        36.3800   31.3530  -34.6830 C.3   186  ARG186      0.1694
     81  C         36.5890   32.2620  -33.4630 C.2   186  ARG186      0.2591
     82  O         36.3100   33.4510  -33.5280 O.2   186  ARG186     -0.2718
     83  CB        35.3210   30.2840  -34.3810 C.3   186  ARG186      0.0321
     84  CG        34.1920   30.7790  -33.4850 C.3   186  ARG186      0.0489
     85  CD        33.1320   29.7280  -33.1430 C.3   186  ARG186      0.2205
     86  NE        33.4640   28.8960  -31.9810 N.pl3 186  ARG186     -0.0865
     87  CZ        33.7060   29.3380  -30.7400 C.cat 186  ARG186      0.5346
     88  NH1       33.6790   30.6490  -30.4640 N.pl3 186  ARG186      0.1354
     89  NH2       33.9840   28.4580  -29.7660 N.pl3 186  ARG186      0.1354
     90  N         37.0850   31.6990  -32.3640 N.am  187  GLU187     -0.1979
     91  CA        37.3570   32.4530  -31.1340 C.3   187  GLU187      0.1602
     92  C         38.2380   33.6940  -31.3660 C.2   187  GLU187      0.2287
     93  O         37.9730   34.7710  -30.8200 O.2   187  GLU187     -0.2864
     94  CB        38.0190   31.5480  -30.0810 C.3   187  GLU187      0.0415
     95  CG        37.0780   30.5780  -29.3620 C.3   187  GLU187      0.1163
     96  CD        37.7530   29.8080  -28.2130 C.2   187  GLU187      0.3649
     97  OE1       39.0020   29.6500  -28.2150 O.co2 187  GLU187     -0.2457
     98  OE2       37.0240   29.3380  -27.3090 O.co2 187  GLU187     -0.2457
     99  N         48.8270   23.9540  -25.4880 N.3   254  ARG254     -0.1245
    100  CA        49.0060   23.6940  -26.9030 C.3   254  ARG254      0.1563
    101  C         50.4380   23.8930  -27.4080 C.2   254  ARG254      0.2260
    102  O         50.7500   23.5490  -28.5460 O.2   254  ARG254     -0.2867
    103  CB        48.0550   24.6080  -27.6690 C.3   254  ARG254      0.0307
    104  CG        46.6040   24.3940  -27.3160 C.3   254  ARG254      0.0489
    105  CD        46.1940   22.9720  -27.6330 C.3   254  ARG254      0.2205
    106  NE        44.7830   22.7300  -27.3460 N.pl3 254  ARG254     -0.0865
    107  CZ        44.2460   21.5160  -27.2500 C.cat 254  ARG254      0.5346
    108  NH1       45.0080   20.4350  -27.4260 N.pl3 254  ARG254      0.1354
    109  NH2       42.9480   21.3800  -26.9800 N.pl3 254  ARG254      0.1354
    110  N         44.9940   23.8860  -20.4480 N.3   305  TYR305     -0.1241
    111  CA        44.2760   22.6880  -20.7580 C.3   305  TYR305      0.1605
    112  C         44.8400   21.4660  -19.9920 C.2   305  TYR305      0.2264
    113  O         46.0250   21.3880  -19.6750 O.2   305  TYR305     -0.2867
    114  CB        44.3130   22.4660  -22.2600 C.3   305  TYR305      0.0534
    115  CG        43.5430   21.2760  -22.6840 C.ar  305  TYR305     -0.0201
    116  CD1       42.1560   21.2360  -22.5460 C.ar  305  TYR305     -0.0009
    117  CD2       44.1910   20.1730  -23.1940 C.ar  305  TYR305     -0.0009
    118  CE1       41.4340   20.1200  -22.9250 C.ar  305  TYR305      0.0417
    119  CE2       43.4860   19.0590  -23.5810 C.ar  305  TYR305      0.0417
    120  CZ        42.1060   19.0340  -23.4460 C.ar  305  TYR305      0.1957
    121  OH        41.4210   17.9030  -23.8260 O.3   305  TYR305     -0.2866
    122  N         28.7820   27.7530  -12.1960 N.3   339  TYR339     -0.1228
    123  CA        29.7200   28.5280  -13.0050 C.3   339  TYR339      0.1721
    124  C         30.0150   29.8310  -12.2830 C.2   339  TYR339      0.2437
    125  O         29.0920   30.4890  -11.8030 O.2   339  TYR339     -0.2733
    126  CB        29.1320   28.8520  -14.3770 C.3   339  TYR339      0.0547
    127  CG        28.9160   27.6640  -15.2660 C.ar  339  TYR339     -0.0200
    128  CD1       29.9200   27.2310  -16.1140 C.ar  339  TYR339     -0.0009
    129  CD2       27.7050   26.9740  -15.2660 C.ar  339  TYR339     -0.0009
    130  CE1       29.7410   26.1320  -16.9500 C.ar  339  TYR339      0.0417
    131  CE2       27.5070   25.8680  -16.0920 C.ar  339  TYR339      0.0417
    132  CZ        28.5380   25.4530  -16.9390 C.ar  339  TYR339      0.1957
    133  OH        28.3850   24.3640  -17.7710 O.3   339  TYR339     -0.2866
    134  N         31.2940   30.2200  -12.2070 N.am  340  PRO340     -0.2718
    135  CA        32.3910   29.5150  -12.8310 C.3   340  PRO340      0.1535
    136  C         32.5460   28.1850  -12.1220 C.2   340  PRO340      0.2598
    137  O         32.3450   28.1110  -10.9040 O.2   340  PRO340     -0.2715
    138  CB        33.5900   30.4160  -12.5470 C.3   340  PRO340      0.0310
    139  CG        33.2090   31.1450  -11.2950 C.3   340  PRO340      0.0237
    140  CD        31.7520   31.3840  -11.4290 C.3   340  PRO340      0.0939
    141  N         32.8780   27.1440  -12.8800 N.am  341  ALA341     -0.1978
    142  CA        32.9460   25.7920  -12.3350 C.3   341  ALA341      0.1597
    143  C         34.2580   25.5080  -11.5850 C.2   341  ALA341      0.2287
    144  O         34.8640   24.4490  -11.7740 O.2   341  ALA341     -0.2864
    145  CB        32.6990   24.7580  -13.4480 C.3   341  ALA341      0.0319
    146  N         28.4540   32.4670   -9.8750 N.3   410  GLN410     -0.1245
    147  CA        28.2380   33.8830  -10.1680 C.3   410  GLN410      0.1566
    148  C         27.8800   34.0910  -11.6360 C.2   410  GLN410      0.2260
    149  O         28.5470   33.5760  -12.5100 O.2   410  GLN410     -0.2867
    150  CB        29.5090   34.6550   -9.8170 C.3   410  GLN410      0.0367
    151  CG        29.4730   36.1270  -10.1170 C.3   410  GLN410      0.0905
    152  CD        30.7230   36.8620   -9.6420 C.2   410  GLN410      0.2608
    153  OE1       31.6360   36.2700   -9.0540 O.2   410  GLN410     -0.2717
    154  NE2       30.7590   38.1740   -9.8910 N.am  410  GLN410     -0.0878
    155  N         28.1230   35.6580  -15.1030 N.3   412  PHE412     -0.1241
    156  CA        29.1260   36.4180  -15.8250 C.3   412  PHE412      0.1605
    157  C         28.4580   37.1480  -16.9900 C.2   412  PHE412      0.2264
    158  O         27.6400   36.5590  -17.7170 O.2   412  PHE412     -0.2867
    159  CB        30.2250   35.4830  -16.3500 C.3   412  PHE412      0.0534
    160  CG        31.2560   35.0950  -15.3210 C.ar  412  PHE412     -0.0203
    161  CD1       31.3520   35.7700  -14.1010 C.ar  412  PHE412     -0.0042
    162  CD2       32.1740   34.0770  -15.6000 C.ar  412  PHE412     -0.0042
    163  CE1       32.3240   35.4110  -13.1640 C.ar  412  PHE412     -0.0003
    164  CE2       33.1600   33.7220  -14.6770 C.ar  412  PHE412     -0.0003
    165  CZ        33.2290   34.3840  -13.4560 C.ar  412  PHE412     -0.0000
    166  N         29.1220   35.5680  -20.3450 N.3   415  ALA415     -0.1245
    167  CA        28.4880   34.2600  -20.4790 C.3   415  ALA415      0.1562
    168  C         26.9790   34.3930  -20.4900 C.2   415  ALA415      0.2260
    169  O         26.2680   33.4060  -20.3160 O.2   415  ALA415     -0.2867
    170  CB        28.9340   33.3360  -19.3290 C.3   415  ALA415      0.0290
    171  N         24.1110   32.1900  -22.0310 N.3   418  PHE418     -0.1227
    172  CA        24.1630   30.8220  -21.4890 C.3   418  PHE418      0.1736
    173  C         23.3860   30.7150  -20.1810 C.2   418  PHE418      0.2596
    174  O         22.8430   29.6570  -19.8510 O.2   418  PHE418     -0.2718
    175  CB        25.6100   30.3500  -21.2630 C.3   418  PHE418      0.0547
    176  CG        26.4280   30.2700  -22.5170 C.ar  418  PHE418     -0.0202
    177  CD1       26.3370   29.1570  -23.3530 C.ar  418  PHE418     -0.0042
    178  CD2       27.2880   31.3150  -22.8680 C.ar  418  PHE418     -0.0042
    179  CE1       27.0950   29.0800  -24.5230 C.ar  418  PHE418     -0.0003
    180  CE2       28.0530   31.2520  -24.0310 C.ar  418  PHE418     -0.0003
    181  CZ        27.9560   30.1310  -24.8610 C.ar  418  PHE418     -0.0000
    182  N         23.3700   31.8030  -19.4220 N.am  419  THR419     -0.1953
    183  CA        22.5280   31.8890  -18.2490 C.3   419  THR419      0.1897
    184  C         21.2160   32.4920  -18.7120 C.2   419  THR419      0.2313
    185  O         20.1480   31.8960  -18.5600 O.2   419  THR419     -0.2863
    186  CB        23.1700   32.7650  -17.1320 C.3   419  THR419      0.1794
    187  OG1       23.8470   33.8950  -17.7150 O.3   419  THR419     -0.2208
    188  CG2       24.1580   31.9540  -16.3100 C.3   419  THR419      0.0378
@<TRIPOS>BOND
     1    79    80    1
     2    80    83    1
     3    80    81    1
     4    83    84    1
     5    82    81    2
     6    84    85    1
     7    81    90   am
     8    70    71    2
     9    70    69    1
    10    85    86    1
    11    69    72    1
    12    69    68    1
    13    62    61    2
    14    90    91    1
    15    72    73    1
    16    86    87    2
    17    92    91    1
    18    92    93    2
    19    61    68   am
    20    61    60    1
    21    73    74    1
    22    91    94    1
    23    87    88    1
    24    87    89    1
    25    74    75    1
    26    59    60    1
    27    94    95    1
    28    60    63    1
    29    75    76    2
    30    95    96    1
    31    63    64    1
    32    76    78    1
    33    76    77    1
    34   102   101    2
    35    97    96   ar
    36    96    98   ar
    37   103   104    1
    38   103   100    1
    39   105   106    1
    40   105   104    1
    41    64    65    1
    42   108   107    1
    43   101   100    1
    44   106   107    2
    45   107   109    1
    46    65    66   ar
    47    65    67   ar
    48   100    99    1
    49   181   179   ar
    50   181   180   ar
    51    40    38    1
    52   179   177   ar
    53    39    38    1
    54   180   178   ar
    55    38    35    1
    56   121   120    1
    57   119   120   ar
    58   119   117   ar
    59     9     6    1
    60   120   118   ar
    61   177   176   ar
    62   117   115   ar
    63   118   116   ar
    64   178   176   ar
    65   115   116   ar
    66   115   114    1
    67   176   175    1
    68    10    11    1
    69    10     7   am
    70     6     7    1
    71     6     5    1
    72    35    36    1
    73    35    34    1
    74    47    45    1
    75    11    12    1
    76   114   111    1
    77     7     8    2
    78   171   172    1
    79    33    32    1
    80    36    37    2
    81    36    41   am
    82    32    31    1
    83    41    42    1
    84   172   175    1
    85   172   173    1
    86    34    27   am
    87     5     3   am
    88    42    45    1
    89    42    43    1
    90    45    46    1
    91    12    13    2
    92    12    14   am
    93   111   110    1
    94   111   112    1
    95   168   167    1
    96   168   169    2
    97   167   166    1
    98   167   170    1
    99     3     4    2
   100     3     2    1
   101    27    28    2
   102    27    26    1
   103   173   174    2
   104   173   182   am
   105    31    30    1
   106   112   113    2
   107    14    15    1
   108    25    26    1
   109    25    23   am
   110    43    44    2
   111    43    48   am
   112    29    26    1
   113    29    30    1
   114   182   183    1
   115    22    21    1
   116    22    23    1
   117     2     1    1
   118    21    16   am
   119    23    24    2
   120    48    49    1
   121   184   185    2
   122   184   183    1
   123    15    16    1
   124    15    18    1
   125    16    17    2
   126   183   186    1
   127    50    49    1
   128    50    51    2
   129    20    18    1
   130   133   132    1
   131   158   157    2
   132   187   186    1
   133    49    52    1
   134    18    19    1
   135   186   188    1
   136   157   156    1
   137   130   132   ar
   138   130   128   ar
   139   132   131   ar
   140    52    53    1
   141   159   156    1
   142   159   160    1
   143   128   127   ar
   144   131   129   ar
   145   156   155    1
   146   162   160   ar
   147   162   164   ar
   148    53    54   ar
   149    53    55   ar
   150   160   161   ar
   151   127   129   ar
   152   127   126    1
   153    54    56   ar
   154   164   165   ar
   155   126   123    1
   156    55    57   ar
   157   161   163   ar
   158    56    58   ar
   159   165   163   ar
   160   145   142    1
   161    57    58   ar
   162   123   124    1
   163   123   122    1
   164   141   142    1
   165   141   136   am
   166   135   138    1
   167   135   134    1
   168   135   136    1
   169   138   139    1
   170   149   148    2
   171   142   143    1
   172   124   134   am
   173   124   125    2
   174   134   140    1
   175   136   137    2
   176   144   143    2
   177   148   147    1
   178   140   139    1
   179   147   146    1
   180   147   150    1
   181   151   150    1
   182   151   152    1
   183   154   152   am
   184   152   153    2
