@<TRIPOS>MOLECULE
tmp/2xonB00.pdb
 97 96 0 0 0
SMALL
GASTEIGER

@<TRIPOS>ATOM
      1  N         19.1410  -36.2030    2.9280 N.3    28  LYS28      -0.1245
      2  CA        18.0520  -37.1310    3.2030 C.3    28  LYS28       0.1561
      3  C         16.8380  -36.3710    3.7360 C.2    28  LYS28       0.2260
      4  O         16.9790  -35.3030    4.3160 O.2    28  LYS28      -0.2867
      5  CB        18.4950  -38.1520    4.2740 C.3    28  LYS28       0.0271
      6  CG        19.5780  -39.0410    3.8970 C.3    28  LYS28       0.0035
      7  CD        20.0280  -39.9470    5.0650 C.3    28  LYS28       0.0206
      8  CE        21.1320  -40.9070    4.6220 C.3    28  LYS28       0.1093
      9  NZ        21.5350  -41.7170    5.8470 N.3    28  LYS28      -0.1314
     10  N         14.8780  -35.8700   15.0350 N.3    33  ASN33      -0.1226
     11  CA        15.1210  -36.2950   16.4320 C.3    33  ASN33       0.1770
     12  C         16.2910  -35.5320   17.0580 C.2    33  ASN33       0.2439
     13  O         17.4730  -35.7810   16.7130 O.2    33  ASN33      -0.2733
     14  CB        15.4110  -37.7710   16.5270 C.3    33  ASN33       0.1168
     15  CG        15.5080  -38.2620   17.9880 C.2    33  ASN33       0.2627
     16  OD1       15.3990  -37.4820   18.9110 O.2    33  ASN33      -0.2716
     17  ND2       15.6070  -39.5340   18.1550 N.am   33  ASN33      -0.0877
     18  N         16.0190  -34.5360   17.8920 N.am   34  PRO34      -0.2729
     19  CA        14.7430  -34.1010   18.3930 C.3    34  PRO34       0.1401
     20  C         13.9250  -33.4660   17.3280 C.2    34  PRO34       0.2269
     21  O         14.4350  -32.9530   16.3340 O.2    34  PRO34      -0.2865
     22  CB        15.0920  -33.1020   19.4980 C.3    34  PRO34       0.0296
     23  CG        16.4560  -32.5490   19.0990 C.3    34  PRO34       0.0237
     24  CD        17.1530  -33.7070   18.4400 C.3    34  PRO34       0.0939
     25  N         14.6500  -30.1530   15.4910 N.3    37  ASN37      -0.1240
     26  CA        15.4290  -29.9640   14.2680 C.3    37  ASN37       0.1653
     27  C         14.5660  -29.5830   13.0550 C.2    37  ASN37       0.2266
     28  O         15.0960  -28.9990   12.1060 O.2    37  ASN37      -0.2867
     29  CB        16.2140  -31.2350   13.9720 C.3    37  ASN37       0.1155
     30  CG        17.4550  -31.3330   14.8390 C.2    37  ASN37       0.2627
     31  OD1       18.0110  -30.2850   15.1780 O.2    37  ASN37      -0.2716
     32  ND2       17.9050  -32.5420   15.1450 N.am   37  ASN37      -0.0877
     33  N         17.6860  -33.2290    6.1090 N.3    46  ASN46      -0.1240
     34  CA        18.9260  -33.1630    6.8670 C.3    46  ASN46       0.1653
     35  C         20.0650  -33.4470    5.8990 C.2    46  ASN46       0.2266
     36  O         20.0250  -34.4320    5.1400 O.2    46  ASN46      -0.2867
     37  CB        18.9080  -34.2560    7.9450 C.3    46  ASN46       0.1155
     38  CG        20.1250  -34.2590    8.9150 C.2    46  ASN46       0.2627
     39  OD1       20.7700  -33.2000    9.2090 O.2    46  ASN46      -0.2716
     40  ND2       20.3470  -35.4530    9.4960 N.am   46  ASN46      -0.0877
     41  N         24.4020  -33.7980    5.5810 N.3    48  TRP48      -0.1241
     42  CA        25.6400  -34.0770    6.2550 C.3    48  TRP48       0.1605
     43  C         26.4680  -34.9750    5.3820 C.2    48  TRP48       0.2264
     44  O         25.9400  -35.8380    4.7100 O.2    48  TRP48      -0.2867
     45  CB        25.3690  -34.8050    7.5290 C.3    48  TRP48       0.0550
     46  CG        26.6040  -35.3810    8.1910 C.ar   48  TRP48       0.0003
     47  CD1       27.5260  -34.7360    8.9340 C.ar   48  TRP48       0.0946
     48  CD2       27.0230  -36.7120    8.0680 C.ar   48  TRP48       0.0152
     49  NE1       28.4820  -35.6010    9.3250 N.ar   48  TRP48      -0.2442
     50  CE2       28.1740  -36.8530    8.8670 C.ar   48  TRP48       0.0810
     51  CE3       26.4620  -37.8600    7.4750 C.ar   48  TRP48       0.0012
     52  CZ2       28.8500  -38.0930    9.0070 C.ar   48  TRP48       0.0191
     53  CZ3       27.1410  -39.1040    7.6400 C.ar   48  TRP48       0.0001
     54  CH2       28.2910  -39.1800    8.4200 C.ar   48  TRP48       0.0015
     55  N         23.6930  -24.9160   15.7140 N.3   103  TRP103     -0.1241
     56  CA        22.4960  -25.7000   15.9250 C.3   103  TRP103      0.1605
     57  C         21.3430  -24.8640   16.4680 C.2   103  TRP103      0.2264
     58  O         21.4810  -24.1260   17.4310 O.2   103  TRP103     -0.2867
     59  CB        22.8260  -26.8100   16.9360 C.3   103  TRP103      0.0550
     60  CG        21.7290  -27.8130   17.1400 C.ar  103  TRP103      0.0003
     61  CD1       20.9030  -28.3600   16.1550 C.ar  103  TRP103      0.0946
     62  CD2       21.3470  -28.4430   18.3720 C.ar  103  TRP103      0.0152
     63  NE1       20.0420  -29.2580   16.7190 N.ar  103  TRP103     -0.2442
     64  CE2       20.3020  -29.3570   18.0800 C.ar  103  TRP103      0.0810
     65  CE3       21.8030  -28.3390   19.7180 C.ar  103  TRP103      0.0012
     66  CZ2       19.6710  -30.0890   19.0540 C.ar  103  TRP103      0.0191
     67  CZ3       21.1930  -29.0800   20.6760 C.ar  103  TRP103      0.0001
     68  CH2       20.1360  -29.9320   20.3770 C.ar  103  TRP103      0.0015
     69  N         32.1370  -32.8620    7.3220 N.3   132  GLY132     -0.1225
     70  CA        31.4950  -32.8520    8.5680 C.3   132  GLY132      0.1811
     71  C         30.4080  -31.8290    8.7910 C.2   132  GLY132      0.2280
     72  O         29.7080  -31.9340    9.7880 O.2   132  GLY132     -0.2866
     73  N         26.8130  -29.9510    8.3450 N.3   134  TRP134     -0.1241
     74  CA        25.5020  -30.5230    8.4400 C.3   134  TRP134      0.1605
     75  C         24.5040  -29.4130    8.6520 C.2   134  TRP134      0.2264
     76  O         24.8350  -28.2670    9.0310 O.2   134  TRP134     -0.2867
     77  CB        25.3880  -31.5640    9.6310 C.3   134  TRP134      0.0550
     78  CG        25.7130  -30.9460   10.9450 C.ar  134  TRP134      0.0003
     79  CD1       26.9660  -30.8570   11.5060 C.ar  134  TRP134      0.0946
     80  CD2       24.8490  -30.1730   11.8180 C.ar  134  TRP134      0.0152
     81  NE1       26.8980  -30.1070   12.6480 N.ar  134  TRP134     -0.2442
     82  CE2       25.6360  -29.6660   12.8700 C.ar  134  TRP134      0.0810
     83  CE3       23.4840  -29.9770   11.8770 C.ar  134  TRP134      0.0012
     84  CZ2       25.0830  -28.9100   13.9190 C.ar  134  TRP134      0.0191
     85  CZ3       22.9400  -29.2250   12.8870 C.ar  134  TRP134      0.0001
     86  CH2       23.7290  -28.6820   13.8700 C.ar  134  TRP134      0.0015
     87  N         19.7830  -28.5840    8.5870 N.3   136  PHE136     -0.1241
     88  CA        18.3690  -28.9660    8.3470 C.3   136  PHE136      0.1605
     89  C         17.7400  -27.8570    7.5220 C.2   136  PHE136      0.2264
     90  O         18.0120  -26.6800    7.7100 O.2   136  PHE136     -0.2867
     91  CB        17.5910  -29.1790    9.6100 C.3   136  PHE136      0.0534
     92  CG        18.0490  -30.3690   10.4420 C.ar  136  PHE136     -0.0203
     93  CD1       19.1380  -30.2560   11.3040 C.ar  136  PHE136     -0.0042
     94  CD2       17.4170  -31.5840   10.2870 C.ar  136  PHE136     -0.0042
     95  CE1       19.5300  -31.3950   11.9950 C.ar  136  PHE136     -0.0003
     96  CE2       17.7880  -32.6810   11.0160 C.ar  136  PHE136     -0.0003
     97  CZ        18.8710  -32.5730   11.8910 C.ar  136  PHE136     -0.0000
@<TRIPOS>BOND
     1     1     2    1
     2     2     3    1
     3     2     5    1
     4     3     4    2
     5     6     5    1
     6     6     7    1
     7     8     7    1
     8     8     9    1
     9    44    43    2
    10    36    35    2
    11    43    42    1
    12    41    42    1
    13    35    34    1
    14    33    34    1
    15    42    45    1
    16    34    37    1
    17    69    70    1
    18    51    53   ar
    19    51    48   ar
    20    89    90    2
    21    89    88    1
    22    45    46    1
    23    53    54   ar
    24    37    38    1
    25    48    46   ar
    26    48    50   ar
    27    46    47   ar
    28    73    74    1
    29    88    87    1
    30    88    91    1
    31    54    52   ar
    32    74    75    1
    33    74    77    1
    34    70    71    1
    35    75    76    2
    36    71    72    2
    37    50    52   ar
    38    50    49   ar
    39    38    39    2
    40    38    40   am
    41    47    49   ar
    42    91    92    1
    43    77    78    1
    44    94    92   ar
    45    94    96   ar
    46    92    93   ar
    47    78    79   ar
    48    78    80   ar
    49    96    97   ar
    50    93    95   ar
    51    79    81   ar
    52    80    83   ar
    53    80    82   ar
    54    83    85   ar
    55    97    95   ar
    56    28    27    2
    57    81    82   ar
    58    82    84   ar
    59    85    86   ar
    60    27    26    1
    61    86    84   ar
    62    29    26    1
    63    29    30    1
    64    26    25    1
    65    30    32   am
    66    30    31    2
    67    10    11    1
    68    55    56    1
    69    56    57    1
    70    56    59    1
    71    61    63   ar
    72    61    60   ar
    73    21    20    2
    74    11    14    1
    75    11    12    1
    76    57    58    2
    77    14    15    1
    78    13    12    2
    79    63    64   ar
    80    59    60    1
    81    12    18   am
    82    60    62   ar
    83    20    19    1
    84    18    19    1
    85    18    24    1
    86    15    17   am
    87    15    16    2
    88    64    62   ar
    89    64    66   ar
    90    62    65   ar
    91    19    22    1
    92    24    23    1
    93    66    68   ar
    94    23    22    1
    95    65    67   ar
    96    68    67   ar
