@<TRIPOS>MOLECULE
tmp/2xovA01.pdb
 121 120 0 0 0
SMALL
GASTEIGER

@<TRIPOS>ATOM
      1  N          8.5020   -6.5530   38.8820 N.3     1  GLU1       -0.1231
      2  CA         8.2830   -7.8630   38.2810 C.3     1  GLU1        0.1699
      3  C          8.6350   -7.8460   36.7960 C.2     1  GLU1        0.2592
      4  O          8.2240   -6.9450   36.0620 O.2     1  GLU1       -0.2718
      5  CB         6.8310   -8.3010   38.4720 C.3     1  GLU1        0.0402
      6  CG         6.4970   -8.7680   39.8730 C.3     1  GLU1        0.1161
      7  CD         7.2240   -9.9920   40.3510 C.2     1  GLU1        0.3649
      8  OE1        7.8460  -10.6440   39.4470 O.co2   1  GLU1       -0.2457
      9  OE2        7.1620  -10.3230   41.5370 O.co2   1  GLU1       -0.2457
     10  N          9.3980   -8.8460   36.3610 N.am    2  ARG2       -0.1966
     11  CA         9.8180   -8.9410   34.9690 C.3     2  ARG2        0.1729
     12  C          9.4640  -10.3070   34.4020 C.2     2  ARG2        0.2616
     13  O          9.2090  -11.2450   35.1520 O.2     2  ARG2       -0.2715
     14  CB        11.3240   -8.7360   34.8560 C.3     2  ARG2        0.0348
     15  CG        12.1150   -9.8270   35.5290 C.3     2  ARG2        0.0492
     16  CD        13.6020   -9.7080   35.2690 C.3     2  ARG2        0.2205
     17  NE        14.3020  -10.9030   35.7290 N.pl3   2  ARG2       -0.0865
     18  CZ        15.6220  -11.0630   35.6940 C.cat   2  ARG2        0.5346
     19  NH1       16.3990  -10.0980   35.2220 N.pl3   2  ARG2        0.1354
     20  NH2       16.1650  -12.1910   36.1360 N.pl3   2  ARG2        0.1354
     21  N          9.4660  -10.4070   33.0770 N.am    3  ALA3       -0.1977
     22  CA         9.1870  -11.6570   32.3780 C.3     3  ALA3        0.1597
     23  C         10.1210  -12.7750   32.8500 C.2     3  ALA3        0.2287
     24  O         11.3200  -12.5630   33.0070 O.2     3  ALA3       -0.2864
     25  CB         9.3370  -11.4490   30.8750 C.3     3  ALA3        0.0319
     26  N          2.8140   -8.0650   17.1870 N.3    63  PHE63      -0.1241
     27  CA         1.6190   -8.4850   17.8940 C.3    63  PHE63       0.1605
     28  C          1.7640   -9.8830   18.5020 C.2    63  PHE63       0.2264
     29  O          1.2590  -10.1360   19.5930 O.2    63  PHE63      -0.2867
     30  CB         0.3710   -8.3300   17.0220 C.3    63  PHE63       0.0534
     31  CG        -0.0830   -6.8940   16.8950 C.ar   63  PHE63      -0.0203
     32  CD1        0.2820   -6.1310   15.8010 C.ar   63  PHE63      -0.0042
     33  CD2       -0.8350   -6.3030   17.9000 C.ar   63  PHE63      -0.0042
     34  CE1       -0.1230   -4.8050   15.6950 C.ar   63  PHE63      -0.0003
     35  CE2       -1.2360   -4.9820   17.8010 C.ar   63  PHE63      -0.0003
     36  CZ        -0.8800   -4.2360   16.7000 C.ar   63  PHE63      -0.0000
     37  N          3.8040   -9.2740   21.7040 N.3    66  LEU66      -0.1231
     38  CA         3.0120   -8.5690   22.7210 C.3    66  LEU66       0.1693
     39  C          2.0940   -9.5450   23.4510 C.2    66  LEU66       0.2592
     40  O          2.0180   -9.5410   24.6750 O.2    66  LEU66      -0.2718
     41  CB         2.1680   -7.4570   22.0930 C.3    66  LEU66       0.0284
     42  CG         2.9540   -6.1760   21.7890 C.3    66  LEU66       0.0019
     43  CD1        2.1320   -5.2380   20.9040 C.3    66  LEU66       0.0001
     44  CD2        3.4080   -5.4640   23.0730 C.3    66  LEU66       0.0001
     45  N          1.3920  -10.3790   22.6970 N.am   67  TRP67      -0.1976
     46  CA         0.4990  -11.3540   23.3220 C.3    67  TRP67       0.1640
     47  C          1.2810  -12.3990   24.1090 C.2    67  TRP67       0.2290
     48  O          0.8590  -12.8080   25.1940 O.2    67  TRP67      -0.2864
     49  CB        -0.3710  -12.0490   22.2770 C.3    67  TRP67       0.0576
     50  CG        -1.4990  -11.2040   21.7710 C.ar   67  TRP67       0.0006
     51  CD1       -1.6950  -10.7880   20.4820 C.ar   67  TRP67       0.0946
     52  CD2       -2.5810  -10.6680   22.5370 C.ar   67  TRP67       0.0152
     53  NE1       -2.8410  -10.0350   20.3990 N.ar   67  TRP67      -0.2442
     54  CE2       -3.4020   -9.9410   21.6460 C.ar   67  TRP67       0.0810
     55  CE3       -2.9460  -10.7390   23.8880 C.ar   67  TRP67       0.0012
     56  CZ2       -4.5570   -9.2840   22.0640 C.ar   67  TRP67       0.0191
     57  CZ3       -4.1020  -10.0840   24.3010 C.ar   67  TRP67       0.0001
     58  CH2       -4.8900   -9.3710   23.3920 C.ar   67  TRP67       0.0015
     59  N          4.2860  -12.0210   25.5080 N.3    69  TRP69      -0.1227
     60  CA         4.7870  -11.3430   26.6980 C.3    69  TRP69       0.1737
     61  C          3.7140  -11.2780   27.7830 C.2    69  TRP69       0.2595
     62  O          3.9640  -11.5990   28.9540 O.2    69  TRP69      -0.2718
     63  CB         5.1840   -9.9210   26.3030 C.3    69  TRP69       0.0564
     64  CG         5.8140   -9.1040   27.3630 C.ar   69  TRP69       0.0003
     65  CD1        6.5510   -9.5370   28.4130 C.ar   69  TRP69       0.0946
     66  CD2        5.7900   -7.6760   27.4450 C.ar   69  TRP69       0.0152
     67  NE1        6.9870   -8.4630   29.1630 N.ar   69  TRP69      -0.2442
     68  CE2        6.5280   -7.3090   28.5840 C.ar   69  TRP69       0.0810
     69  CE3        5.2150   -6.6720   26.6570 C.ar   69  TRP69       0.0012
     70  CZ2        6.7080   -5.9780   28.9610 C.ar   69  TRP69       0.0191
     71  CZ3        5.3880   -5.3530   27.0330 C.ar   69  TRP69       0.0001
     72  CH2        6.1260   -5.0180   28.1760 C.ar   69  TRP69       0.0015
     73  N          2.5210  -10.8520   27.3890 N.am   70  TYR70      -0.1976
     74  CA         1.4370  -10.6620   28.3450 C.3    70  TYR70       0.1639
     75  C          0.8950  -11.9970   28.8680 C.2    70  TYR70       0.2290
     76  O          0.8510  -12.2180   30.0830 O.2    70  TYR70      -0.2864
     77  CB         0.3050   -9.8580   27.7160 C.3    70  TYR70       0.0560
     78  CG        -0.8510   -9.6750   28.6650 C.ar   70  TYR70      -0.0198
     79  CD1       -0.7020   -8.9070   29.8110 C.ar   70  TYR70      -0.0009
     80  CD2       -2.0650  -10.2850   28.4320 C.ar   70  TYR70      -0.0009
     81  CE1       -1.7360   -8.7400   30.6920 C.ar   70  TYR70       0.0417
     82  CE2       -3.1170  -10.1320   29.3190 C.ar   70  TYR70       0.0417
     83  CZ        -2.9390   -9.3540   30.4440 C.ar   70  TYR70       0.1957
     84  OH        -3.9690   -9.1790   31.3340 O.3    70  TYR70      -0.2866
     85  N          3.8330  -14.4990   29.8880 N.3    73  GLY73      -0.1210
     86  CA         4.3840  -13.9520   31.1160 C.3    73  GLY73       0.1956
     87  C          3.5300  -14.2750   32.3400 C.2    73  GLY73       0.2611
     88  O          4.0530  -14.6370   33.4000 O.2    73  GLY73      -0.2717
     89  N          2.2170  -14.1360   32.1880 N.am   74  ALA74      -0.1979
     90  CA         1.2610  -14.3770   33.2690 C.3    74  ALA74       0.1597
     91  C          1.2550  -15.8530   33.6600 C.2    74  ALA74       0.2287
     92  O          1.3340  -16.1960   34.8400 O.2    74  ALA74      -0.2864
     93  CB        -0.1470  -13.9390   32.8350 C.3    74  ALA74       0.0319
     94  N          4.5800  -16.7060   35.4290 N.3    77  LYS77      -0.1245
     95  CA         4.6530  -16.1190   36.7620 C.3    77  LYS77       0.1561
     96  C          3.7520  -16.8490   37.7510 C.2    77  LYS77       0.2260
     97  O          4.1800  -17.2050   38.8540 O.2    77  LYS77      -0.2867
     98  CB         4.2590  -14.6380   36.7130 C.3    77  LYS77       0.0271
     99  CG         4.2600  -13.9540   38.0800 C.3    77  LYS77       0.0035
    100  CD         3.7600  -12.5160   37.9720 C.3    77  LYS77       0.0206
    101  CE         3.7600  -11.8190   39.3230 C.3    77  LYS77       0.1093
    102  NZ         3.2170  -10.4340   39.2260 N.3    77  LYS77      -0.1314
    103  N         -9.2130   -6.8960   27.4400 N.3   139  LEU139     -0.1245
    104  CA        -8.2650   -7.6180   26.6010 C.3   139  LEU139      0.1561
    105  C         -8.9440   -8.7080   25.7890 C.2   139  LEU139      0.2260
    106  O         -8.4410   -9.0930   24.7380 O.2   139  LEU139     -0.2867
    107  CB        -7.1030   -8.1750   27.4280 C.3   139  LEU139      0.0270
    108  CG        -6.2020   -7.0570   27.9530 C.3   139  LEU139      0.0019
    109  CD1       -5.0910   -7.6180   28.8170 C.3   139  LEU139      0.0001
    110  CD2       -5.6310   -6.2440   26.7990 C.3   139  LEU139      0.0001
    111  N         -9.6760   -7.0700   22.4960 N.3   142  PHE142     -0.1241
    112  CA        -8.5590   -6.8780   21.5770 C.3   142  PHE142      0.1605
    113  C         -7.9800   -8.2010   21.1060 C.2   142  PHE142      0.2264
    114  O         -7.4520   -8.2840   20.0040 O.2   142  PHE142     -0.2867
    115  CB        -7.5320   -5.9300   22.1790 C.3   142  PHE142      0.0534
    116  CG        -8.1200   -4.5760   22.4320 C.ar  142  PHE142     -0.0203
    117  CD1       -8.5500   -4.2130   23.6980 C.ar  142  PHE142     -0.0042
    118  CD2       -8.3780   -3.7280   21.3680 C.ar  142  PHE142     -0.0042
    119  CE1       -9.1610   -2.9810   23.9040 C.ar  142  PHE142     -0.0003
    120  CE2       -8.9860   -2.5020   21.5700 C.ar  142  PHE142     -0.0003
    121  CZ        -9.3730   -2.1330   22.8370 C.ar  142  PHE142     -0.0000
@<TRIPOS>BOND
     1    34    32   ar
     2    34    36   ar
     3    32    31   ar
     4    36    35   ar
     5    31    30    1
     6    31    33   ar
     7    30    27    1
     8    26    27    1
     9    35    33   ar
    10    27    28    1
    11    28    29    2
    12   114   113    2
    13    53    51   ar
    14    53    54   ar
    15    51    50   ar
    16    43    42    1
    17   113   112    1
    18   118   120   ar
    19   118   116   ar
    20   120   121   ar
    21   112   115    1
    22   112   111    1
    23    54    56   ar
    24    54    52   ar
    25    37    38    1
    26    50    49    1
    27    50    52   ar
    28    42    41    1
    29    42    44    1
    30    56    58   ar
    31    41    38    1
    32   115   116    1
    33    49    46    1
    34   116   117   ar
    35    52    55   ar
    36    45    46    1
    37    45    39   am
    38    38    39    1
    39   121   119   ar
    40    46    47    1
    41    58    57   ar
    42    39    40    2
    43   117   119   ar
    44    55    57   ar
    45    47    48    2
    46   106   105    2
    47    59    60    1
    48   105   104    1
    49    63    60    1
    50    63    64    1
    51   104   107    1
    52   104   103    1
    53    69    71   ar
    54    69    66   ar
    55    60    61    1
    56   110   108    1
    57    71    72   ar
    58    64    66   ar
    59    64    65   ar
    60    73    61   am
    61    73    74    1
    62   107   108    1
    63    66    68   ar
    64    77    74    1
    65    77    78    1
    66    61    62    2
    67   108   109    1
    68    72    70   ar
    69    74    75    1
    70    65    67   ar
    71    80    78   ar
    72    80    82   ar
    73    68    70   ar
    74    68    67   ar
    75    78    79   ar
    76    75    76    2
    77    82    83   ar
    78    79    81   ar
    79    85    86    1
    80    83    81   ar
    81    83    84    1
    82    25    22    1
    83    86    87    1
    84    89    87   am
    85    89    90    1
    86    87    88    2
    87    22    23    1
    88    22    21    1
    89    93    90    1
    90    23    24    2
    91    21    12   am
    92    90    91    1
    93    91    92    2
    94    12    11    1
    95    12    13    2
    96    14    11    1
    97    14    15    1
    98    11    10    1
    99    19    18    1
   100    16    15    1
   101    16    17    1
   102    94    95    1
   103    18    17    2
   104    18    20    1
   105     4     3    2
   106    10     3   am
   107    98    95    1
   108    98    99    1
   109    95    96    1
   110     3     2    1
   111    96    97    2
   112   100    99    1
   113   100   101    1
   114     2     5    1
   115     2     1    1
   116     5     6    1
   117   102   101    1
   118     8     7   ar
   119     6     7    1
   120     7     9   ar
