@<TRIPOS>MOLECULE
tmp/2xovA07.pdb
 99 91 0 0 0
SMALL
GASTEIGER

@<TRIPOS>ATOM
      1  N         -4.2740  -17.7030   24.5460 N.3   118  MET118     -0.1230
      2  CA        -5.5580  -17.0070   24.6920 C.3   118  MET118      0.1702
      3  C         -6.6470  -17.9360   25.2270 C.2   118  MET118      0.2592
      4  O         -7.3630  -17.5990   26.1780 O.2   118  MET118     -0.2718
      5  CB        -6.0050  -16.4050   23.3630 C.3   118  MET118      0.0401
      6  CG        -5.2010  -15.1920   22.9620 C.3   118  MET118      0.0596
      7  SD        -5.7060  -14.5530   21.3650 S.3   118  MET118     -0.1393
      8  CE        -4.7310  -13.0560   21.3350 C.3   118  MET118      0.0692
      9  N         -6.7870  -19.1000   24.6060 N.am  119  GLY119     -0.1957
     10  CA        -7.7660  -20.0710   25.0590 C.3   119  GLY119      0.1869
     11  C         -7.5030  -20.5370   26.4770 C.2   119  GLY119      0.2309
     12  O         -8.4340  -20.6670   27.2790 O.2   119  GLY119     -0.2863
     13  N         -8.0560  -17.4820   29.0600 N.3   122  TRP122     -0.1241
     14  CA        -9.4710  -17.1430   29.1420 C.3   122  TRP122      0.1605
     15  C        -10.2670  -18.2250   29.8710 C.2   122  TRP122      0.2264
     16  O        -11.0020  -17.9430   30.8210 O.2   122  TRP122     -0.2867
     17  CB       -10.0620  -16.9060   27.7530 C.3   122  TRP122      0.0550
     18  CG       -11.5390  -16.7200   27.8050 C.ar  122  TRP122      0.0003
     19  CD1      -12.2050  -15.6160   28.2370 C.ar  122  TRP122      0.0946
     20  CD2      -12.5350  -17.6820   27.4500 C.ar  122  TRP122      0.0152
     21  NE1      -13.5620  -15.8240   28.1620 N.ar  122  TRP122     -0.2442
     22  CE2      -13.7900  -17.0840   27.6780 C.ar  122  TRP122      0.0810
     23  CE3      -12.4890  -18.9870   26.9540 C.ar  122  TRP122      0.0012
     24  CZ2      -14.9900  -17.7480   27.4260 C.ar  122  TRP122      0.0191
     25  CZ3      -13.6810  -19.6440   26.7020 C.ar  122  TRP122      0.0001
     26  CH2      -14.9150  -19.0230   26.9420 C.ar  122  TRP122      0.0015
     27  N        -12.3440  -18.2860   33.4690 N.3   126  GLU126     -0.1245
     28  CA       -13.7980  -18.4120   33.4450 C.3   126  GLU126      0.1567
     29  C        -14.2810  -19.5970   34.2870 C.2   126  GLU126      0.2260
     30  O        -15.4010  -19.5900   34.8060 O.2   126  GLU126     -0.2867
     31  CB       -14.2990  -18.5520   32.0070 C.3   126  GLU126      0.0388
     32  CG       -15.7880  -18.2840   31.8230 C.3   126  GLU126      0.1160
     33  CD       -16.1320  -16.8010   31.7940 C.2   126  GLU126      0.3649
     34  OE1      -17.3360  -16.4730   31.8290 O.co2 126  GLU126     -0.2457
     35  OE2      -15.2080  -15.9600   31.7260 O.co2 126  GLU126     -0.2457
     36  N         -8.3600  -13.6410   31.6220 N.3   135  LEU135     -0.1245
     37  CA        -8.2430  -12.6610   30.5460 C.3   135  LEU135      0.1561
     38  C         -9.2050  -11.4970   30.8110 C.2   135  LEU135      0.2260
     39  O        -10.4170  -11.6550   30.7250 O.2   135  LEU135     -0.2867
     40  CB        -8.5630  -13.3080   29.1950 C.3   135  LEU135      0.0270
     41  CG        -8.2000  -12.5140   27.9340 C.3   135  LEU135      0.0019
     42  CD1       -6.7610  -12.0450   27.9960 C.3   135  LEU135      0.0001
     43  CD2       -8.4470  -13.3490   26.6720 C.3   135  LEU135      0.0001
     44  N        -11.6010   -8.3460   30.7270 N.3   137  ARG137     -0.1245
     45  CA       -12.6610   -7.9970   29.7840 C.3   137  ARG137      0.1563
     46  C        -12.1460   -7.2160   28.5900 C.2   137  ARG137      0.2260
     47  O        -12.3890   -7.5810   27.4350 O.2   137  ARG137     -0.2867
     48  CB       -13.7210   -7.1390   30.4740 C.3   137  ARG137      0.0307
     49  CG       -14.9140   -7.9110   30.9570 C.3   137  ARG137      0.0489
     50  CD       -15.9670   -6.9730   31.4920 C.3   137  ARG137      0.2205
     51  NE       -17.1200   -7.7080   31.9820 N.pl3 137  ARG137     -0.0865
     52  CZ       -18.1920   -7.1330   32.5070 C.cat 137  ARG137      0.5346
     53  NH1      -18.2450   -5.8120   32.6090 N.pl3 137  ARG137      0.1354
     54  NH2      -19.2060   -7.8760   32.9290 N.pl3 137  ARG137      0.1354
     55  N        -10.0880   -9.1990   26.2550 N.3   140  ILE140     -0.1245
     56  CA       -10.8640  -10.1440   25.4550 C.3   140  ILE140      0.1561
     57  C        -11.2290   -9.4710   24.1420 C.2   140  ILE140      0.2260
     58  O        -11.1650  -10.0780   23.0720 O.2   140  ILE140     -0.2867
     59  CB       -12.1560  -10.5990   26.1690 C.3   140  ILE140      0.0252
     60  CG1      -11.8280  -11.5020   27.3590 C.3   140  ILE140      0.0019
     61  CG2      -13.0710  -11.3400   25.2100 C.3   140  ILE140      0.0019
     62  CD1      -13.0410  -11.8940   28.1820 C.3   140  ILE140      0.0001
     63  N         -8.1200   -9.2300   21.9320 N.3   143  ALA143     -0.1231
     64  CA        -7.7920  -10.5790   21.4880 C.3   143  ALA143      0.1694
     65  C         -8.7080  -10.9550   20.3260 C.2   143  ALA143      0.2591
     66  O         -8.2570  -11.5080   19.3300 O.2   143  ALA143     -0.2718
     67  CB        -7.9410  -11.5780   22.6400 C.3   143  ALA143      0.0304
     68  N        -10.0000  -10.6420   20.4430 N.am  144  LEU144     -0.1980
     69  CA       -10.9510  -10.9770   19.3800 C.3   144  LEU144      0.1596
     70  C        -10.6600  -10.2150   18.1000 C.2   144  LEU144      0.2287
     71  O        -10.8250  -10.7490   17.0060 O.2   144  LEU144     -0.2864
     72  CB       -12.3930  -10.7060   19.8240 C.3   144  LEU144      0.0297
     73  CG       -12.9190  -11.7130   20.8410 C.3   144  LEU144      0.0022
     74  CD1      -14.2210  -11.2100   21.4640 C.3   144  LEU144      0.0001
     75  CD2      -13.1240  -13.0590   20.1760 C.3   144  LEU144      0.0001
     76  N         -7.7830  -11.9090   16.5120 N.3   147  ILE147     -0.1245
     77  CA        -8.2450  -13.1530   15.9160 C.3   147  ILE147      0.1561
     78  C         -8.9510  -12.8840   14.5860 C.2   147  ILE147      0.2260
     79  O         -8.6460  -13.5000   13.5620 O.2   147  ILE147     -0.2867
     80  CB        -9.1720  -13.9050   16.8790 C.3   147  ILE147      0.0252
     81  CG1       -8.3620  -14.4270   18.0700 C.3   147  ILE147      0.0019
     82  CG2       -9.9390  -15.0150   16.1640 C.3   147  ILE147      0.0019
     83  CD1       -9.1910  -15.1460   19.0940 C.3   147  ILE147      0.0001
     84  N         -5.7460  -23.2230   19.4080 N.3   168  LEU168     -0.1245
     85  CA        -6.7560  -22.8590   20.4060 C.3   168  LEU168      0.1561
     86  C         -7.2200  -24.0840   21.1960 C.2   168  LEU168      0.2260
     87  O         -7.3590  -24.0350   22.4150 O.2   168  LEU168     -0.2867
     88  CB        -7.9520  -22.2040   19.7200 C.3   168  LEU168      0.0270
     89  CG        -9.1360  -21.7920   20.6070 C.3   168  LEU168      0.0019
     90  CD1       -8.7160  -20.7700   21.6490 C.3   168  LEU168      0.0001
     91  CD2      -10.2550  -21.2450   19.7260 C.3   168  LEU168      0.0001
     92  N         -7.3940  -24.6700   25.2460 N.3   172  LEU172     -0.1245
     93  CA        -8.6760  -24.9220   25.9070 C.3   172  LEU172      0.1561
     94  C         -8.6290  -26.2460   26.6540 C.2   172  LEU172      0.2260
     95  O         -9.0850  -26.3380   27.7950 O.2   172  LEU172     -0.2867
     96  CB        -9.8200  -24.9380   24.8990 C.3   172  LEU172      0.0270
     97  CG       -10.1340  -23.5870   24.2550 C.3   172  LEU172      0.0019
     98  CD1      -11.1660  -23.7520   23.1460 C.3   172  LEU172      0.0001
     99  CD2      -10.6200  -22.5870   25.3070 C.3   172  LEU172      0.0001
@<TRIPOS>BOND
     1    79    78    2
     2    78    77    1
     3    77    76    1
     4    77    80    1
     5    82    80    1
     6    80    81    1
     7    71    70    2
     8    81    83    1
     9    70    69    1
    10    66    65    2
    11    69    72    1
    12    69    68    1
    13    84    85    1
    14    88    85    1
    15    88    89    1
    16    91    89    1
    17    72    73    1
    18    75    73    1
    19    65    68   am
    20    65    64    1
    21    85    86    1
    22    89    90    1
    23    73    74    1
    24    86    87    2
    25     8     7    1
    26     7     6    1
    27    64    63    1
    28    64    67    1
    29     6     5    1
    30    58    57    2
    31    98    97    1
    32     5     2    1
    33    57    56    1
    34    97    96    1
    35    97    99    1
    36     1     2    1
    37     9    10    1
    38     9     3   am
    39     2     3    1
    40    96    93    1
    41    10    11    1
    42    61    59    1
    43     3     4    2
    44    92    93    1
    45    56    59    1
    46    56    55    1
    47    93    94    1
    48    59    60    1
    49    11    12    2
    50    94    95    2
    51    43    41    1
    52    25    26   ar
    53    25    23   ar
    54    26    24   ar
    55    23    20   ar
    56    60    62    1
    57    24    22   ar
    58    47    46    2
    59    20    22   ar
    60    20    18   ar
    61    22    21   ar
    62    17    18    1
    63    17    14    1
    64    18    19   ar
    65    41    42    1
    66    41    40    1
    67    21    19   ar
    68    46    45    1
    69    13    14    1
    70    14    15    1
    71    40    37    1
    72    45    48    1
    73    45    44    1
    74    15    16    2
    75    48    49    1
    76    37    38    1
    77    37    36    1
    78    39    38    2
    79    49    50    1
    80    50    51    1
    81    35    33   ar
    82    33    32    1
    83    33    34   ar
    84    32    31    1
    85    51    52    2
    86    31    28    1
    87    52    53    1
    88    52    54    1
    89    28    27    1
    90    28    29    1
    91    29    30    2
