@<TRIPOS>MOLECULE
tmp/2xovA00.pdb
 77 75 0 0 0
SMALL
GASTEIGER

@<TRIPOS>ATOM
      1  N         -1.0900  -29.1590   11.4060 N.3    98  VAL98      -0.1231
      2  CA        -2.2970  -28.8920   10.6540 C.3    98  VAL98       0.1692
      3  C         -2.0090  -27.9130    9.5280 C.2    98  VAL98       0.2591
      4  O         -2.5110  -28.0740    8.4160 O.2    98  VAL98      -0.2718
      5  CB        -3.4080  -28.3420   11.5700 C.3    98  VAL98       0.0266
      6  CG1       -4.5950  -27.8550   10.7500 C.3    98  VAL98       0.0020
      7  CG2       -3.8270  -29.4140   12.5790 C.3    98  VAL98       0.0020
      8  N         -1.1790  -26.9150    9.8090 N.am   99  GLN99      -0.1979
      9  CA        -0.7800  -25.9540    8.7820 C.3    99  GLN99       0.1601
     10  C         -0.1290  -26.6550    7.5930 C.2    99  GLN99       0.2287
     11  O         -0.4960  -26.3980    6.4470 O.2    99  GLN99      -0.2864
     12  CB         0.1980  -24.9260    9.3530 C.3    99  GLN99       0.0394
     13  CG         0.7110  -23.9320    8.3140 C.3    99  GLN99       0.0908
     14  CD        -0.3820  -22.9820    7.8570 C.2    99  GLN99       0.2608
     15  OE1       -1.3690  -22.7910    8.5580 O.2    99  GLN99      -0.2717
     16  NE2       -0.2120  -22.3890    6.6770 N.am   99  GLN99      -0.0878
     17  N         -2.6080  -28.8510    5.3070 N.3   102  PHE102     -0.1227
     18  CA        -3.4970  -28.1690    4.3760 C.3   102  PHE102      0.1736
     19  C         -2.8060  -27.1980    3.4190 C.2   102  PHE102      0.2596
     20  O         -3.3060  -26.9600    2.3200 O.2   102  PHE102     -0.2718
     21  CB        -4.6150  -27.4520    5.1370 C.3   102  PHE102      0.0547
     22  CG        -5.6110  -28.3910    5.7580 C.ar  102  PHE102     -0.0202
     23  CD1       -5.6110  -28.6230    7.1200 C.ar  102  PHE102     -0.0042
     24  CD2       -6.5330  -29.0620    4.9690 C.ar  102  PHE102     -0.0042
     25  CE1       -6.5230  -29.4950    7.6900 C.ar  102  PHE102     -0.0003
     26  CE2       -7.4470  -29.9360    5.5310 C.ar  102  PHE102     -0.0003
     27  CZ        -7.4400  -30.1520    6.8960 C.ar  102  PHE102     -0.0000
     28  N         -1.6700  -26.6380    3.8270 N.am  103  SER103     -0.1952
     29  CA        -1.0580  -25.5480    3.0670 C.3   103  SER103      0.1924
     30  C          0.4410  -25.6880    2.7530 C.2   103  SER103      0.2314
     31  O          1.0370  -24.7720    2.1850 O.2   103  SER103     -0.2863
     32  CB        -1.2980  -24.2230    3.7930 C.3   103  SER103      0.2116
     33  OG        -2.6750  -24.0800    4.1150 O.3   103  SER103     -0.2180
     34  N         -8.2680  -14.1640   10.8200 N.3   151  TRP151     -0.1241
     35  CA        -9.2980  -15.0510   10.3130 C.3   151  TRP151      0.1605
     36  C         -9.7640  -14.6380    8.9220 C.2   151  TRP151      0.2264
     37  O         -9.9620  -15.4870    8.0470 O.2   151  TRP151     -0.2867
     38  CB       -10.4850  -15.0920   11.2740 C.3   151  TRP151      0.0550
     39  CG       -11.4140  -16.2120   10.9840 C.ar  151  TRP151      0.0003
     40  CD1      -12.4450  -16.2140   10.0890 C.ar  151  TRP151      0.0946
     41  CD2      -11.3940  -17.5120   11.5800 C.ar  151  TRP151      0.0152
     42  NE1      -13.0760  -17.4370   10.0980 N.ar  151  TRP151     -0.2442
     43  CE2      -12.4480  -18.2500   11.0070 C.ar  151  TRP151      0.0810
     44  CE3      -10.5890  -18.1220   12.5460 C.ar  151  TRP151      0.0012
     45  CZ2      -12.7170  -19.5670   11.3680 C.ar  151  TRP151      0.0191
     46  CZ3      -10.8570  -19.4290   12.9010 C.ar  151  TRP151      0.0001
     47  CH2      -11.9120  -20.1350   12.3150 C.ar  151  TRP151      0.0015
     48  N         -2.9510  -20.5900    8.6010 N.3   160  ALA160     -0.1231
     49  CA        -4.3580  -20.6640    8.2150 C.3   160  ALA160      0.1694
     50  C         -5.3200  -20.8850    9.3980 C.2   160  ALA160      0.2592
     51  O         -4.9020  -21.2210   10.5080 O.2   160  ALA160     -0.2718
     52  CB        -4.5470  -21.7530    7.1820 C.3   160  ALA160      0.0304
     53  N         -6.6160  -20.7020    9.1520 N.am  161  ASN161     -0.1960
     54  CA        -7.6050  -20.7670   10.2270 C.3   161  ASN161      0.1819
     55  C         -7.6640  -22.1120   10.9560 C.2   161  ASN161      0.2622
     56  O         -7.7910  -22.1520   12.1780 O.2   161  ASN161     -0.2715
     57  CB        -8.9970  -20.3700    9.7130 C.3   161  ASN161      0.1195
     58  CG        -9.0650  -18.9160    9.2850 C.2   161  ASN161      0.2630
     59  OD1       -8.1770  -18.1190    9.5990 O.2   161  ASN161     -0.2716
     60  ND2      -10.1220  -18.5610    8.5650 N.am  161  ASN161     -0.0877
     61  N         -7.5810  -23.2100   10.2100 N.am  162  GLY162     -0.1940
     62  CA        -7.6100  -24.5320   10.8130 C.3   162  GLY162      0.2014
     63  C         -6.4410  -24.7740   11.7540 C.2   162  GLY162      0.2638
     64  O         -6.5990  -25.4010   12.8080 O.2   162  GLY162     -0.2714
     65  N         -5.2650  -24.2870   11.3720 N.am  163  ALA163     -0.1977
     66  CA        -4.0810  -24.3930   12.2190 C.3   163  ALA163      0.1597
     67  C         -4.2610  -23.6060   13.5080 C.2   163  ALA163      0.2287
     68  O         -3.8610  -24.0480   14.5860 O.2   163  ALA163     -0.2864
     69  CB        -2.8560  -23.9140   11.4750 C.3   163  ALA163      0.0319
     70  N         -7.1530  -22.8860   14.9350 N.3   165  ILE165     -0.1245
     71  CA        -8.1230  -23.6260   15.7260 C.3   165  ILE165      0.1561
     72  C         -7.4490  -24.7670   16.4730 C.2   165  ILE165      0.2260
     73  O         -7.7760  -25.0440   17.6230 O.2   165  ILE165     -0.2867
     74  CB        -9.2430  -24.2000   14.8340 C.3   165  ILE165      0.0252
     75  CG1      -10.1530  -23.0760   14.3440 C.3   165  ILE165      0.0019
     76  CG2      -10.0620  -25.2580   15.5870 C.3   165  ILE165      0.0019
     77  CD1      -11.1130  -23.5320   13.2670 C.3   165  ILE165      0.0001
@<TRIPOS>BOND
     1    31    30    2
     2    20    19    2
     3    30    29    1
     4    29    32    1
     5    29    28    1
     6    19    28   am
     7    19    18    1
     8    32    33    1
     9    18    21    1
    10    18    17    1
    11    24    26   ar
    12    24    22   ar
    13    21    22    1
    14    26    27   ar
    15    22    23   ar
    16    11    10    2
    17    16    14   am
    18    27    25   ar
    19    23    25   ar
    20    52    49    1
    21    10     9    1
    22    14    13    1
    23    14    15    2
    24    37    36    2
    25    49    48    1
    26    49    50    1
    27    13    12    1
    28     4     3    2
    29    60    58   am
    30     9    12    1
    31     9     8    1
    32    36    35    1
    33    53    50   am
    34    53    54    1
    35    58    59    2
    36    58    57    1
    37    50    51    2
    38     3     8   am
    39     3     2    1
    40    57    54    1
    41    40    42   ar
    42    40    39   ar
    43    42    43   ar
    44    61    62    1
    45    61    55   am
    46    54    55    1
    47    35    34    1
    48    35    38    1
    49     2     1    1
    50     2     5    1
    51     6     5    1
    52    62    63    1
    53    55    56    2
    54    39    38    1
    55    39    41   ar
    56    43    45   ar
    57    43    41   ar
    58    45    47   ar
    59    65    63   am
    60    65    66    1
    61    69    66    1
    62     5     7    1
    63    41    44   ar
    64    63    64    2
    65    66    67    1
    66    47    46   ar
    67    44    46   ar
    68    77    75    1
    69    67    68    2
    70    75    74    1
    71    74    76    1
    72    74    71    1
    73    70    71    1
    74    71    72    1
    75    72    73    2
