@<TRIPOS>MOLECULE
tmp/2xowA02.pdb
 79 73 0 0 0
SMALL
GASTEIGER

@<TRIPOS>ATOM
      1  N         17.2030   -4.7760   37.0640 N.3   117  MET117     -0.1230
      2  CA        17.1790   -3.3210   36.9440 C.3   117  MET117      0.1702
      3  C         18.5200   -2.7740   36.4640 C.2   117  MET117      0.2592
      4  O         18.5830   -2.0250   35.4880 O.2   117  MET117     -0.2718
      5  CB        16.8160   -2.6810   38.2840 C.3   117  MET117      0.0401
      6  CG        15.3350   -2.7730   38.6310 C.3   117  MET117      0.0596
      7  SD        15.0290   -2.1270   40.2780 S.3   117  MET117     -0.1393
      8  CE        13.2540   -2.3140   40.3700 C.3   117  MET117      0.0692
      9  N         19.5840   -3.1410   37.1690 N.am  118  GLY118     -0.1957
     10  CA        20.9300   -2.7650   36.7850 C.3   118  GLY118      0.1869
     11  C         21.2990   -3.2820   35.4040 C.2   118  GLY118      0.2309
     12  O         21.9540   -2.5840   34.6310 O.2   118  GLY118     -0.2863
     13  N         19.2500   -1.4960   32.3890 N.3   121  TRP121     -0.1241
     14  CA        19.6870   -0.1100   32.2710 C.3   121  TRP121      0.1605
     15  C         21.0720    0.0070   31.6490 C.2   121  TRP121      0.2264
     16  O         21.2450    0.6590   30.6200 O.2   121  TRP121     -0.2867
     17  CB        19.6750    0.6010   33.6290 C.3   121  TRP121      0.0550
     18  CG        20.2940    1.9590   33.5640 C.ar  121  TRP121      0.0003
     19  CD1       19.7630    3.0730   32.9690 C.ar  121  TRP121      0.0946
     20  CD2       21.5650    2.3550   34.0950 C.ar  121  TRP121      0.0152
     21  NE1       20.6250    4.1350   33.1040 N.ar  121  TRP121     -0.2442
     22  CE2       21.7390    3.7230   33.7860 C.ar  121  TRP121      0.0810
     23  CE3       22.5730    1.6890   34.8000 C.ar  121  TRP121      0.0012
     24  CZ2       22.8720    4.4330   34.1580 C.ar  121  TRP121      0.0191
     25  CZ3       23.7060    2.3990   35.1690 C.ar  121  TRP121      0.0001
     26  CH2       23.8460    3.7590   34.8460 C.ar  121  TRP121      0.0015
     27  N         16.0550    0.4670   29.4980 N.3   134  LEU134     -0.1245
     28  CA        15.1260    0.8810   30.5300 C.3   134  LEU134      0.1561
     29  C         14.6140    2.2860   30.1880 C.2   134  LEU134      0.2260
     30  O         15.3620    3.2620   30.2470 O.2   134  LEU134     -0.2867
     31  CB        15.8290    0.8850   31.8880 C.3   134  LEU134      0.0270
     32  CG        14.9240    0.9320   33.1140 C.3   134  LEU134      0.0019
     33  CD1       14.0270   -0.3000   33.1460 C.3   134  LEU134      0.0001
     34  CD2       15.7570    1.0430   34.3810 C.3   134  LEU134      0.0001
     35  N         13.3250    4.0970   34.7160 N.3   139  ILE139     -0.1245
     36  CA        14.5630    4.4100   35.4120 C.3   139  ILE139      0.1561
     37  C         14.2460    5.0910   36.7450 C.2   139  ILE139      0.2260
     38  O         14.7920    4.7230   37.7910 O.2   139  ILE139     -0.2867
     39  CB        15.4470    5.3550   34.5840 C.3   139  ILE139      0.0252
     40  CG1       15.8490    4.6920   33.2640 C.3   139  ILE139      0.0019
     41  CG2       16.6810    5.7740   35.3760 C.3   139  ILE139      0.0019
     42  CD1       16.9570    5.4410   32.5220 C.3   139  ILE139      0.0001
     43  N         12.6540    2.6370   39.1510 N.3   142  ALA142     -0.1231
     44  CA        13.6970    1.7070   39.5560 C.3   142  ALA142      0.1694
     45  C         14.5820    2.3550   40.6140 C.2   142  ALA142      0.2591
     46  O         14.8400    1.7620   41.6580 O.2   142  ALA142     -0.2718
     47  CB        14.5330    1.2670   38.3550 C.3   142  ALA142      0.0304
     48  N         15.0300    3.5820   40.3500 N.am  143  LEU143     -0.1980
     49  CA        15.8580    4.3030   41.3080 C.3   143  LEU143      0.1596
     50  C         15.1660    4.4190   42.6640 C.2   143  LEU143      0.2287
     51  O         15.7880    4.2150   43.7110 O.2   143  LEU143     -0.2864
     52  CB        16.2140    5.6990   40.7910 C.3   143  LEU143      0.0297
     53  CG        17.4630    5.8730   39.9390 C.3   143  LEU143      0.0022
     54  CD1       17.5750    7.3390   39.4890 C.3   143  LEU143      0.0001
     55  CD2       18.7100    5.4490   40.7150 C.3   143  LEU143      0.0001
     56  N         15.2680    1.1940   44.4240 N.3   146  ILE146     -0.1245
     57  CA        16.5920    0.9640   44.9870 C.3   146  ILE146      0.1561
     58  C         16.7810    1.7860   46.2540 C.2   146  ILE146      0.2260
     59  O         17.2590    1.2830   47.2710 O.2   146  ILE146     -0.2867
     60  CB        17.6780    1.2890   43.9810 C.3   146  ILE146      0.0252
     61  CG1       17.5870    0.3240   42.7980 C.3   146  ILE146      0.0019
     62  CG2       19.0640    1.2220   44.6370 C.3   146  ILE146      0.0019
     63  CD1       18.4690    0.7150   41.6160 C.3   146  ILE146      0.0001
     64  N         22.0100   -5.8840   42.5990 N.3   167  LEU167     -0.1245
     65  CA        22.2280   -4.7790   41.6700 C.3   167  LEU167      0.1561
     66  C         23.6340   -4.8290   41.0660 C.2   167  LEU167      0.2260
     67  O         23.8080   -4.6640   39.8590 O.2   167  LEU167     -0.2867
     68  CB        22.0080   -3.4500   42.3770 C.3   167  LEU167      0.0270
     69  CG        22.3940   -2.1900   41.5980 C.3   167  LEU167      0.0019
     70  CD1       21.5550   -2.0600   40.3330 C.3   167  LEU167      0.0001
     71  CD2       22.2290   -0.9780   42.5010 C.3   167  LEU167      0.0001
     72  N         24.6360   -5.1180   37.0090 N.3   171  LEU171     -0.1245
     73  CA        25.5270   -4.1540   36.3680 C.3   171  LEU171      0.1561
     74  C         26.7330   -4.8580   35.7500 C.2   171  LEU171      0.2260
     75  O         27.0830   -4.6030   34.6070 O.2   171  LEU171     -0.2867
     76  CB        25.9970   -3.1030   37.3750 C.3   171  LEU171      0.0270
     77  CG        24.9680   -2.1420   37.9750 C.3   171  LEU171      0.0019
     78  CD1       25.5970   -1.3440   39.1200 C.3   171  LEU171      0.0001
     79  CD2       24.3850   -1.2040   36.9220 C.3   171  LEU171      0.0001
@<TRIPOS>BOND
     1    27    28    1
     2    29    30    2
     3    29    28    1
     4    28    31    1
     5    16    15    2
     6    15    14    1
     7    31    32    1
     8    14    13    1
     9    14    17    1
    10    42    40    1
    11    19    21   ar
    12    19    18   ar
    13    21    22   ar
    14    32    33    1
    15    32    34    1
    16    40    39    1
    17    18    17    1
    18    18    20   ar
    19    22    20   ar
    20    22    24   ar
    21    20    23   ar
    22    24    26   ar
    23    39    41    1
    24    39    36    1
    25    75    74    2
    26    12    11    2
    27    35    36    1
    28    23    25   ar
    29    26    25   ar
    30    11    10    1
    31    36    37    1
    32     4     3    2
    33    74    73    1
    34    73    72    1
    35    73    76    1
    36     3     2    1
    37     3     9   am
    38    37    38    2
    39    10     9    1
    40    79    77    1
    41     2     1    1
    42     2     5    1
    43    76    77    1
    44    77    78    1
    45     5     6    1
    46    47    44    1
    47     6     7    1
    48    43    44    1
    49    54    53    1
    50    44    45    1
    51    67    66    2
    52    53    55    1
    53    53    52    1
    54     7     8    1
    55    70    69    1
    56    48    45   am
    57    48    49    1
    58    45    46    2
    59    52    49    1
    60    66    65    1
    61    49    50    1
    62    69    68    1
    63    69    71    1
    64    63    61    1
    65    65    68    1
    66    65    64    1
    67    50    51    2
    68    61    60    1
    69    60    62    1
    70    60    57    1
    71    56    57    1
    72    57    58    1
    73    58    59    2
