@<TRIPOS>MOLECULE
tmp/2xowA00.pdb
 150 147 0 0 0
SMALL
GASTEIGER

@<TRIPOS>ATOM
      1  N         15.7260  -19.9070   47.8650 N.3    50  HIS50      -0.1241
      2  CA        15.3950  -18.8130   48.7490 C.3    50  HIS50       0.1621
      3  C         14.7040  -17.6930   47.9580 C.2    50  HIS50       0.2264
      4  O         13.9220  -16.9380   48.5070 O.2    50  HIS50      -0.2867
      5  CB        16.6530  -18.2690   49.4500 C.3    50  HIS50       0.0745
      6  CG        17.7460  -17.8650   48.5100 C.ar   50  HIS50       0.0817
      7  ND1       17.7870  -16.6280   47.9010 N.ar   50  HIS50      -0.2268
      8  CD2       18.8490  -18.5360   48.0810 C.ar   50  HIS50       0.1154
      9  CE1       18.8620  -16.5560   47.1330 C.ar   50  HIS50       0.1986
     10  NE2       19.5250  -17.6980   47.2290 N.ar   50  HIS50      -0.2212
     11  N          5.2440   -8.0340   49.1600 N.3    59  HIS59      -0.1241
     12  CA         6.5560   -8.6220   48.8440 C.3    59  HIS59       0.1621
     13  C          6.5040   -9.3230   47.4890 C.2    59  HIS59       0.2264
     14  O          7.2320   -8.9640   46.5620 O.2    59  HIS59      -0.2867
     15  CB         6.9620   -9.6030   49.9480 C.3    59  HIS59       0.0745
     16  CG         8.4110   -9.9890   49.9260 C.ar   59  HIS59       0.0817
     17  ND1        8.8820  -11.1370   50.5290 N.ar   59  HIS59      -0.2268
     18  CD2        9.4900   -9.3820   49.3770 C.ar   59  HIS59       0.1154
     19  CE1       10.1890  -11.2210   50.3480 C.ar   59  HIS59       0.1986
     20  NE2       10.5820  -10.1690   49.6520 N.ar   59  HIS59      -0.2212
     21  N          5.0350   -6.8500   44.1550 N.3    62  PHE62      -0.1227
     22  CA         5.9590   -5.8990   43.5410 C.3    62  PHE62       0.1736
     23  C          7.1240   -6.6210   42.8380 C.2    62  PHE62       0.2595
     24  O          7.5680   -6.2060   41.7660 O.2    62  PHE62      -0.2718
     25  CB         6.5040   -4.9390   44.5900 C.3    62  PHE62       0.0547
     26  CG         5.4610   -4.0390   45.1930 C.ar   62  PHE62      -0.0202
     27  CD1        4.3500   -3.6600   44.4620 C.ar   62  PHE62      -0.0042
     28  CD2        5.5950   -3.5760   46.4930 C.ar   62  PHE62      -0.0042
     29  CE1        3.3920   -2.8300   45.0080 C.ar   62  PHE62      -0.0003
     30  CE2        4.6360   -2.7460   47.0470 C.ar   62  PHE62      -0.0003
     31  CZ         3.5370   -2.3740   46.3040 C.ar   62  PHE62      -0.0000
     32  N          7.6170   -7.6930   43.4520 N.am   63  ASN63      -0.1974
     33  CA         8.7070   -8.4840   42.8480 C.3    63  ASN63       0.1688
     34  C          8.2880   -9.0400   41.5020 C.2    63  ASN63       0.2292
     35  O          8.9870   -8.8580   40.5130 O.2    63  ASN63      -0.2864
     36  CB         9.1610   -9.6080   43.7900 C.3    63  ASN63       0.1181
     37  CG        10.1810   -9.1230   44.8100 C.2    63  ASN63       0.2629
     38  OD1       10.8360   -8.1120   44.5970 O.2    63  ASN63      -0.2716
     39  ND2       10.3220   -9.8430   45.9100 N.am   63  ASN63      -0.0877
     40  N         23.7520  -11.9940   51.5410 N.3    98  GLN98      -0.1245
     41  CA        22.7280  -11.8730   52.5820 C.3    98  GLN98       0.1566
     42  C         23.0710  -12.7850   53.7430 C.2    98  GLN98       0.2260
     43  O         23.0450  -12.3750   54.8970 O.2    98  GLN98      -0.2867
     44  CB        21.3460  -12.2360   52.0350 C.3    98  GLN98       0.0367
     45  CG        20.2330  -12.2850   53.0900 C.3    98  GLN98       0.0905
     46  CD        19.7060  -10.9020   53.4560 C.2    98  GLN98       0.2608
     47  OE1       20.0090   -9.9170   52.7840 O.2    98  GLN98      -0.2717
     48  NE2       18.9250  -10.8240   54.5300 N.am   98  GLN98      -0.0878
     49  N         15.9180  -16.2070   55.0380 N.3   106  PHE106     -0.1227
     50  CA        15.5500  -15.0950   54.1740 C.3   106  PHE106      0.1736
     51  C         14.9490  -15.6560   52.9120 C.2   106  PHE106      0.2596
     52  O         15.0030  -16.8680   52.6900 O.2   106  PHE106     -0.2718
     53  CB        16.7540  -14.2010   53.8620 C.3   106  PHE106      0.0547
     54  CG        17.8890  -14.9090   53.1410 C.ar  106  PHE106     -0.0202
     55  CD1       17.8530  -15.0860   51.7660 C.ar  106  PHE106     -0.0042
     56  CD2       18.9890  -15.3790   53.8420 C.ar  106  PHE106     -0.0042
     57  CE1       18.8880  -15.7250   51.1010 C.ar  106  PHE106     -0.0003
     58  CE2       20.0420  -16.0150   53.1870 C.ar  106  PHE106     -0.0003
     59  CZ        19.9920  -16.1970   51.8140 C.ar  106  PHE106     -0.0000
     60  N         14.3470  -14.7820   52.1090 N.am  107  GLY107     -0.1942
     61  CA        13.7310  -15.1770   50.8530 C.3   107  GLY107      0.2014
     62  C         13.3140  -13.9600   50.0640 C.2   107  GLY107      0.2639
     63  O         13.2650  -12.8560   50.6060 O.2   107  GLY107     -0.2714
     64  N         13.0060  -14.1430   48.7860 N.am  108  GLY108     -0.1954
     65  CA        12.5230  -13.0330   47.9830 C.3   108  GLY108      0.1869
     66  C         13.2460  -12.9140   46.6610 C.2   108  GLY108      0.2309
     67  O         14.4550  -13.1350   46.5770 O.2   108  GLY108     -0.2863
     68  N         13.7310  -10.2720   45.0780 N.3   110  SER110     -0.1202
     69  CA        14.1750   -8.8950   44.8890 C.3   110  SER110      0.2020
     70  C         15.6660   -8.7830   44.5230 C.2   110  SER110      0.2619
     71  O         16.0710   -7.8420   43.8430 O.2   110  SER110     -0.2717
     72  CB        13.8140   -8.0180   46.0970 C.3   110  SER110      0.2103
     73  OG        14.5680   -8.3420   47.2550 O.3   110  SER110     -0.2182
     74  N         16.4770   -9.7420   44.9590 N.am  111  GLY111     -0.1956
     75  CA        17.8840   -9.7880   44.5490 C.3   111  GLY111      0.1869
     76  C         17.9980   -9.9020   43.0400 C.2   111  GLY111      0.2309
     77  O         18.7770   -9.2020   42.4060 O.2   111  GLY111     -0.2863
     78  N         16.6050   -6.5420   41.3670 N.3   114  TYR114     -0.1241
     79  CA        17.5920   -5.4620   41.3330 C.3   114  TYR114      0.1605
     80  C         18.6850   -5.7210   40.2860 C.2   114  TYR114      0.2264
     81  O         19.1210   -4.8040   39.5840 O.2   114  TYR114     -0.2867
     82  CB        18.1830   -5.1950   42.7270 C.3   114  TYR114      0.0534
     83  CG        17.2290   -4.4910   43.6990 C.ar  114  TYR114     -0.0201
     84  CD1       16.7490   -3.2070   43.4360 C.ar  114  TYR114     -0.0009
     85  CD2       16.8410   -5.0970   44.8890 C.ar  114  TYR114     -0.0009
     86  CE1       15.8910   -2.5600   44.3250 C.ar  114  TYR114      0.0417
     87  CE2       15.9870   -4.4530   45.7860 C.ar  114  TYR114      0.0417
     88  CZ        15.5160   -3.1860   45.4970 C.ar  114  TYR114      0.1957
     89  OH        14.6630   -2.5440   46.3870 O.3   114  TYR114     -0.2866
     90  N         12.8320    2.4460   43.8130 N.3   145  TRP145     -0.1241
     91  CA        12.8510    1.1070   44.3920 C.3   145  TRP145      0.1605
     92  C         14.1770    0.8430   45.0910 C.2   145  TRP145      0.2264
     93  O         14.2130    0.3510   46.2220 O.2   145  TRP145     -0.2867
     94  CB        12.6000    0.0410   43.3330 C.3   145  TRP145      0.0550
     95  CG        11.6370   -0.9960   43.8040 C.ar  145  TRP145      0.0003
     96  CD1       11.9080   -2.3080   44.1090 C.ar  145  TRP145      0.0946
     97  CD2       10.2410   -0.8040   44.0500 C.ar  145  TRP145      0.0152
     98  NE1       10.7570   -2.9380   44.5230 N.ar  145  TRP145     -0.2442
     99  CE2        9.7210   -2.0410   44.4910 C.ar  145  TRP145      0.0810
    100  CE3        9.3770    0.2940   43.9390 C.ar  145  TRP145      0.0012
    101  CZ2        8.3760   -2.2090   44.8250 C.ar  145  TRP145      0.0191
    102  CZ3        8.0300    0.1200   44.2620 C.ar  145  TRP145      0.0001
    103  CH2        7.5490   -1.1190   44.7030 C.ar  145  TRP145      0.0015
    104  N         10.5330   -0.0530   52.9830 N.3   154  PHE154     -0.1241
    105  CA         9.4640   -0.9860   52.6210 C.3   154  PHE154      0.1605
    106  C          8.6970   -1.4860   53.8390 C.2   154  PHE154      0.2264
    107  O          7.6280   -2.0680   53.7100 O.2   154  PHE154     -0.2867
    108  CB        10.0110   -2.1970   51.8450 C.3   154  PHE154      0.0534
    109  CG        10.3750   -1.9000   50.4090 C.ar  154  PHE154     -0.0203
    110  CD1        9.4140   -1.4580   49.5100 C.ar  154  PHE154     -0.0042
    111  CD2       11.6740   -2.0910   49.9550 C.ar  154  PHE154     -0.0042
    112  CE1        9.7440   -1.1970   48.1980 C.ar  154  PHE154     -0.0003
    113  CE2       12.0100   -1.8350   48.6390 C.ar  154  PHE154     -0.0003
    114  CZ        11.0430   -1.3830   47.7580 C.ar  154  PHE154     -0.0000
    115  N         10.0410   -3.7570   55.9480 N.3   156  MET156     -0.1245
    116  CA        10.4270   -5.1620   56.0010 C.3   156  MET156      0.1570
    117  C         11.5450   -5.3440   57.0170 C.2   156  MET156      0.2261
    118  O         12.4640   -4.5250   57.0960 O.2   156  MET156     -0.2867
    119  CB        10.9160   -5.6480   54.6350 C.3   156  MET156      0.0387
    120  CG         9.8230   -6.0200   53.6380 C.3   156  MET156      0.0595
    121  SD        10.5040   -6.1160   51.9610 S.3   156  MET156     -0.1393
    122  CE        11.9530   -7.1300   52.2640 C.3   156  MET156      0.0692
    123  N         13.5360   -8.0010   56.9190 N.3   158  MET158     -0.1230
    124  CA        14.6170   -8.4700   56.0450 C.3   158  MET158      0.1702
    125  C         15.7280   -7.4410   55.9320 C.2   158  MET158      0.2592
    126  O         15.4480   -6.2530   55.7990 O.2   158  MET158     -0.2718
    127  CB        14.0750   -8.7200   54.6360 C.3   158  MET158      0.0401
    128  CG        13.2770   -9.9840   54.4700 C.3   158  MET158      0.0596
    129  SD        14.3420  -11.3400   53.9330 S.3   158  MET158     -0.1393
    130  CE        13.2030  -12.6710   54.0650 C.3   158  MET158      0.0692
    131  N         16.9810   -7.8960   55.9620 N.am  159  ALA159     -0.1980
    132  CA        18.1190   -6.9960   55.7430 C.3   159  ALA159      0.1597
    133  C         18.2040   -6.6520   54.2580 C.2   159  ALA159      0.2287
    134  O         17.2880   -6.9690   53.5070 O.2   159  ALA159     -0.2864
    135  CB        19.4190   -7.6270   56.2360 C.3   159  ALA159      0.0319
    136  N         21.2050   -8.6650   50.2320 N.3   162  ALA162     -0.1231
    137  CA        20.6610   -9.2350   49.0080 C.3   162  ALA162      0.1694
    138  C         20.4590   -8.1670   47.9250 C.2   162  ALA162      0.2592
    139  O         20.7400   -8.4020   46.7410 O.2   162  ALA162     -0.2718
    140  CB        19.3520   -9.9590   49.2980 C.3   162  ALA162      0.0304
    141  N         19.9780   -6.9990   48.3380 N.am  163  HIS163     -0.1976
    142  CA        19.6400   -5.9300   47.4020 C.3   163  HIS163      0.1656
    143  C         20.8570   -5.4200   46.6370 C.2   163  HIS163      0.2291
    144  O         20.8470   -5.3740   45.4130 O.2   163  HIS163     -0.2864
    145  CB        18.9850   -4.7520   48.1320 C.3   163  HIS163      0.0771
    146  CG        17.6530   -5.0630   48.7470 C.ar  163  HIS163      0.0820
    147  ND1       16.9470   -4.1180   49.4640 N.ar  163  HIS163     -0.2267
    148  CD2       16.8980   -6.1930   48.7640 C.ar  163  HIS163      0.1154
    149  CE1       15.8130   -4.6420   49.8920 C.ar  163  HIS163      0.1986
    150  NE2       15.7560   -5.8880   49.4650 N.ar  163  HIS163     -0.2212
@<TRIPOS>BOND
     1    81    80    2
     2    80    79    1
     3    35    34    2
     4    79    78    1
     5    79    82    1
     6    34    33    1
     7    24    23    2
     8    77    76    2
     9    82    83    1
    10    23    32   am
    11    23    22    1
    12    33    32    1
    13    33    36    1
    14    76    75    1
    15    94    95    1
    16    94    91    1
    17    84    83   ar
    18    84    86   ar
    19    22    21    1
    20    22    25    1
    21    83    85   ar
    22    36    37    1
    23    95    97   ar
    24    95    96   ar
    25    90    91    1
    26    71    70    2
    27   100    97   ar
    28   100   102   ar
    29    97    99   ar
    30    96    98   ar
    31   102   103   ar
    32    86    88   ar
    33    91    92    1
    34    27    29   ar
    35    27    26   ar
    36    99    98   ar
    37    99   101   ar
    38    70    69    1
    39    70    74   am
    40    75    74    1
    41    25    26    1
    42    38    37    2
    43   103   101   ar
    44    37    39   am
    45    69    68    1
    46    69    72    1
    47    85    87   ar
    48    29    31   ar
    49    92    93    2
    50    26    28   ar
    51   144   143    2
    52    88    87   ar
    53    88    89    1
    54    72    73    1
    55    31    30   ar
    56    28    30   ar
    57    14    13    2
    58    67    66    2
    59   143   142    1
    60    66    65    1
    61   139   138    2
    62     9    10   ar
    63     9     7   ar
    64    10     8   ar
    65   142   145    1
    66   142   141    1
    67    13    12    1
    68   114   112   ar
    69   114   113   ar
    70     1     2    1
    71     7     6   ar
    72   138   141   am
    73   138   137    1
    74     3     4    2
    75     3     2    1
    76    65    64    1
    77     8     6   ar
    78   145   146    1
    79   112   110   ar
    80     6     5    1
    81   113   111   ar
    82   146   148   ar
    83   146   147   ar
    84     2     5    1
    85   148   150   ar
    86    64    62   am
    87    12    11    1
    88    12    15    1
    89   137   140    1
    90   137   136    1
    91    18    20   ar
    92    18    16   ar
    93   147   149   ar
    94   150   149   ar
    95   110   109   ar
    96    20    19   ar
    97    16    15    1
    98    16    17   ar
    99   111   109   ar
   100    62    63    2
   101    62    61    1
   102    19    17   ar
   103   109   108    1
   104    61    60    1
   105    57    55   ar
   106    57    59   ar
   107    40    41    1
   108    55    54   ar
   109    59    58   ar
   110   108   105    1
   111   121   122    1
   112   121   120    1
   113    44    41    1
   114    44    45    1
   115    60    51   am
   116    41    42    1
   117   105   104    1
   118   105   106    1
   119    52    51    2
   120    47    46    2
   121    51    50    1
   122    45    46    1
   123    54    56   ar
   124    54    53    1
   125    58    56   ar
   126    46    48   am
   127   134   133    2
   128   120   119    1
   129   107   106    2
   130    42    43    2
   131    53    50    1
   132   129   130    1
   133   129   128    1
   134    50    49    1
   135   133   132    1
   136   128   127    1
   137   119   116    1
   138   127   124    1
   139   132   131    1
   140   132   135    1
   141   126   125    2
   142   125   131   am
   143   125   124    1
   144   115   116    1
   145   116   117    1
   146   124   123    1
   147   117   118    2
