@<TRIPOS>MOLECULE
tmp/2xoyB00.pdb
 95 93 0 0 0
SMALL
GASTEIGER

@<TRIPOS>ATOM
      1  N         58.4540  -23.7930    3.5220 N.3   186  TYR186     -0.1227
      2  CA        57.9000  -24.9470    2.8020 C.3   186  TYR186      0.1736
      3  C         56.4060  -25.0180    2.9730 C.2   186  TYR186      0.2595
      4  O         55.6580  -25.1790    2.0140 O.2   186  TYR186     -0.2718
      5  CB        58.4340  -26.2760    3.3740 C.3   186  TYR186      0.0548
      6  CG        59.9290  -26.5170    3.3190 C.ar  186  TYR186     -0.0200
      7  CD1       60.7050  -25.9900    2.2970 C.ar  186  TYR186     -0.0009
      8  CD2       60.5560  -27.3120    4.2810 C.ar  186  TYR186     -0.0009
      9  CE1       62.0720  -26.2180    2.2440 C.ar  186  TYR186      0.0417
     10  CE2       61.9240  -27.5530    4.2420 C.ar  186  TYR186      0.0417
     11  CZ        62.6790  -27.0010    3.2200 C.ar  186  TYR186      0.1957
     12  OH        64.0460  -27.2300    3.1690 O.3   186  TYR186     -0.2866
     13  N         56.0000  -24.9250    4.2320 N.am  187  TRP187     -0.1976
     14  CA        54.6320  -25.1510    4.6490 C.3   187  TRP187      0.1640
     15  C         53.7730  -23.9330    4.3720 C.2   187  TRP187      0.2290
     16  O         52.5440  -23.9950    4.4450 O.2   187  TRP187     -0.2864
     17  CB        54.6060  -25.4560    6.1390 C.3   187  TRP187      0.0576
     18  CG        55.6460  -26.4470    6.5720 C.ar  187  TRP187      0.0006
     19  CD1       56.5620  -26.3060    7.5840 C.ar  187  TRP187      0.0946
     20  CD2       55.8750  -27.7300    6.0030 C.ar  187  TRP187      0.0152
     21  NE1       57.3390  -27.4300    7.6730 N.ar  187  TRP187     -0.2442
     22  CE2       56.9390  -28.3200    6.7100 C.ar  187  TRP187      0.0810
     23  CE3       55.2800  -28.4440    4.9640 C.ar  187  TRP187      0.0012
     24  CZ2       57.4210  -29.5950    6.4060 C.ar  187  TRP187      0.0191
     25  CZ3       55.7620  -29.7100    4.6650 C.ar  187  TRP187      0.0001
     26  CH2       56.8160  -30.2730    5.3840 C.ar  187  TRP187      0.0015
     27  N         50.2590  -22.8130    5.7470 N.3   190  ASN190     -0.1225
     28  CA        49.7580  -23.9210    6.5560 C.3   190  ASN190      0.1785
     29  C         50.7020  -24.3460    7.6690 C.2   190  ASN190      0.2597
     30  O         50.3770  -25.2390    8.4550 O.2   190  ASN190     -0.2718
     31  CB        49.4350  -25.1260    5.6800 C.3   190  ASN190      0.1169
     32  CG        48.3380  -24.8390    4.6850 C.2   190  ASN190      0.2627
     33  OD1       47.4130  -24.0660    4.9660 O.2   190  ASN190     -0.2716
     34  ND2       48.4360  -25.4520    3.5070 N.am  190  ASN190     -0.0877
     35  N         51.8660  -23.7060    7.7240 N.am  191  CYS191     -0.1956
     36  CA        52.8750  -24.0090    8.7180 C.3   191  CYS191      0.1843
     37  C         52.2980  -23.8650   10.1130 C.2   191  CYS191      0.2625
     38  O         51.6420  -22.8790   10.4150 O.2   191  CYS191     -0.2714
     39  CB        54.0700  -23.0790    8.5260 C.3   191  CYS191      0.0997
     40  SG        55.2650  -23.1240    9.8560 S.3   191  CYS191     -0.0797
     41  N         52.5200  -24.8580   10.9590 N.am  192  ARG192     -0.1963
     42  CA        51.9740  -24.8030   12.3050 C.3   192  ARG192      0.1729
     43  C         53.0280  -24.2740   13.2750 C.2   192  ARG192      0.2616
     44  O         52.7210  -23.9190   14.4000 O.2   192  ARG192     -0.2715
     45  CB        51.4300  -26.1730   12.7310 C.3   192  ARG192      0.0348
     46  CG        50.6580  -26.8830   11.6260 C.3   192  ARG192      0.0492
     47  CD        49.9020  -28.1010   12.0920 C.3   192  ARG192      0.2205
     48  NE        48.7560  -27.7580   12.9290 N.pl3 192  ARG192     -0.0865
     49  CZ        48.0110  -28.6560   13.5740 C.cat 192  ARG192      0.5346
     50  NH1       48.2990  -29.9490   13.4700 N.pl3 192  ARG192      0.1354
     51  NH2       46.9850  -28.2700   14.3290 N.pl3 192  ARG192      0.1354
     52  N         54.2700  -24.2020   12.8070 N.am  193  THR193     -0.1951
     53  CA        55.3660  -23.6720   13.6080 C.3   193  THR193      0.1897
     54  C         55.4890  -22.1250   13.5380 C.2   193  THR193      0.2313
     55  O         56.2090  -21.5220   14.3250 O.2   193  THR193     -0.2863
     56  CB        56.7040  -24.4560   13.3470 C.3   193  THR193      0.1794
     57  OG1       57.8210  -23.6910   13.7830 O.3   193  THR193     -0.2208
     58  CG2       56.8850  -24.7830   11.8890 C.3   193  THR193      0.0378
     59  N         51.8000  -23.6050    0.3990 N.3   209  GLN209     -0.1245
     60  CA        52.6000  -24.7630    0.7890 C.3   209  GLN209      0.1566
     61  C         53.2590  -25.3500   -0.4710 C.2   209  GLN209      0.2260
     62  O         52.6120  -25.4990   -1.5020 O.2   209  GLN209     -0.2867
     63  CB        51.7240  -25.8060    1.5050 C.3   209  GLN209      0.0367
     64  CG        52.4780  -27.0520    2.0130 C.3   209  GLN209      0.0905
     65  CD        51.6510  -27.9280    2.9590 C.2   209  GLN209      0.2608
     66  OE1       50.6010  -27.5280    3.4450 O.2   209  GLN209     -0.2717
     67  NE2       52.1400  -29.1290    3.2280 N.am  209  GLN209     -0.0878
     68  N         55.9160  -27.9550   -0.0530 N.3   211  ARG211     -0.1245
     69  CA        56.4820  -29.2400    0.3280 C.3   211  ARG211      0.1563
     70  C         55.5030  -30.0480    1.1500 C.2   211  ARG211      0.2260
     71  O         54.9000  -29.5300    2.0720 O.2   211  ARG211     -0.2867
     72  CB        57.7630  -29.0330    1.1090 C.3   211  ARG211      0.0307
     73  CG        58.8600  -28.4230    0.2520 C.3   211  ARG211      0.0489
     74  CD        59.8240  -29.4970   -0.1840 C.3   211  ARG211      0.2205
     75  NE        60.1400  -30.3630    0.9520 N.pl3 211  ARG211     -0.0865
     76  CZ        61.3640  -30.5610    1.4330 C.cat 211  ARG211      0.5346
     77  NH1       62.4080  -29.9660    0.8630 N.pl3 211  ARG211      0.1354
     78  NH2       61.5430  -31.3650    2.4770 N.pl3 211  ARG211      0.1354
     79  N         56.3930  -33.3520    2.1680 N.3   213  LYS213     -0.1231
     80  CA        57.2130  -34.4350    2.7020 C.3   213  LYS213      0.1693
     81  C         56.6870  -34.9670    4.0240 C.2   213  LYS213      0.2592
     82  O         56.4370  -36.1630    4.1550 O.2   213  LYS213     -0.2718
     83  CB        58.6580  -33.9680    2.8880 C.3   213  LYS213      0.0285
     84  CG        59.6450  -34.9920    3.3730 C.3   213  LYS213      0.0035
     85  CD        59.9350  -35.9590    2.2700 C.3   213  LYS213      0.0206
     86  CE        61.1420  -36.8360    2.6190 C.3   213  LYS213      0.1093
     87  NZ        60.8210  -37.8250    3.6330 N.3   213  LYS213     -0.1314
     88  N         56.5350  -34.0810    5.0060 N.am  214  ASN214     -0.1974
     89  CA        56.0050  -34.4730    6.3090 C.3   214  ASN214      0.1688
     90  C         56.9200  -35.4470    7.0610 C.2   214  ASN214      0.2292
     91  O         57.9890  -35.8340    6.5690 O.2   214  ASN214     -0.2864
     92  CB        54.6000  -35.0730    6.1500 C.3   214  ASN214      0.1181
     93  CG        54.0950  -35.7350    7.4240 C.2   214  ASN214      0.2629
     94  OD1       53.9520  -35.0860    8.4700 O.2   214  ASN214     -0.2716
     95  ND2       53.8160  -37.0390    7.3400 N.am  214  ASN214     -0.0877
@<TRIPOS>BOND
     1    62    61    2
     2    61    60    1
     3    74    73    1
     4    74    75    1
     5    68    69    1
     6    73    72    1
     7    69    72    1
     8    69    70    1
     9    59    60    1
    10    60    63    1
    11    77    76    1
    12    75    76    2
    13    70    71    2
    14    76    78    1
    15    63    64    1
    16    64    65    1
    17     4     3    2
    18    79    80    1
    19     9     7   ar
    20     9    11   ar
    21    85    86    1
    22    85    84    1
    23     7     6   ar
    24    86    87    1
    25    80    83    1
    26    80    81    1
    27     2     3    1
    28     2     5    1
    29     2     1    1
    30    83    84    1
    31    65    67   am
    32    65    66    2
    33     3    13   am
    34    12    11    1
    35    11    10   ar
    36     6     5    1
    37     6     8   ar
    38    34    32   am
    39    81    82    2
    40    81    88   am
    41    13    14    1
    42    10     8   ar
    43    15    16    2
    44    15    14    1
    45    14    17    1
    46    25    23   ar
    47    25    26   ar
    48    32    33    2
    49    32    31    1
    50    23    20   ar
    51    88    89    1
    52    26    24   ar
    53    31    28    1
    54    27    28    1
    55    20    18   ar
    56    20    22   ar
    57    17    18    1
    58    92    89    1
    59    92    93    1
    60    89    90    1
    61    24    22   ar
    62    28    29    1
    63    91    90    2
    64    18    19   ar
    65    22    21   ar
    66    95    93   am
    67    93    94    2
    68    19    21   ar
    69    29    35   am
    70    29    30    2
    71    35    36    1
    72    39    36    1
    73    39    40    1
    74    36    37    1
    75    37    38    2
    76    37    41   am
    77    41    42    1
    78    46    47    1
    79    46    45    1
    80    58    56    1
    81    47    48    1
    82    42    45    1
    83    42    43    1
    84    52    43   am
    85    52    53    1
    86    48    49    2
    87    43    44    2
    88    56    53    1
    89    56    57    1
    90    50    49    1
    91    54    53    1
    92    54    55    2
    93    49    51    1
