@<TRIPOS>MOLECULE
tmp/2xp3A01.pdb
 122 114 0 0 0
SMALL
GASTEIGER

@<TRIPOS>ATOM
      1  N         32.3300  -21.8250    8.1610 N.3    41  HIS41      -0.1241
      2  CA        31.9560  -21.2530    9.4240 C.3    41  HIS41       0.1621
      3  C         31.2870  -19.9260    9.1540 C.2    41  HIS41       0.2264
      4  O         31.3860  -19.3430    8.0280 O.2    41  HIS41      -0.2867
      5  CB        33.1370  -21.1040   10.4250 C.3    41  HIS41       0.0745
      6  CG        34.0200  -19.9000   10.2080 C.ar   41  HIS41       0.0817
      7  ND1       34.6340  -19.2500   11.2530 N.ar   41  HIS41      -0.2268
      8  CD2       34.4960  -19.3210    9.0800 C.ar   41  HIS41       0.1154
      9  CE1       35.3910  -18.2650   10.7900 C.ar   41  HIS41       0.1986
     10  NE2       35.3400  -18.2940    9.4680 N.ar   41  HIS41      -0.2212
     11  N         31.0710  -16.5520   11.5210 N.3    43  LEU43      -0.1245
     12  CA        31.6180  -15.9000   12.6960 C.3    43  LEU43       0.1561
     13  C         30.6960  -14.7330   13.0570 C.2    43  LEU43       0.2260
     14  O         30.2980  -13.9810   12.1710 O.2    43  LEU43      -0.2867
     15  CB        33.0490  -15.3340   12.3630 C.3    43  LEU43       0.0270
     16  CG        33.8130  -14.5200   13.3860 C.3    43  LEU43       0.0019
     17  CD1       34.0780  -15.2170   14.7230 C.3    43  LEU43       0.0001
     18  CD2       35.1880  -14.1200   12.8040 C.3    43  LEU43       0.0001
     19  N         31.2320  -11.4780   15.4480 N.3    45  LYS45      -0.1245
     20  CA        32.1760  -10.8150   16.3770 C.3    45  LYS45       0.1561
     21  C         31.4470   -9.9900   17.4360 C.2    45  LYS45       0.2260
     22  O         30.2440   -9.6690   17.2760 O.2    45  LYS45      -0.2867
     23  CB        33.1520   -9.8940   15.6080 C.3    45  LYS45       0.0271
     24  CG        34.1480  -10.6240   14.7310 C.3    45  LYS45       0.0035
     25  CD        35.1970   -9.6670   14.1430 C.3    45  LYS45       0.0206
     26  CE        36.2580  -10.4770   13.4290 C.3    45  LYS45       0.1093
     27  NZ        37.3260   -9.6650   12.9680 N.3    45  LYS45      -0.1314
     28  N         39.1270   -9.9820   19.5960 N.3    50  ARG50      -0.1231
     29  CA        40.5190   -9.6960   19.2370 C.3    50  ARG50       0.1694
     30  C         40.5910   -8.5080   18.2730 C.2    50  ARG50       0.2591
     31  O         41.2260   -7.4770   18.5680 O.2    50  ARG50      -0.2718
     32  CB        41.1520  -10.9390   18.6150 C.3    50  ARG50       0.0321
     33  CG        42.6310  -10.8510   18.4270 C.3    50  ARG50       0.0489
     34  CD        43.2440  -12.2050   18.0180 C.3    50  ARG50       0.2205
     35  NE        42.7050  -12.7240   16.7440 N.pl3  50  ARG50      -0.0865
     36  CZ        42.9340  -12.2200   15.5060 C.cat  50  ARG50       0.5346
     37  NH1       43.7030  -11.1320   15.3010 N.pl3  50  ARG50       0.1354
     38  NH2       42.3700  -12.8100   14.4450 N.pl3  50  ARG50       0.1354
     39  N         39.8870   -8.6340   17.1500 N.am   51  ARG51      -0.1980
     40  CA        39.7250   -7.5450   16.2410 C.3    51  ARG51       0.1597
     41  C         38.2170   -7.1510   16.0750 C.2    51  ARG51       0.2287
     42  O         37.5000   -7.7860   15.3000 O.2    51  ARG51      -0.2864
     43  CB        40.3680   -7.9190   14.9040 C.3    51  ARG51       0.0334
     44  CG        40.7660   -6.6770   14.0840 C.3    51  ARG51       0.0492
     45  CD        41.5480   -7.0230   12.7760 C.3    51  ARG51       0.2205
     46  NE        40.7260   -7.6260   11.7140 N.pl3  51  ARG51      -0.0865
     47  CZ        40.0400   -6.9310   10.7920 C.cat  51  ARG51       0.5346
     48  NH1       40.0560   -5.5860   10.7880 N.pl3  51  ARG51       0.1354
     49  NH2       39.3340   -7.5780    9.8620 N.pl3  51  ARG51       0.1354
     50  N         31.1690  -12.3880   10.0210 N.3    94  ASP94      -0.1225
     51  CA        32.1360  -11.3190   10.2120 C.3    94  ASP94       0.1805
     52  C         33.5570  -11.7710    9.7750 C.2    94  ASP94       0.2598
     53  O         34.5610  -11.0820    9.9510 O.2    94  ASP94      -0.2718
     54  CB        32.1120  -10.8640   11.6600 C.3    94  ASP94       0.1424
     55  CG        31.0100   -9.8050   11.9330 C.2    94  ASP94       0.3668
     56  OD1       30.9420   -8.8380   11.1360 O.co2  94  ASP94      -0.2456
     57  OD2       30.1970   -9.9340   12.9120 O.co2  94  ASP94      -0.2456
     58  N         33.6340  -12.9250    9.1350 N.am   95  CYS95      -0.1970
     59  CA        34.9180  -13.3340    8.6080 C.3    95  CYS95       0.1712
     60  C         34.8160  -13.1250    7.0850 C.2    95  CYS95       0.2296
     61  O         33.7190  -13.2950    6.5040 O.2    95  CYS95      -0.2864
     62  CB        35.1560  -14.7880    8.9810 C.3    95  CYS95       0.0983
     63  SG        36.6070  -15.4260    8.1310 S.3    95  CYS95      -0.0798
     64  N         36.4830  -22.6400    4.3410 N.3   104  LEU104     -0.1245
     65  CA        37.8840  -22.3940    4.6730 C.3   104  LEU104      0.1561
     66  C         38.8020  -23.4020    4.0280 C.2   104  LEU104      0.2260
     67  O         40.0080  -23.3100    4.2010 O.2   104  LEU104     -0.2867
     68  CB        38.1230  -22.4080    6.2030 C.3   104  LEU104      0.0270
     69  CG        37.2470  -21.5080    7.0780 C.3   104  LEU104      0.0019
     70  CD1       37.3760  -21.9390    8.5580 C.3   104  LEU104      0.0001
     71  CD2       37.6000  -20.0000    6.8340 C.3   104  LEU104      0.0001
     72  N         44.7070  -23.8480   13.3820 N.3   112  MET112     -0.1230
     73  CA        43.6520  -22.9110   13.8540 C.3   112  MET112      0.1702
     74  C         43.7300  -22.6650   15.3850 C.2   112  MET112      0.2592
     75  O         44.3710  -23.4210   16.0700 O.2   112  MET112     -0.2718
     76  CB        42.2760  -23.5160   13.4840 C.3   112  MET112      0.0401
     77  CG        42.0580  -23.7610   11.9650 C.3   112  MET112      0.0596
     78  SD        41.7580  -22.2370   10.9590 S.3   112  MET112     -0.1393
     79  CE        41.8910  -22.9140    9.2840 C.3   112  MET112      0.0692
     80  N         43.0920  -21.6270   15.9240 N.am  113  GLN113     -0.1979
     81  CA        42.8520  -21.6040   17.3590 C.3   113  GLN113      0.1601
     82  C         42.2530  -22.9700   17.8150 C.2   113  GLN113      0.2287
     83  O         41.3970  -23.5530   17.1310 O.2   113  GLN113     -0.2864
     84  CB        41.9120  -20.4590   17.7410 C.3   113  GLN113      0.0394
     85  CG        42.5250  -19.0240   17.5490 C.3   113  GLN113      0.0908
     86  CD        41.6840  -17.8840   18.2030 C.2   113  GLN113      0.2608
     87  OE1       41.1970  -18.0090   19.3550 O.2   113  GLN113     -0.2717
     88  NE2       41.5450  -16.7630   17.4800 N.am  113  GLN113     -0.0878
     89  N         38.4070  -23.8870   18.0210 N.3   116  PHE116     -0.1241
     90  CA        37.9040  -24.0850   16.6380 C.3   116  PHE116      0.1605
     91  C         38.4180  -25.4380   16.1200 C.2   116  PHE116      0.2264
     92  O         37.6610  -26.2760   15.6110 O.2   116  PHE116     -0.2867
     93  CB        38.3350  -22.9160   15.7440 C.3   116  PHE116      0.0534
     94  CG        37.6800  -22.9090   14.3560 C.ar  116  PHE116     -0.0203
     95  CD1       36.5460  -22.1090   14.1040 C.ar  116  PHE116     -0.0042
     96  CD2       38.1790  -23.7050   13.3220 C.ar  116  PHE116     -0.0042
     97  CE1       35.9590  -22.1120   12.8250 C.ar  116  PHE116     -0.0003
     98  CE2       37.5930  -23.6960   12.0820 C.ar  116  PHE116     -0.0003
     99  CZ        36.4550  -22.8850   11.8350 C.ar  116  PHE116     -0.0000
    100  N         35.9540  -18.3150   20.6280 N.3   134  THR134     -0.1218
    101  CA        37.4070  -18.1640   20.4160 C.3   134  THR134      0.1862
    102  C         37.6040  -16.7090   20.6710 C.2   134  THR134      0.2287
    103  O         36.6220  -15.9920   20.7870 O.2   134  THR134     -0.2866
    104  CB        37.8240  -18.3690   18.9320 C.3   134  THR134      0.1770
    105  OG1       37.3710  -17.2270   18.1530 O.3   134  THR134     -0.2211
    106  CG2       37.2760  -19.7070   18.3430 C.3   134  THR134      0.0375
    107  N         38.2670  -14.5190   18.5280 N.3   136  SER136     -0.1217
    108  CA        37.7880  -13.7810   17.3760 C.3   136  SER136      0.1889
    109  C         36.3130  -13.5430   17.5540 C.2   136  SER136      0.2288
    110  O         35.7870  -12.5360   17.0520 O.2   136  SER136     -0.2866
    111  CB        38.0140  -14.5490   16.0750 C.3   136  SER136      0.2089
    112  OG        39.3680  -14.9820   16.0040 O.3   136  SER136     -0.2183
    113  N         31.5990  -18.6560   16.7660 N.3   139  HIS139     -0.1241
    114  CA        31.5420  -19.3910   15.4800 C.3   139  HIS139      0.1621
    115  C         30.3650  -20.4410   15.4590 C.2   139  HIS139      0.2264
    116  O         30.0860  -21.0920   16.5040 O.2   139  HIS139     -0.2867
    117  CB        32.8110  -20.2420   15.3000 C.3   139  HIS139      0.0745
    118  CG        34.0840  -19.4530   15.2890 C.ar  139  HIS139      0.0817
    119  ND1       34.7480  -19.1350   14.1290 N.ar  139  HIS139     -0.2268
    120  CD2       34.8120  -18.9120   16.2960 C.ar  139  HIS139      0.1154
    121  CE1       35.8390  -18.4410   14.4100 C.ar  139  HIS139      0.1986
    122  NE2       35.8980  -18.2840   15.7180 N.ar  139  HIS139     -0.2212
@<TRIPOS>BOND
     1    66    67    2
     2    66    65    1
     3    64    65    1
     4    65    68    1
     5    68    69    1
     6    61    60    2
     7    71    69    1
     8    69    70    1
     9    60    59    1
    10     4     3    2
    11    63    62    1
    12     1     2    1
    13    59    62    1
    14    59    58    1
    15     8    10   ar
    16     8     6   ar
    17    58    52   am
    18     3     2    1
    19    79    78    1
    20     2     5    1
    21    10     9   ar
    22    52    53    2
    23    52    51    1
    24    49    47    1
    25    50    51    1
    26     6     5    1
    27     6     7   ar
    28    51    54    1
    29    48    47    1
    30     9     7   ar
    31    47    46    2
    32    78    77    1
    33    56    55   ar
    34    11    12    1
    35    54    55    1
    36    46    45    1
    37    99    98   ar
    38    99    97   ar
    39    55    57   ar
    40    77    76    1
    41    98    96   ar
    42    14    13    2
    43    15    12    1
    44    15    16    1
    45    12    13    1
    46    45    44    1
    47    18    16    1
    48    97    95   ar
    49    27    26    1
    50    96    94   ar
    51    72    73    1
    52    16    17    1
    53    26    25    1
    54    76    73    1
    55    73    74    1
    56    44    43    1
    57    95    94   ar
    58   119   121   ar
    59   119   118   ar
    60    25    24    1
    61    94    93    1
    62   121   122   ar
    63    38    36    1
    64    24    23    1
    65    43    40    1
    66   118   117    1
    67   118   120   ar
    68   117   114    1
    69    42    41    2
    70    37    36    1
    71    74    80   am
    72    74    75    2
    73    19    20    1
    74   115   114    1
    75   115   116    2
    76   114   113    1
    77    36    35    2
    78    23    20    1
    79    92    91    2
    80   122   120   ar
    81    93    90    1
    82    80    81    1
    83   112   111    1
    84   111   108    1
    85    41    40    1
    86    91    90    1
    87    40    39    1
    88    20    21    1
    89    90    89    1
    90    35    34    1
    91   110   109    2
    92    83    82    2
    93    39    30   am
    94    22    21    2
    95    81    84    1
    96    81    82    1
    97   108   109    1
    98   108   107    1
    99    88    86   am
   100    85    84    1
   101    85    86    1
   102    34    33    1
   103   105   104    1
   104    86    87    2
   105    30    31    2
   106    30    29    1
   107   106   104    1
   108    33    32    1
   109    32    29    1
   110   104   101    1
   111    29    28    1
   112   101   100    1
   113   101   102    1
   114   102   103    2
