@<TRIPOS>MOLECULE
tmp/2xp4A00.pdb
 122 120 0 0 0
SMALL
GASTEIGER

@<TRIPOS>ATOM
      1  N        -31.0970   -2.2630   42.3680 N.3    10  SER10      -0.1217
      2  CA       -32.4980   -2.1180   41.9610 C.3    10  SER10       0.1889
      3  C        -33.5260   -2.4930   43.0900 C.2    10  SER10       0.2288
      4  O        -33.4610   -3.5920   43.6350 O.2    10  SER10      -0.2866
      5  CB       -32.7600   -2.9770   40.7300 C.3    10  SER10       0.2089
      6  OG       -34.1650   -3.2750   40.6360 O.3    10  SER10      -0.2183
      7  N        -27.4850   -1.9930   39.0010 N.3    17  TYR17      -0.1241
      8  CA       -27.5170   -1.2570   37.7160 C.3    17  TYR17       0.1605
      9  C        -26.6130   -0.0050   37.8990 C.2    17  TYR17       0.2264
     10  O        -25.9480    0.1820   38.9800 O.2    17  TYR17      -0.2867
     11  CB       -28.9240   -0.9110   37.3510 C.3    17  TYR17       0.0534
     12  CG       -29.5630    0.1240   38.2590 C.ar   17  TYR17      -0.0201
     13  CD1      -29.6260    1.5010   37.8690 C.ar   17  TYR17      -0.0009
     14  CD2      -30.1130   -0.2530   39.4900 C.ar   17  TYR17      -0.0009
     15  CE1      -30.2320    2.4590   38.6720 C.ar   17  TYR17       0.0417
     16  CE2      -30.7060    0.6900   40.3400 C.ar   17  TYR17       0.0417
     17  CZ       -30.7800    2.0370   39.9180 C.ar   17  TYR17       0.1957
     18  OH       -31.3670    2.9640   40.7500 O.3    17  TYR17      -0.2866
     19  N        -26.1850    4.2720   37.3820 N.3    19  PHE19      -0.1241
     20  CA       -27.0510    5.4680   37.3610 C.3    19  PHE19       0.1605
     21  C        -26.0890    6.6140   37.1110 C.2    19  PHE19       0.2264
     22  O        -24.9810    6.6270   37.7370 O.2    19  PHE19      -0.2867
     23  CB       -27.6800    5.7240   38.7600 C.3    19  PHE19       0.0534
     24  CG       -28.4130    6.9950   38.8130 C.ar   19  PHE19      -0.0203
     25  CD1      -29.5000    7.2250   37.8950 C.ar   19  PHE19      -0.0042
     26  CD2      -28.0390    8.0350   39.7100 C.ar   19  PHE19      -0.0042
     27  CE1      -30.2570    8.5300   37.8590 C.ar   19  PHE19      -0.0003
     28  CE2      -28.7840    9.3260   39.6850 C.ar   19  PHE19      -0.0003
     29  CZ       -29.8940    9.5590   38.7520 C.ar   19  PHE19      -0.0000
     30  N        -28.9340   11.7180   34.4290 N.3    24  ASN24      -0.1225
     31  CA       -30.0490   10.9340   34.9110 C.3    24  ASN24       0.1785
     32  C        -30.3360    9.6770   34.1030 C.2    24  ASN24       0.2597
     33  O        -31.4370    9.0560   34.2300 O.2    24  ASN24      -0.2718
     34  CB       -31.3330   11.8250   35.0680 C.3    24  ASN24       0.1169
     35  CG       -31.2130   12.8670   36.2440 C.2    24  ASN24       0.2627
     36  OD1      -31.7460   14.0090   36.2000 O.2    24  ASN24      -0.2716
     37  ND2      -30.5560   12.4280   37.2950 N.am   24  ASN24      -0.0877
     38  N        -29.3710    9.2180   33.3360 N.am   25  ALA25      -0.1966
     39  CA       -29.5470    7.9650   32.5850 C.3    25  ALA25       0.1728
     40  C        -29.3800    6.7770   33.5750 C.2    25  ALA25       0.2617
     41  O        -28.7260    6.9070   34.6450 O.2    25  ALA25      -0.2715
     42  CB       -28.4480    7.8460   31.5020 C.3    25  ALA25       0.0334
     43  N        -30.0940    5.6690   33.2890 N.am   26  SER26      -0.1936
     44  CA       -29.8160    4.4630   33.9940 C.3    26  SER26       0.2055
     45  C        -29.7630    3.2950   33.0420 C.2    26  SER26       0.2643
     46  O        -30.5350    3.2210   32.0630 O.2    26  SER26      -0.2714
     47  CB       -30.8950    4.1930   35.0860 C.3    26  SER26       0.2130
     48  OG       -32.1880    4.3540   34.5230 O.3    26  SER26      -0.2179
     49  N        -28.8950    2.3360   33.3680 N.am   27  GLN27      -0.1963
     50  CA       -28.7540    1.1880   32.4820 C.3    27  GLN27       0.1733
     51  C        -28.2930   -0.0400   33.2900 C.2    27  GLN27       0.2616
     52  O        -27.6590    0.1190   34.3290 O.2    27  GLN27      -0.2715
     53  CB       -27.6900    1.4690   31.4010 C.3    27  GLN27       0.0408
     54  CG       -26.3010    1.7220   31.9590 C.3    27  GLN27       0.0908
     55  CD       -25.3230    2.0990   30.8450 C.2    27  GLN27       0.2608
     56  OE1      -25.5600    3.0700   30.1040 O.2    27  GLN27      -0.2717
     57  NE2      -24.2370    1.3360   30.7050 N.am   27  GLN27      -0.0878
     58  N        -28.6040   -1.2360   32.7780 N.am   28  TRP28      -0.1974
     59  CA       -28.1660   -2.4960   33.4130 C.3    28  TRP28       0.1640
     60  C        -26.6490   -2.7640   33.2840 C.2    28  TRP28       0.2290
     61  O        -26.0430   -3.0700   34.2660 O.2    28  TRP28      -0.2864
     62  CB       -29.0290   -3.7180   32.9920 C.3    28  TRP28       0.0576
     63  CG       -30.4810   -3.6640   33.4180 C.ar   28  TRP28       0.0006
     64  CD1      -31.5610   -3.4760   32.5860 C.ar   28  TRP28       0.0946
     65  CD2      -31.0140   -3.7080   34.7700 C.ar   28  TRP28       0.0152
     66  NE1      -32.6930   -3.4300   33.3180 N.ar   28  TRP28      -0.2442
     67  CE2      -32.4100   -3.5700   34.6560 C.ar   28  TRP28       0.0810
     68  CE3      -30.4340   -3.9170   36.0750 C.ar   28  TRP28       0.0012
     69  CZ2      -33.2990   -3.5840   35.7920 C.ar   28  TRP28       0.0191
     70  CZ3      -31.2980   -3.9370   37.2150 C.ar   28  TRP28       0.0001
     71  CH2      -32.7280   -3.7420   37.0650 C.ar   28  TRP28       0.0015
     72  N        -39.7640    8.3460   27.3720 N.3    74  ILE74      -0.1231
     73  CA       -38.5380    7.5830   27.5530 C.3    74  ILE74       0.1692
     74  C        -38.8680    6.1060   27.4610 C.2    74  ILE74       0.2591
     75  O        -38.0860    5.3220   26.8300 O.2    74  ILE74      -0.2718
     76  CB       -37.8620    7.8970   28.9290 C.3    74  ILE74       0.0266
     77  CG1      -37.2670    9.3540   28.8710 C.3    74  ILE74       0.0019
     78  CG2      -36.7250    6.9320   29.2680 C.3    74  ILE74       0.0020
     79  CD1      -36.8640    9.8800   30.3280 C.3    74  ILE74       0.0001
     80  N        -40.0070    5.7100   28.0430 N.am   75  GLN75      -0.1979
     81  CA       -40.3910    4.2850   28.0140 C.3    75  GLN75       0.1601
     82  C        -40.6060    3.7580   26.5950 C.2    75  GLN75       0.2287
     83  O        -40.0700    2.7010   26.2010 O.2    75  GLN75      -0.2864
     84  CB       -41.6470    4.0430   28.8300 C.3    75  GLN75       0.0394
     85  CG       -41.3610    4.0340   30.3510 C.3    75  GLN75       0.0908
     86  CD       -42.6220    3.5200   31.1240 C.2    75  GLN75       0.2608
     87  OE1      -43.6610    4.1570   31.0380 O.2    75  GLN75      -0.2717
     88  NE2      -42.5370    2.3180   31.7940 N.am   75  GLN75      -0.0878
     89  N        -37.2650    3.7140   24.7580 N.3    78  LYS78      -0.1245
     90  CA       -36.4280    2.5500   25.1180 C.3    78  LYS78       0.1561
     91  C        -36.9840    1.1810   24.6820 C.2    78  LYS78       0.2260
     92  O        -36.2010    0.2610   24.4610 O.2    78  LYS78      -0.2867
     93  CB       -36.1930    2.4970   26.6620 C.3    78  LYS78       0.0271
     94  CG       -35.1600    3.5660   27.0790 C.3    78  LYS78       0.0035
     95  CD       -34.8300    3.3430   28.5090 C.3    78  LYS78       0.0206
     96  CE       -33.5090    4.1190   28.8360 C.3    78  LYS78       0.1093
     97  NZ       -32.9640    3.5780   30.2200 N.3    78  LYS78      -0.1314
     98  N        -28.8870    8.4350   25.2200 N.3   127  MET127     -0.1230
     99  CA       -29.9440    9.2810   25.6130 C.3   127  MET127      0.1702
    100  C        -29.9630    9.5110   27.1620 C.2   127  MET127      0.2593
    101  O        -29.6510    8.5830   27.9430 O.2   127  MET127     -0.2718
    102  CB       -31.2390    8.6410   25.1430 C.3   127  MET127      0.0401
    103  CG       -32.5120    9.4150   25.4370 C.3   127  MET127      0.0596
    104  SD       -34.0100    8.5960   24.8320 S.3   127  MET127     -0.1393
    105  CE       -34.3140    7.3080   26.0060 C.3   127  MET127      0.0692
    106  N        -30.2650   10.7370   27.5680 N.am  128  SER128     -0.1938
    107  CA       -30.3110   11.1060   29.0060 C.3   128  SER128      0.2055
    108  C        -31.5970   10.5420   29.6380 C.2   128  SER128      0.2644
    109  O        -32.5810   10.1040   28.9470 O.2   128  SER128     -0.2714
    110  CB       -30.3250   12.6750   29.1420 C.3   128  SER128      0.2130
    111  OG       -31.6580   13.1020   28.7260 O.3   128  SER128     -0.2179
    112  N        -31.7090   10.6120   30.9840 N.am  129  GLY129     -0.1940
    113  CA       -33.0630   10.5890   31.5680 C.3   129  GLY129      0.1998
    114  C        -33.6070   12.0130   31.6140 C.2   129  GLY129      0.2478
    115  O        -33.1210   12.9170   30.8600 O.2   129  GLY129     -0.2729
    116  N        -34.5840   12.2680   32.4800 N.am  130  PRO130     -0.2771
    117  CA       -35.1900   13.6380   32.5560 C.3   130  PRO130      0.1083
    118  C        -34.1800   14.6100   33.0870 C.3   130  PRO130      0.2017
    119  O        -33.5790   14.3720   34.2000 O.3   130  PRO130     -0.2186
    120  CB       -36.3670   13.5160   33.5680 C.3   130  PRO130      0.0243
    121  CG       -36.6220   11.9540   33.6320 C.3   130  PRO130      0.0233
    122  CD       -35.2510   11.2430   33.3310 C.3   130  PRO130      0.0935
@<TRIPOS>BOND
     1    92    91    2
     2    91    90    1
     3    89    90    1
     4   104   103    1
     5   104   105    1
     6    90    93    1
     7   102   103    1
     8   102    99    1
     9    98    99    1
    10    99   100    1
    11    83    82    2
    12    82    81    1
    13    93    94    1
    14    75    74    2
    15    94    95    1
    16   100   106   am
    17   100   101    2
    18    72    73    1
    19    74    73    1
    20    74    80   am
    21    73    76    1
    22   106   107    1
    23    81    80    1
    24    81    84    1
    25    95    96    1
    26   111   110    1
    27    84    85    1
    28    96    97    1
    29    77    76    1
    30    77    79    1
    31    76    78    1
    32   109   108    2
    33   107   110    1
    34   107   108    1
    35   108   112   am
    36    56    55    2
    37    85    86    1
    38    57    55   am
    39    55    54    1
    40   115   114    2
    41   112   113    1
    42    87    86    2
    43    86    88   am
    44    53    54    1
    45    53    50    1
    46    42    39    1
    47   113   114    1
    48   114   116   am
    49    46    45    2
    50   116   117    1
    51   116   122    1
    52    50    51    1
    53    50    49    1
    54   117   118    1
    55   117   120    1
    56    39    38    1
    57    39    40    1
    58    64    66   ar
    59    64    63   ar
    60    58    51   am
    61    58    59    1
    62    62    59    1
    63    62    63    1
    64    45    49   am
    65    45    44    1
    66   118   119    1
    67    60    59    1
    68    60    61    2
    69    43    40   am
    70    43    44    1
    71    51    52    2
    72    66    67   ar
    73   122   121    1
    74    38    32   am
    75    63    65   ar
    76   120   121    1
    77    40    41    2
    78    44    47    1
    79    32    33    2
    80    32    31    1
    81    30    31    1
    82    48    47    1
    83    67    65   ar
    84    67    69   ar
    85    65    68   ar
    86    31    34    1
    87    34    35    1
    88    69    71   ar
    89    68    70   ar
    90    36    35    2
    91    35    37   am
    92    71    70   ar
    93    21    20    1
    94    21    22    2
    95    11     8    1
    96    11    12    1
    97    20    19    1
    98    20    23    1
    99     8     9    1
   100     8     7    1
   101    27    25   ar
   102    27    29   ar
   103    13    12   ar
   104    13    15   ar
   105    25    24   ar
   106     9    10    2
   107    12    14   ar
   108    15    17   ar
   109    29    28   ar
   110    23    24    1
   111    24    26   ar
   112    14    16   ar
   113    28    26   ar
   114    17    16   ar
   115    17    18    1
   116     6     5    1
   117     5     2    1
   118     2     1    1
   119     2     3    1
   120     3     4    2
