@<TRIPOS>MOLECULE
tmp/2xp5A01.pdb
 127 119 0 0 0
SMALL
GASTEIGER

@<TRIPOS>ATOM
      1  N        -33.0760   17.2750   21.2620 N.3    41  HIS41      -0.1241
      2  CA       -33.8040   17.0510   22.5120 C.3    41  HIS41       0.1621
      3  C        -35.3070   17.0660   22.2570 C.2    41  HIS41       0.2264
      4  O        -35.7930   17.5130   21.1830 O.2    41  HIS41      -0.2867
      5  CB       -33.3810   18.0610   23.5970 C.3    41  HIS41       0.0745
      6  CG       -33.8980   19.4540   23.3620 C.ar   41  HIS41       0.0817
      7  ND1      -34.3620   20.2600   24.3730 N.ar   41  HIS41      -0.2268
      8  CD2      -34.1150   20.1470   22.2110 C.ar   41  HIS41       0.1154
      9  CE1      -34.7450   21.4240   23.8750 C.ar   41  HIS41       0.1986
     10  NE2      -34.6350   21.3690   22.5530 N.ar   41  HIS41      -0.2212
     11  N        -38.4340   18.6650   24.5190 N.3    43  LEU43      -0.1245
     12  CA       -38.7260   19.5210   25.6460 C.3    43  LEU43       0.1561
     13  C        -40.1780   19.4120   26.0400 C.2    43  LEU43       0.2260
     14  O        -41.0620   19.5870   25.1910 O.2    43  LEU43      -0.2867
     15  CB       -38.3440   21.0170   25.3350 C.3    43  LEU43       0.0270
     16  CG       -38.6660   22.1110   26.3770 C.3    43  LEU43       0.0019
     17  CD1      -37.9810   22.0620   27.7830 C.3    43  LEU43       0.0001
     18  CD2      -38.5060   23.5010   25.7450 C.3    43  LEU43       0.0001
     19  N        -42.4890   21.4650   28.5410 N.3    45  LYS45      -0.1245
     20  CA       -42.6490   22.6380   29.3750 C.3    45  LYS45       0.1561
     21  C        -43.7250   22.4350   30.4220 C.2    45  LYS45       0.2260
     22  O        -44.6080   21.5730   30.2930 O.2    45  LYS45      -0.2867
     23  CB       -43.0300   23.8350   28.4920 C.3    45  LYS45       0.0271
     24  CG       -41.8180   24.3950   27.7670 C.3    45  LYS45       0.0035
     25  CD       -42.1900   25.7620   27.0680 C.3    45  LYS45       0.0206
     26  CE       -40.8990   26.2800   26.4290 C.3    45  LYS45       0.1093
     27  NZ       -40.9840   27.7250   25.9690 N.3    45  LYS45      -0.1314
     28  N        -39.7320   28.9820   32.4360 N.3    50  ARG50      -0.1231
     29  CA       -39.4780   30.4040   32.2190 C.3    50  ARG50       0.1694
     30  C        -40.4170   31.0190   31.1950 C.2    50  ARG50       0.2591
     31  O        -40.8910   32.1510   31.4040 O.2    50  ARG50      -0.2718
     32  CB       -38.0250   30.7240   31.9680 C.3    50  ARG50       0.0321
     33  CG       -37.7030   31.0190   30.5390 C.3    50  ARG50       0.0489
     34  CD       -37.1290   29.8320   29.8750 C.3    50  ARG50       0.2205
     35  NE       -35.6670   29.8550   29.9100 N.pl3  50  ARG50      -0.0865
     36  CZ       -34.8780   29.7720   28.8420 C.cat  50  ARG50       0.5346
     37  NH1      -35.3800   29.6500   27.6210 N.pl3  50  ARG50       0.1354
     38  NH2      -33.5690   29.8130   28.9990 N.pl3  50  ARG50       0.1354
     39  N        -40.7600   30.3030   30.1290 N.am   51  ARG51      -0.1980
     40  CA       -41.7760   30.7810   29.2020 C.3    51  ARG51       0.1597
     41  C        -42.8420   29.7090   29.0050 C.2    51  ARG51       0.2287
     42  O        -42.6700   28.8390   28.1430 O.2    51  ARG51      -0.2864
     43  CB       -41.1560   31.1160   27.8530 C.3    51  ARG51       0.0334
     44  CG       -40.1340   32.2280   27.8610 C.3    51  ARG51       0.0492
     45  CD       -40.0150   32.6740   26.4340 C.3    51  ARG51       0.2205
     46  NE       -41.1830   32.1690   25.7340 N.pl3  51  ARG51      -0.0865
     47  CZ       -41.3890   32.3240   24.4380 C.cat  51  ARG51       0.5346
     48  NH1      -42.4860   31.8170   23.8830 N.pl3  51  ARG51       0.1354
     49  NH2      -40.4890   32.9810   23.7030 N.pl3  51  ARG51       0.1354
     50  N        -45.6530   27.6000   24.0340 N.3    54  SER54      -0.1217
     51  CA       -44.8460   27.0870   22.8850 C.3    54  SER54       0.1889
     52  C        -45.6270   27.0600   21.5650 C.2    54  SER54       0.2288
     53  O        -46.8530   27.3030   21.5620 O.2    54  SER54      -0.2866
     54  CB       -44.3710   25.6420   23.2080 C.3    54  SER54       0.2089
     55  OG       -45.5100   24.7840   23.1270 O.3    54  SER54      -0.2183
     56  N        -41.8590   20.9820   23.0010 N.3    94  ASP94      -0.1225
     57  CA       -42.3210   22.3430   23.1920 C.3    94  ASP94       0.1805
     58  C        -41.2350   23.3060   22.7340 C.2    94  ASP94       0.2598
     59  O        -41.3380   24.5070   22.9790 O.2    94  ASP94      -0.2718
     60  CB       -42.7510   22.6540   24.6540 C.3    94  ASP94       0.1424
     61  CG       -44.1130   22.0600   25.0150 C.2    94  ASP94       0.3668
     62  OD1      -45.0740   22.2920   24.2610 O.co2  94  ASP94      -0.2456
     63  OD2      -44.2910   21.4180   26.0900 O.co2  94  ASP94      -0.2456
     64  N        -40.1880   22.8100   22.0750 N.am   95  CYS95      -0.1956
     65  CA       -39.1960   23.7080   21.5430 C.3    95  CYS95       0.1843
     66  C        -39.4030   23.8080   19.9880 C.2    95  CYS95       0.2626
     67  O        -39.9050   22.8900   19.3550 O.2    95  CYS95      -0.2714
     68  CB       -37.8300   23.1310   21.8400 C.3    95  CYS95       0.0997
     69  SG       -36.4250   24.0170   21.2190 S.3    95  CYS95      -0.0797
     70  N        -39.0320   24.9220   19.3830 N.am   96  SER96      -0.1950
     71  CA       -39.2290   25.0500   17.9350 C.3    96  SER96       0.1924
     72  C        -38.2800   24.1480   17.1680 C.2    96  SER96       0.2314
     73  O        -38.5350   23.8940   15.9740 O.2    96  SER96      -0.2863
     74  CB       -39.0900   26.5050   17.4390 C.3    96  SER96       0.2116
     75  OG       -37.9180   27.0740   18.0110 O.3    96  SER96      -0.2180
     76  N        -30.5310   20.2960   17.5320 N.3   104  LEU104     -0.1245
     77  CA       -30.0360   21.6040   17.9090 C.3   104  LEU104      0.1561
     78  C        -28.7520   21.9840   17.1990 C.2   104  LEU104      0.2260
     79  O        -28.3000   23.0860   17.3900 O.2   104  LEU104     -0.2867
     80  CB       -29.7980   21.6960   19.4370 C.3   104  LEU104      0.0270
     81  CG       -31.0520   21.5190   20.2840 C.3   104  LEU104      0.0019
     82  CD1      -30.5840   21.2740   21.7650 C.3   104  LEU104      0.0001
     83  CD2      -32.0090   22.6570   20.1290 C.3   104  LEU104      0.0001
     84  N        -25.2560   26.6110   26.3320 N.3   112  MET112     -0.1230
     85  CA       -26.5980   26.1580   26.7530 C.3   112  MET112      0.1702
     86  C        -26.7890   26.3490   28.2690 C.2   112  MET112      0.2592
     87  O        -25.8150   26.5850   28.9770 O.2   112  MET112     -0.2718
     88  CB       -26.7820   24.6650   26.3810 C.3   112  MET112      0.0401
     89  CG       -26.5500   24.3790   24.8820 C.3   112  MET112      0.0596
     90  SD       -27.8900   25.0120   23.8900 S.3   112  MET112     -0.1393
     91  CE       -27.3130   24.6800   22.2170 C.3   112  MET112      0.0692
     92  N        -28.0290   26.2820   28.7540 N.am  113  GLN113     -0.1979
     93  CA       -28.2480   26.1660   30.1890 C.3   113  GLN113      0.1601
     94  C        -27.3550   25.0970   30.7790 C.2   113  GLN113      0.2287
     95  O        -27.1310   24.0150   30.2060 O.2   113  GLN113     -0.2864
     96  CB       -29.7070   25.9460   30.4910 C.3   113  GLN113      0.0394
     97  CG       -30.4690   27.1060   29.8840 C.3   113  GLN113      0.0908
     98  CD       -31.9050   27.1190   30.2930 C.2   113  GLN113      0.2608
     99  OE1      -32.8010   26.8550   29.4790 O.2   113  GLN113     -0.2717
    100  NE2      -32.1440   27.3700   31.5730 N.am  113  GLN113     -0.0878
    101  N        -28.3910   21.3910   30.9970 N.3   116  PHE116     -0.1241
    102  CA       -28.5090   20.8940   29.6330 C.3   116  PHE116      0.1605
    103  C        -27.1030   20.5830   29.0960 C.2   116  PHE116      0.2264
    104  O        -26.8460   19.5100   28.5800 O.2   116  PHE116     -0.2867
    105  CB       -29.2250   21.8990   28.7220 C.3   116  PHE116      0.0534
    106  CG       -29.5660   21.3160   27.3580 C.ar  116  PHE116     -0.0203
    107  CD1      -30.7820   20.6460   27.1450 C.ar  116  PHE116     -0.0042
    108  CD2      -28.6270   21.2940   26.3290 C.ar  116  PHE116     -0.0042
    109  CE1      -31.1170   20.0440   25.8890 C.ar  116  PHE116     -0.0003
    110  CE2      -28.9710   20.6070   25.0430 C.ar  116  PHE116     -0.0003
    111  CZ       -30.2000   20.0370   24.8610 C.ar  116  PHE116     -0.0000
    112  N        -36.1530   26.0420   31.2200 N.3   136  SER136     -0.1217
    113  CA       -37.0980   25.9110   30.0940 C.3   136  SER136      0.1889
    114  C        -38.1640   24.8780   30.3770 C.2   136  SER136      0.2288
    115  O        -39.2470   24.9750   29.8750 O.2   136  SER136     -0.2866
    116  CB       -36.3920   25.3820   28.8840 C.3   136  SER136      0.2089
    117  OG       -35.3260   26.2000   28.6280 O.3   136  SER136     -0.2183
    118  N        -36.2420   18.0320   29.8390 N.3   139  HIS139     -0.1241
    119  CA       -35.6710   17.5930   28.5100 C.3   139  HIS139      0.1621
    120  C        -35.3270   16.0740   28.4650 C.2   139  HIS139      0.2264
    121  O        -34.9930   15.4630   29.4880 O.2   139  HIS139     -0.2867
    122  CB       -34.3720   18.2870   28.1850 C.3   139  HIS139      0.0745
    123  CG       -34.3970   19.7710   28.3230 C.ar  139  HIS139      0.0817
    124  ND1      -34.4030   20.6100   27.2340 N.ar  139  HIS139     -0.2268
    125  CD2      -34.3610   20.5760   29.4130 C.ar  139  HIS139      0.1154
    126  CE1      -34.3450   21.8700   27.6340 C.ar  139  HIS139      0.1986
    127  NE2      -34.3380   21.8740   28.9560 N.ar  139  HIS139     -0.2212
@<TRIPOS>BOND
     1    73    72    2
     2    72    71    1
     3    78    79    2
     4    78    77    1
     5    74    71    1
     6    74    75    1
     7    76    77    1
     8    77    80    1
     9    71    70    1
    10    67    66    2
    11    70    66   am
    12    80    81    1
    13    66    65    1
    14    83    81    1
    15    81    82    1
    16     4     3    2
    17    69    68    1
    18     1     2    1
    19    65    68    1
    20    65    64    1
    21    53    52    2
    22    52    51    1
    23    64    58   am
    24     8    10   ar
    25     8     6   ar
    26    91    90    1
    27     3     2    1
    28     2     5    1
    29    10     9   ar
    30    58    59    2
    31    58    57    1
    32    51    54    1
    33    51    50    1
    34    56    57    1
    35    55    54    1
    36    57    60    1
    37     6     5    1
    38     6     7   ar
    39    49    47    1
    40     9     7   ar
    41    48    47    1
    42    90    89    1
    43    62    61   ar
    44    47    46    2
    45    11    12    1
    46    60    61    1
    47   111   110   ar
    48   111   109   ar
    49    89    88    1
    50    61    63   ar
    51   110   108   ar
    52    14    13    2
    53    15    12    1
    54    15    16    1
    55    12    13    1
    56    46    45    1
    57    18    16    1
    58   109   107   ar
    59    27    26    1
    60   108   106   ar
    61    84    85    1
    62    16    17    1
    63    88    85    1
    64    26    25    1
    65    45    44    1
    66    85    86    1
    67    25    24    1
    68   107   106   ar
    69   124   126   ar
    70   124   123   ar
    71   106   105    1
    72    37    36    1
    73   126   127   ar
    74    24    23    1
    75    43    44    1
    76    43    40    1
    77    42    41    2
    78   122   123    1
    79   122   119    1
    80    86    92   am
    81    86    87    2
    82   123   125   ar
    83   120   119    1
    84   120   121    2
    85    23    20    1
    86   119   118    1
    87    19    20    1
    88   104   103    2
    89   117   116    1
    90   105   102    1
    91    92    93    1
    92    36    38    1
    93    36    35    2
    94   116   113    1
    95   127   125   ar
    96    41    40    1
    97   103   102    1
    98    40    39    1
    99    20    21    1
   100    99    98    2
   101   102   101    1
   102   115   114    2
   103    34    35    1
   104    34    33    1
   105    97    98    1
   106    97    96    1
   107   113   114    1
   108   113   112    1
   109    39    30   am
   110    93    96    1
   111    93    94    1
   112    95    94    2
   113    22    21    2
   114    98   100   am
   115    33    32    1
   116    30    31    2
   117    30    29    1
   118    32    29    1
   119    29    28    1
