@<TRIPOS>MOLECULE
tmp/2xp7A00.pdb
 121 114 0 0 0
SMALL
GASTEIGER

@<TRIPOS>ATOM
      1  N        -31.4540   20.2090   18.3380 N.3    41  HIS41      -0.1241
      2  CA       -31.7790   20.9040   17.0770 C.3    41  HIS41       0.1621
      3  C        -32.5710   22.1590   17.2930 C.2    41  HIS41       0.2264
      4  O        -33.1260   22.4280   18.3870 O.2    41  HIS41      -0.2867
      5  CB       -32.4480   19.9500   16.0450 C.3    41  HIS41       0.0745
      6  CG       -33.9180   19.7640   16.2700 C.ar   41  HIS41       0.0817
      7  ND1      -34.8310   19.7130   15.2430 N.ar   41  HIS41      -0.2268
      8  CD2      -34.6390   19.6880   17.4190 C.ar   41  HIS41       0.1154
      9  CE1      -36.0460   19.5670   15.7460 C.ar   41  HIS41       0.1986
     10  NE2      -35.9590   19.5940   17.0660 N.ar   41  HIS41      -0.2212
     11  N        -35.4290   24.0910   15.1080 N.3    43  LEU43      -0.1245
     12  CA       -36.2610   23.9490   13.9610 C.3    43  LEU43       0.1561
     13  C        -36.9290   25.2660   13.5750 C.2    43  LEU43       0.2260
     14  O        -37.4890   25.9730   14.3990 O.2    43  LEU43      -0.2867
     15  CB       -37.2720   22.8020   14.1410 C.3    43  LEU43       0.0270
     16  CG       -38.4590   22.6770   13.1620 C.3    43  LEU43       0.0019
     17  CD1      -38.1030   22.0180   11.8460 C.3    43  LEU43       0.0001
     18  CD2      -39.4840   21.7790   13.8140 C.3    43  LEU43       0.0001
     19  N        -39.8840   26.2590   11.0690 N.3    45  LYS45      -0.1245
     20  CA       -41.0100   25.7990   10.2220 C.3    45  LYS45       0.1561
     21  C        -41.3950   26.7660    9.1110 C.2    45  LYS45       0.2260
     22  O        -41.1050   27.9550    9.1640 O.2    45  LYS45      -0.2867
     23  CB       -42.2380   25.4120   11.0670 C.3    45  LYS45       0.0271
     24  CG       -42.0470   24.0220   11.7840 C.3    45  LYS45       0.0035
     25  CD       -43.4180   23.4330   12.2780 C.3    45  LYS45       0.0206
     26  CE       -43.3880   22.7080   13.6290 C.3    45  LYS45       0.1093
     27  NZ       -44.5280   21.7580   13.5900 N.3    45  LYS45      -0.1314
     28  N        -45.0170   19.9070    7.0500 N.3    50  ARG50      -0.1182
     29  CA       -46.0320   18.8950    7.3800 C.3    50  ARG50       0.1910
     30  C        -47.0350   19.3800    8.4460 C.2    50  ARG50       0.2637
     31  O        -48.2370   19.1550    8.2880 O.2    50  ARG50      -0.2714
     32  CB       -45.4050   17.5070    7.7310 C.2    50  ARG50       0.0007
     33  CG       -44.8770   17.3470    9.1550 C.2    50  ARG50       0.0176
     34  CD       -43.9940   16.0480    9.4130 C.3    50  ARG50       0.2464
     35  NE       -43.4580   16.0330   10.7910 N.pl3  50  ARG50      -0.0815
     36  CZ       -42.9580   14.9670   11.4390 C.cat  50  ARG50       0.5349
     37  NH1      -42.8910   13.7700   10.8470 N.pl3  50  ARG50       0.1354
     38  NH2      -42.5020   15.0960   12.6940 N.pl3  50  ARG50       0.1354
     39  N        -46.5730   20.0830    9.4880 N.am   51  ARG51      -0.1931
     40  CA       -47.4660   20.6620   10.5080 C.3    51  ARG51       0.1814
     41  C        -47.2040   22.1620   10.7230 C.2    51  ARG51       0.2332
     42  O        -46.5100   22.5110   11.6760 O.2    51  ARG51      -0.2860
     43  CB       -47.3010   19.8770   11.8370 C.2    51  ARG51       0.0019
     44  CG       -48.4630   19.9820   12.7930 C.2    51  ARG51       0.0178
     45  CD       -48.3120   19.2550   14.1470 C.3    51  ARG51       0.2464
     46  NE       -47.2800   19.8340   15.0210 N.pl3  51  ARG51      -0.0815
     47  CZ       -47.4200   20.8930   15.8370 C.cat  51  ARG51       0.5349
     48  NH1      -48.5600   21.5850   15.9200 N.pl3  51  ARG51       0.1354
     49  NH2      -46.3790   21.2780   16.5730 N.pl3  51  ARG51       0.1354
     50  N        -39.1440   26.0060   16.5180 N.3    94  ASP94      -0.1225
     51  CA       -40.5930   25.6870   16.3560 C.3    94  ASP94       0.1805
     52  C        -40.9060   24.2480   16.8090 C.2    94  ASP94       0.2598
     53  O        -41.9880   23.7080   16.5560 O.2    94  ASP94      -0.2718
     54  CB       -41.0280   25.9070   14.9160 C.3    94  ASP94       0.1424
     55  CG       -41.3170   27.3810   14.6050 C.2    94  ASP94       0.3668
     56  OD1      -42.0990   27.9720   15.3660 O.co2  94  ASP94      -0.2456
     57  OD2      -40.7790   27.9650   13.6140 O.co2  94  ASP94      -0.2456
     58  N        -39.9760   23.6190   17.5080 N.am   95  CYS95      -0.1956
     59  CA       -40.2270   22.2810   18.0320 C.3    95  CYS95       0.1843
     60  C        -40.4090   22.4380   19.5370 C.2    95  CYS95       0.2626
     61  O        -39.8550   23.3710   20.1370 O.2    95  CYS95      -0.2714
     62  CB       -39.0510   21.3600   17.6830 C.3    95  CYS95       0.0997
     63  SG       -39.1200   19.7560   18.3720 S.3    95  CYS95      -0.0797
     64  N        -41.2100   21.5750   20.1540 N.am   96  SER96      -0.1950
     65  CA       -41.5210   21.7400   21.5400 C.3    96  SER96       0.1924
     66  C        -40.3100   21.3650   22.3960 C.2    96  SER96       0.2314
     67  O        -40.2840   21.7080   23.6090 O.2    96  SER96      -0.2863
     68  CB       -42.7650   20.9340   21.9370 C.3    96  SER96       0.2116
     69  OG       -42.5410   19.5670   21.6740 O.3    96  SER96      -0.2180
     70  N        -32.9310   16.4700   22.1900 N.3   104  LEU104     -0.1245
     71  CA       -33.8960   15.4500   21.8100 C.3   104  LEU104      0.1561
     72  C        -33.6670   14.1180   22.5130 C.2   104  LEU104      0.2260
     73  O        -34.4480   13.1890   22.2900 O.2   104  LEU104     -0.2867
     74  CB       -33.8100   15.1700   20.3180 C.3   104  LEU104      0.0270
     75  CG       -34.3230   16.2670   19.4150 C.3   104  LEU104      0.0019
     76  CD1      -33.9900   15.7760   18.0020 C.3   104  LEU104      0.0001
     77  CD2      -35.8100   16.4670   19.6620 C.3   104  LEU104      0.0001
     78  N        -35.7400    8.7300   13.3800 N.3   112  MET112     -0.1230
     79  CA       -36.0280   10.0500   12.8060 C.3   112  MET112      0.1702
     80  C        -36.3210   10.0460   11.2810 C.2   112  MET112      0.2592
     81  O        -36.0820    9.0650   10.5880 O.2   112  MET112     -0.2718
     82  CB       -34.8670   11.0480   13.1170 C.3   112  MET112      0.0401
     83  CG       -34.5030   11.1810   14.5990 C.3   112  MET112      0.0596
     84  SD       -35.8050   11.9190   15.6270 S.3   112  MET112     -0.1393
     85  CE       -35.2590   11.4750   17.2720 C.3   112  MET112      0.0692
     86  N        -36.7890   11.1670   10.7650 N.am  113  GLN113     -0.1979
     87  CA       -36.8750   11.3320    9.3100 C.3   113  GLN113      0.1601
     88  C        -35.4830   11.0960    8.7210 C.2   113  GLN113      0.2287
     89  O        -34.4670   11.4990    9.3280 O.2   113  GLN113     -0.2864
     90  CB       -37.3350   12.7360    9.0050 C.3   113  GLN113      0.0394
     91  CG       -38.3570   13.2000   10.0100 C.3   113  GLN113      0.0908
     92  CD       -39.1860   14.3630    9.5480 C.2   113  GLN113      0.2608
     93  OE1      -39.7620   14.3320    8.4480 O.2   113  GLN113     -0.2717
     94  NE2      -39.2930   15.3840   10.3910 N.am  113  GLN113     -0.0878
     95  N        -32.8240   13.9240    8.6820 N.3   116  PHE116     -0.1241
     96  CA       -32.3880   14.3050   10.0130 C.3   116  PHE116      0.1605
     97  C        -31.5190   13.2150   10.5510 C.2   116  PHE116      0.2264
     98  O        -30.4420   13.4830   11.1200 O.2   116  PHE116     -0.2867
     99  CB       -33.6040   14.5130   10.8970 C.3   116  PHE116      0.0534
    100  CG       -33.2840   15.1140   12.2220 C.ar  116  PHE116     -0.0203
    101  CD1      -33.4620   16.4520   12.4260 C.ar  116  PHE116     -0.0042
    102  CD2      -32.8270   14.3100   13.2800 C.ar  116  PHE116     -0.0042
    103  CE1      -33.1560   17.0510   13.6830 C.ar  116  PHE116     -0.0003
    104  CE2      -32.5200   14.8830   14.5260 C.ar  116  PHE116     -0.0003
    105  CZ       -32.6630   16.2470   14.7300 C.ar  116  PHE116     -0.0000
    106  N        -40.6010   18.5460    8.3120 N.3   136  SER136     -0.1217
    107  CA       -40.9280   19.4710    9.4100 C.3   136  SER136      0.1889
    108  C        -40.5750   20.9320    9.1820 C.2   136  SER136      0.2288
    109  O        -41.1870   21.8130    9.7810 O.2   136  SER136     -0.2866
    110  CB       -40.1680   19.0520   10.6420 C.3   136  SER136      0.2089
    111  OG       -40.5560   17.7480   10.9750 O.3   136  SER136     -0.2183
    112  N        -33.7490   22.5370    9.8510 N.3   139  HIS139     -0.1241
    113  CA       -33.0450   22.2430   11.1190 C.3   139  HIS139      0.1621
    114  C        -31.5720   22.7030   11.1140 C.2   139  HIS139      0.2264
    115  O        -30.9020   22.6990   10.0690 O.2   139  HIS139     -0.2867
    116  CB       -32.9870   20.7380   11.3770 C.3   139  HIS139      0.0745
    117  CG       -34.3030   20.0290   11.2720 C.ar  139  HIS139      0.0817
    118  ND1      -35.0000   19.6050   12.3790 N.ar  139  HIS139     -0.2268
    119  CD2      -35.0410   19.6520   10.1940 C.ar  139  HIS139      0.1154
    120  CE1      -36.1140   19.0050   11.9940 C.ar  139  HIS139      0.1986
    121  NE2      -36.1690   19.0280   10.6770 N.ar  139  HIS139     -0.2212
@<TRIPOS>BOND
     1    28    29    1
     2    29    32    1
     3    29    30    1
     4    32    33    2
     5    31    30    2
     6   106   107    1
     7    30    39   am
     8    93    92    2
     9    95    96    1
    10    88    87    1
    11    88    89    2
    12    90    87    1
    13    90    91    1
    14    21    22    2
    15    21    20    1
    16    33    34    1
    17   108   107    1
    18   108   109    2
    19    87    86    1
    20   107   110    1
    21    34    35    1
    22    39    40    1
    23    92    91    1
    24    92    94   am
    25   112   113    1
    26    96    97    1
    27    96    99    1
    28   115   114    2
    29   119   121   ar
    30   119   117   ar
    31    20    23    1
    32    20    19    1
    33    40    41    1
    34    40    43    1
    35    97    98    2
    36    81    80    2
    37   110   111    1
    38   121   120   ar
    39    41    42    2
    40    86    80   am
    41    35    36    2
    42    37    36    1
    43    99   100    1
    44    23    24    1
    45   114   113    1
    46   113   116    1
    47   117   116    1
    48   117   118   ar
    49    80    79    1
    50    36    38    1
    51    24    25    1
    52    43    44    2
    53    17    16    1
    54   120   118   ar
    55   100   101   ar
    56   100   102   ar
    57    25    26    1
    58   101   103   ar
    59    44    45    1
    60    79    82    1
    61    79    78    1
    62    82    83    1
    63    16    18    1
    64    16    15    1
    65   102   104   ar
    66    13    12    1
    67    13    14    2
    68    27    26    1
    69    57    55   ar
    70   103   105   ar
    71    12    15    1
    72    12    11    1
    73    45    46    1
    74   104   105   ar
    75    83    84    1
    76    55    54    1
    77    55    56   ar
    78    54    51    1
    79    46    47    2
    80     7     9   ar
    81     7     6   ar
    82    84    85    1
    83     9    10   ar
    84    47    48    1
    85    47    49    1
    86     5     6    1
    87     5     2    1
    88     6     8   ar
    89    51    50    1
    90    51    52    1
    91    53    52    2
    92    52    58   am
    93    10     8   ar
    94     2     3    1
    95     2     1    1
    96     3     4    2
    97    58    59    1
    98    62    59    1
    99    62    63    1
   100    76    75    1
   101    59    60    1
   102    75    77    1
   103    75    74    1
   104    60    61    2
   105    60    64   am
   106    64    65    1
   107    74    71    1
   108    65    68    1
   109    65    66    1
   110    69    68    1
   111    71    70    1
   112    71    72    1
   113    73    72    2
   114    66    67    2
