@<TRIPOS>MOLECULE
tmp/2xp8A00.pdb
 90 88 0 0 0
SMALL
GASTEIGER

@<TRIPOS>ATOM
      1  N        -28.8350   -1.1520   42.8750 N.3     9  MET9       -0.1230
      2  CA       -29.6580   -2.3470   42.7210 C.3     9  MET9        0.1702
      3  C        -31.1080   -1.9340   42.4510 C.2     9  MET9        0.2593
      4  O        -31.5880   -0.9030   42.9570 O.2     9  MET9       -0.2718
      5  CB       -29.5510   -3.2920   43.9440 C.3     9  MET9        0.0401
      6  CG       -30.0630   -4.7390   43.6490 C.3     9  MET9        0.0596
      7  SD       -30.9280   -5.7090   44.9440 S.3     9  MET9       -0.1393
      8  CE       -32.1230   -4.5370   45.6590 C.3     9  MET9        0.0692
      9  N        -31.7800   -2.7600   41.6520 N.am   10  SER10      -0.1938
     10  CA       -33.1460   -2.5400   41.2340 C.3    10  SER10       0.2055
     11  C        -34.1210   -2.8510   42.3570 C.2    10  SER10       0.2643
     12  O        -34.1310   -3.9640   42.8910 O.2    10  SER10      -0.2714
     13  CB       -33.4420   -3.4190   40.0280 C.3    10  SER10       0.2130
     14  OG       -34.4090   -2.8350   39.1600 O.3    10  SER10      -0.2179
     15  N        -34.9370   -1.8480   42.6850 N.am   11  ARG11      -0.1963
     16  CA       -35.8930   -1.8390   43.8050 C.3    11  ARG11       0.1729
     17  C        -36.9310   -2.9530   43.7140 C.2    11  ARG11       0.2616
     18  O        -37.0710   -3.7620   44.6300 O.2    11  ARG11      -0.2715
     19  CB       -36.6120   -0.4660   43.8420 C.3    11  ARG11       0.0348
     20  CG       -37.2830   -0.0450   45.1720 C.3    11  ARG11       0.0492
     21  CD       -36.2580    0.2200   46.3030 C.3    11  ARG11       0.2205
     22  NE       -34.9210    0.5510   45.7930 N.pl3  11  ARG11      -0.0865
     23  CZ       -34.2500    1.6630   46.0740 C.cat  11  ARG11       0.5346
     24  NH1      -34.7700    2.5790   46.8840 N.pl3  11  ARG11       0.1354
     25  NH2      -33.0480    1.8530   45.5430 N.pl3  11  ARG11       0.1354
     26  N        -37.6600   -2.9480   42.5990 N.am   12  SER12      -0.1950
     27  CA       -38.6970   -3.9190   42.2450 C.3    12  SER12       0.1924
     28  C        -38.1890   -5.3600   41.9360 C.2    12  SER12       0.2314
     29  O        -38.8610   -6.3630   42.2470 O.2    12  SER12      -0.2863
     30  CB       -39.4740   -3.3520   41.0470 C.3    12  SER12       0.2116
     31  OG       -40.3910   -4.2890   40.5410 O.3    12  SER12      -0.2180
     32  N        -28.1770   -2.5410   38.4950 N.3    17  TYR17      -0.1241
     33  CA       -28.0280   -1.7370   37.2840 C.3    17  TYR17       0.1605
     34  C        -26.9290   -0.7020   37.3850 C.2    17  TYR17       0.2264
     35  O        -25.9080   -0.9670   38.0180 O.2    17  TYR17      -0.2867
     36  CB       -29.3540   -1.1330   36.8320 C.3    17  TYR17       0.0534
     37  CG       -30.0210   -0.1570   37.7660 C.ar   17  TYR17      -0.0201
     38  CD1      -29.8810    1.2230   37.5810 C.ar   17  TYR17      -0.0009
     39  CD2      -30.8560   -0.6120   38.7920 C.ar   17  TYR17      -0.0009
     40  CE1      -30.5300    2.1300   38.4060 C.ar   17  TYR17       0.0417
     41  CE2      -31.5060    0.2810   39.6290 C.ar   17  TYR17       0.0417
     42  CZ       -31.3390    1.6530   39.4330 C.ar   17  TYR17       0.1957
     43  OH       -32.0000    2.5290   40.2730 O.3    17  TYR17      -0.2866
     44  N        -30.4710    5.5590   33.0060 N.3    26  SER26      -0.1202
     45  CA       -30.3940    4.2110   33.6440 C.3    26  SER26       0.2020
     46  C        -30.2230    3.1120   32.6140 C.2    26  SER26       0.2619
     47  O        -30.9480    3.0570   31.6340 O.2    26  SER26      -0.2717
     48  CB       -31.6470    3.8850   34.4250 C.3    26  SER26       0.2103
     49  OG       -32.2050    5.0630   34.9030 O.3    26  SER26      -0.2182
     50  N        -29.2760    2.2160   32.8320 N.am   27  GLN27      -0.1965
     51  CA       -29.0790    1.1190   31.8910 C.3    27  GLN27       0.1733
     52  C        -28.6630   -0.1290   32.6590 C.2    27  GLN27       0.2616
     53  O        -28.0850   -0.0190   33.7370 O.2    27  GLN27      -0.2715
     54  CB       -28.0450    1.4940   30.8280 C.3    27  GLN27       0.0408
     55  CG       -26.6410    1.2810   31.2690 C.3    27  GLN27       0.0908
     56  CD       -25.6600    1.8230   30.2880 C.2    27  GLN27       0.2608
     57  OE1      -26.0090    2.5960   29.4090 O.2    27  GLN27      -0.2717
     58  NE2      -24.3910    1.4490   30.4570 N.am   27  GLN27      -0.0878
     59  N        -28.9630   -1.3130   32.1270 N.am   28  TRP28      -0.1974
     60  CA       -28.5320   -2.5410   32.7950 C.3    28  TRP28       0.1640
     61  C        -27.0480   -2.9340   32.6390 C.2    28  TRP28       0.2290
     62  O        -26.4000   -3.2020   33.6470 O.2    28  TRP28      -0.2864
     63  CB       -29.4340   -3.6840   32.4250 C.3    28  TRP28       0.0576
     64  CG       -30.8820   -3.4070   32.6950 C.ar   28  TRP28       0.0006
     65  CD1      -31.8270   -3.0460   31.7800 C.ar   28  TRP28       0.0946
     66  CD2      -31.5540   -3.4910   33.9550 C.ar   28  TRP28       0.0152
     67  NE1      -33.0660   -2.9260   32.3850 N.ar   28  TRP28      -0.2442
     68  CE2      -32.9230   -3.1830   33.7220 C.ar   28  TRP28       0.0810
     69  CE3      -31.1370   -3.7880   35.2530 C.ar   28  TRP28       0.0012
     70  CZ2      -33.8740   -3.1690   34.7360 C.ar   28  TRP28       0.0191
     71  CZ3      -32.0810   -3.7810   36.2550 C.ar   28  TRP28       0.0001
     72  CH2      -33.4400   -3.4660   35.9940 C.ar   28  TRP28       0.0015
     73  N        -40.1120    5.8400   27.6980 N.3    76  GLN76      -0.1245
     74  CA       -40.3860    4.4340   27.7880 C.3    76  GLN76       0.1566
     75  C        -40.7020    3.9050   26.4230 C.2    76  GLN76       0.2260
     76  O        -40.1490    2.8690   25.9750 O.2    76  GLN76      -0.2867
     77  CB       -41.5640    4.2190   28.7260 C.3    76  GLN76       0.0367
     78  CG       -41.1580    4.3410   30.1760 C.3    76  GLN76       0.0905
     79  CD       -42.2030    3.7280   31.0920 C.2    76  GLN76       0.2608
     80  OE1      -43.1980    3.1340   30.6030 O.2    76  GLN76      -0.2717
     81  NE2      -42.0050    3.8760   32.4310 N.am   76  GLN76      -0.0878
     82  N        -37.5220    3.7570   24.4250 N.3    79  LYS79      -0.1245
     83  CA       -36.6530    2.6820   24.8960 C.3    79  LYS79       0.1561
     84  C        -37.1250    1.3020   24.4600 C.2    79  LYS79       0.2260
     85  O        -36.3000    0.4220   24.1260 O.2    79  LYS79      -0.2867
     86  CB       -36.5190    2.7420   26.4230 C.3    79  LYS79       0.0271
     87  CG       -35.2600    3.4620   26.8710 C.3    79  LYS79       0.0035
     88  CD       -35.2710    3.7510   28.3410 C.3    79  LYS79       0.0206
     89  CE       -33.8680    4.1820   28.8180 C.3    79  LYS79       0.1093
     90  NZ       -33.7190    4.1860   30.3220 N.3    79  LYS79      -0.1314
@<TRIPOS>BOND
     1    85    84    2
     2    82    83    1
     3    84    83    1
     4    83    86    1
     5    76    75    2
     6    86    87    1
     7    75    74    1
     8    87    88    1
     9    73    74    1
    10    74    77    1
    11    88    89    1
    12    77    78    1
    13    89    90    1
    14    57    56    2
    15    78    79    1
    16    56    58   am
    17    56    55    1
    18    80    79    2
    19    54    55    1
    20    54    51    1
    21    79    81   am
    22    47    46    2
    23    65    67   ar
    24    65    64   ar
    25    51    52    1
    26    51    50    1
    27    59    52   am
    28    59    60    1
    29    67    68   ar
    30    63    64    1
    31    63    60    1
    32    46    50   am
    33    46    45    1
    34    61    60    1
    35    61    62    2
    36    52    53    2
    37    64    66   ar
    38    44    45    1
    39    45    48    1
    40    68    66   ar
    41    68    70   ar
    42    66    69   ar
    43    48    49    1
    44    70    72   ar
    45    69    71   ar
    46    72    71   ar
    47    36    33    1
    48    36    37    1
    49    33    34    1
    50    33    32    1
    51    34    35    2
    52    38    37   ar
    53    38    40   ar
    54    37    39   ar
    55    40    42   ar
    56    39    41   ar
    57    14    13    1
    58    42    41   ar
    59    42    43    1
    60    13    10    1
    61    31    30    1
    62    30    27    1
    63    10     9    1
    64    10    11    1
    65     9     3   am
    66    28    27    1
    67    28    29    2
    68    27    26    1
    69    11    15   am
    70    11    12    2
    71     3     2    1
    72     3     4    2
    73    26    17   am
    74    15    16    1
    75     2     1    1
    76     2     5    1
    77     6     5    1
    78     6     7    1
    79    17    16    1
    80    17    18    2
    81    16    19    1
    82    19    20    1
    83     7     8    1
    84    20    21    1
    85    25    23    1
    86    22    23    2
    87    22    21    1
    88    23    24    1
