@<TRIPOS>MOLECULE
tmp/2xp8A01.pdb
 129 122 0 0 0
SMALL
GASTEIGER

@<TRIPOS>ATOM
      1  N        -33.1140   16.9050   21.1340 N.3    41  HIS41      -0.1241
      2  CA       -33.7620   16.8640   22.4380 C.3    41  HIS41       0.1621
      3  C        -35.2360   17.0280   22.1980 C.2    41  HIS41       0.2264
      4  O        -35.6480   17.4620   21.1420 O.2    41  HIS41      -0.2867
      5  CB       -33.2350   17.9750   23.4000 C.3    41  HIS41       0.0745
      6  CG       -33.7760   19.3380   23.0780 C.ar   41  HIS41       0.0817
      7  ND1      -33.9100   20.3290   24.0100 N.ar   41  HIS41      -0.2268
      8  CD2      -34.2310   19.8600   21.9150 C.ar   41  HIS41       0.1154
      9  CE1      -34.4780   21.3950   23.4540 C.ar   41  HIS41       0.1986
     10  NE2      -34.6620   21.1480   22.1760 N.ar   41  HIS41      -0.2212
     11  N        -38.3440   18.5980   24.3550 N.3    43  LEU43      -0.1245
     12  CA       -38.5470   19.4510   25.5060 C.3    43  LEU43       0.1561
     13  C        -39.9970   19.3390   25.8190 C.2    43  LEU43       0.2260
     14  O        -40.8140   19.4840   24.9470 O.2    43  LEU43      -0.2867
     15  CB       -38.2730   20.8950   25.1060 C.3    43  LEU43       0.0270
     16  CG       -38.5140   21.9840   26.1590 C.3    43  LEU43       0.0019
     17  CD1      -37.6440   21.7900   27.4350 C.3    43  LEU43       0.0001
     18  CD2      -38.3460   23.4130   25.5770 C.3    43  LEU43       0.0001
     19  N        -42.2240   21.5520   28.2470 N.3    45  LYS45      -0.1245
     20  CA       -42.3450   22.6710   29.2150 C.3    45  LYS45       0.1561
     21  C        -43.4240   22.4610   30.2630 C.2    45  LYS45       0.2260
     22  O        -44.2000   21.4670   30.2100 O.2    45  LYS45      -0.2867
     23  CB       -42.6350   24.0170   28.5160 C.3    45  LYS45       0.0271
     24  CG       -41.6780   24.4020   27.4770 C.3    45  LYS45       0.0035
     25  CD       -41.7910   25.9260   27.0750 C.3    45  LYS45       0.0206
     26  CE       -40.4460   26.3420   26.5020 C.3    45  LYS45       0.1093
     27  NZ       -40.4820   27.6080   25.6490 N.3    45  LYS45      -0.1314
     28  N        -39.2550   28.8690   32.1940 N.3    50  ARG50      -0.1231
     29  CA       -38.7990   30.2190   31.9940 C.3    50  ARG50       0.1694
     30  C        -39.7280   30.8440   31.0030 C.2    50  ARG50       0.2591
     31  O        -40.2920   31.8880   31.2880 O.2    50  ARG50      -0.2718
     32  CB       -37.3710   30.2610   31.4850 C.3    50  ARG50       0.0321
     33  CG       -36.7830   31.6680   31.5030 C.3    50  ARG50       0.0489
     34  CD       -35.7470   31.8480   32.6300 C.3    50  ARG50       0.2205
     35  NE       -36.3380   32.1250   33.9530 N.pl3  50  ARG50      -0.0865
     36  CZ       -35.7890   31.7770   35.1270 C.cat  50  ARG50       0.5346
     37  NH1      -34.6330   31.1120   35.1710 N.pl3  50  ARG50       0.1354
     38  NH2      -36.3980   32.0850   36.2660 N.pl3  50  ARG50       0.1354
     39  N        -39.9380   30.2170   29.8480 N.am   51  ARG51      -0.1980
     40  CA       -40.9250   30.7700   28.9030 C.3    51  ARG51       0.1597
     41  C        -42.0850   29.8030   28.5980 C.2    51  ARG51       0.2287
     42  O        -41.9990   29.0300   27.6310 O.2    51  ARG51      -0.2864
     43  CB       -40.2530   31.2660   27.6260 C.3    51  ARG51       0.0334
     44  CG       -41.0820   32.2800   26.9190 C.3    51  ARG51       0.0492
     45  CD       -40.5060   32.6100   25.5430 C.3    51  ARG51       0.2205
     46  NE       -40.7280   31.5340   24.5660 N.pl3  51  ARG51      -0.0865
     47  CZ       -41.8720   31.3150   23.8990 C.cat  51  ARG51       0.5346
     48  NH1      -42.9410   32.0850   24.0990 N.pl3  51  ARG51       0.1354
     49  NH2      -41.9550   30.3060   23.0300 N.pl3  51  ARG51       0.1354
     50  N        -41.6550   20.9830   22.8390 N.3    94  ASP94      -0.1225
     51  CA       -42.0180   22.4130   22.9840 C.3    94  ASP94       0.1805
     52  C        -40.8650   23.3290   22.5930 C.2    94  ASP94       0.2598
     53  O        -40.9460   24.5420   22.8150 O.2    94  ASP94      -0.2718
     54  CB       -42.3030   22.7340   24.4350 C.3    94  ASP94       0.1424
     55  CG       -43.7080   22.2670   24.9220 C.2    94  ASP94       0.3668
     56  OD1      -44.7370   22.5460   24.2260 O.co2  94  ASP94      -0.2456
     57  OD2      -43.7690   21.6720   26.0410 O.co2  94  ASP94      -0.2456
     58  N        -39.7750   22.7810   22.0600 N.am   95  CYS95      -0.1956
     59  CA       -38.7280   23.6590   21.5080 C.3    95  CYS95       0.1843
     60  C        -38.9570   23.9650   20.0240 C.2    95  CYS95       0.2626
     61  O        -39.5510   23.1670   19.2780 O.2    95  CYS95      -0.2714
     62  CB       -37.3790   23.0120   21.7270 C.3    95  CYS95       0.0997
     63  SG       -36.0690   23.9330   20.9490 S.3    95  CYS95      -0.0797
     64  N        -38.5180   25.1350   19.5490 N.am   96  SER96      -0.1950
     65  CA       -38.7490   25.4230   18.1360 C.3    96  SER96       0.1924
     66  C        -37.9400   24.4700   17.2670 C.2    96  SER96       0.2314
     67  O        -38.1710   24.3710   16.0530 O.2    96  SER96      -0.2863
     68  CB       -38.4460   26.8870   17.7720 C.3    96  SER96       0.2116
     69  OG       -37.0470   27.1810   17.8320 O.3    96  SER96      -0.2180
     70  N        -30.0420   20.0400   17.0010 N.3   104  LEU104     -0.1245
     71  CA       -29.5720   21.3940   17.3910 C.3   104  LEU104      0.1561
     72  C        -28.2250   21.6660   16.8040 C.2   104  LEU104      0.2260
     73  O        -27.6670   22.7280   16.9720 O.2   104  LEU104     -0.2867
     74  CB       -29.4160   21.5210   18.9150 C.3   104  LEU104      0.0270
     75  CG       -30.6810   21.4900   19.7670 C.3   104  LEU104      0.0019
     76  CD1      -30.3260   21.0800   21.2250 C.3   104  LEU104      0.0001
     77  CD2      -31.5240   22.8190   19.6680 C.3   104  LEU104      0.0001
     78  N        -24.6970   26.2810   26.0930 N.3   112  MET112     -0.1230
     79  CA       -26.0140   25.9550   26.6180 C.3   112  MET112      0.1702
     80  C        -26.1540   26.1870   28.1270 C.2   112  MET112      0.2592
     81  O        -25.1580   26.3720   28.8480 O.2   112  MET112     -0.2718
     82  CB       -26.3580   24.4960   26.2870 C.3   112  MET112      0.0401
     83  CG       -26.2020   24.1520   24.8180 C.3   112  MET112      0.0596
     84  SD       -27.6000   24.6040   23.7560 S.3   112  MET112     -0.1393
     85  CE       -26.8470   24.3450   22.1530 C.3   112  MET112      0.0692
     86  N        -27.4060   26.2090   28.5840 N.am  113  GLN113     -0.1979
     87  CA       -27.7240   25.9300   29.9690 C.3   113  GLN113      0.1601
     88  C        -26.8490   24.7290   30.4090 C.2   113  GLN113      0.2287
     89  O        -26.7080   23.7090   29.6700 O.2   113  GLN113     -0.2864
     90  CB       -29.2100   25.5840   30.1170 C.3   113  GLN113      0.0394
     91  CG       -30.2040   26.7670   29.9980 C.3   113  GLN113      0.0908
     92  CD       -31.6770   26.3400   29.6020 C.2   113  GLN113      0.2608
     93  OE1      -32.6650   27.0030   29.9800 O.2   113  GLN113     -0.2717
     94  NE2      -31.8020   25.2530   28.8240 N.am  113  GLN113     -0.0878
     95  N        -28.1800   21.0300   30.7360 N.3   116  PHE116     -0.1241
     96  CA       -28.2450   20.4910   29.3730 C.3   116  PHE116      0.1605
     97  C        -26.8190   20.1700   28.8640 C.2   116  PHE116      0.2264
     98  O        -26.5570   19.0680   28.3760 O.2   116  PHE116     -0.2867
     99  CB       -28.9710   21.4550   28.4350 C.3   116  PHE116      0.0534
    100  CG       -29.4070   20.8420   27.1160 C.ar  116  PHE116     -0.0203
    101  CD1      -30.7630   20.5780   26.8620 C.ar  116  PHE116     -0.0042
    102  CD2      -28.4870   20.5830   26.1050 C.ar  116  PHE116     -0.0042
    103  CE1      -31.1780   20.0130   25.6190 C.ar  116  PHE116     -0.0003
    104  CE2      -28.8700   20.0520   24.8810 C.ar  116  PHE116     -0.0003
    105  CZ       -30.2500   19.7780   24.6080 C.ar  116  PHE116     -0.0000
    106  N        -33.9830   25.6630   33.2140 N.3   135  ASP135     -0.1225
    107  CA       -35.0070   26.6800   33.3390 C.3   135  ASP135      0.1805
    108  C        -36.0550   26.7200   32.2210 C.2   135  ASP135      0.2598
    109  O        -37.1300   27.2790   32.4230 O.2   135  ASP135     -0.2718
    110  CB       -34.3430   28.0180   33.4440 C.3   135  ASP135      0.1424
    111  CG       -33.7970   28.2540   34.8100 C.2   135  ASP135      0.3668
    112  OD1      -34.5450   28.1640   35.8180 O.co2 135  ASP135     -0.2456
    113  OD2      -32.5960   28.5180   34.8700 O.co2 135  ASP135     -0.2456
    114  N        -35.7690   26.1140   31.0610 N.am  136  SER136     -0.1952
    115  CA       -36.7680   25.8950   30.0100 C.3   136  SER136      0.1924
    116  C        -37.8540   24.8480   30.2680 C.2   136  SER136      0.2314
    117  O        -38.9860   24.9980   29.8090 O.2   136  SER136     -0.2863
    118  CB       -36.0370   25.5210   28.7620 C.3   136  SER136      0.2116
    119  OG       -35.0030   26.4590   28.5950 O.3   136  SER136     -0.2180
    120  N        -36.0100   17.8090   29.5480 N.3   139  HIS139     -0.1241
    121  CA       -35.4520   17.4660   28.2770 C.3   139  HIS139      0.1621
    122  C        -35.1570   15.9570   28.2100 C.2   139  HIS139      0.2264
    123  O        -34.9380   15.3280   29.2310 O.2   139  HIS139     -0.2867
    124  CB       -34.1000   18.1530   28.1040 C.3   139  HIS139      0.0745
    125  CG       -34.1310   19.6490   28.1690 C.ar  139  HIS139      0.0817
    126  ND1      -34.0760   20.4410   27.0400 N.ar  139  HIS139     -0.2268
    127  CD2      -34.0650   20.4970   29.2210 C.ar  139  HIS139      0.1154
    128  CE1      -34.0060   21.7170   27.3890 C.ar  139  HIS139      0.1986
    129  NE2      -34.0070   21.7810   28.7090 N.ar  139  HIS139     -0.2212
@<TRIPOS>BOND
     1    67    66    2
     2    72    73    2
     3    72    71    1
     4    70    71    1
     5    66    65    1
     6    71    74    1
     7    68    69    1
     8    68    65    1
     9    65    64    1
    10    74    75    1
    11    61    60    2
    12    64    60   am
    13    77    75    1
    14    75    76    1
    15    60    59    1
    16    63    62    1
    17     1     2    1
    18     4     3    2
    19    59    62    1
    20    59    58    1
    21     8    10   ar
    22     8     6   ar
    23    58    52   am
    24    85    84    1
    25    10     9   ar
    26     3     2    1
    27     2     5    1
    28    52    53    2
    29    52    51    1
    30    50    51    1
    31    51    54    1
    32    49    47    1
    33     6     5    1
    34     6     7   ar
    35     9     7   ar
    36    84    83    1
    37    47    48    1
    38    47    46    2
    39    56    55   ar
    40    11    12    1
    41    54    55    1
    42    46    45    1
    43   105   104   ar
    44   105   103   ar
    45    83    82    1
    46   104   102   ar
    47    55    57   ar
    48    14    13    2
    49    15    12    1
    50    15    16    1
    51    12    13    1
    52    45    44    1
    53    18    16    1
    54   103   101   ar
    55    27    26    1
    56    78    79    1
    57   102   100   ar
    58    16    17    1
    59    82    79    1
    60    26    25    1
    61    79    80    1
    62   101   100   ar
    63    44    43    1
    64   126   128   ar
    65   126   125   ar
    66    25    24    1
    67   100    99    1
    68   128   129   ar
    69    24    23    1
    70    43    40    1
    71    42    41    2
    72   124   125    1
    73   124   121    1
    74    80    86   am
    75    80    81    2
    76   125   127   ar
    77   122   121    1
    78   122   123    2
    79    19    20    1
    80   121   120    1
    81    98    97    2
    82    99    96    1
    83    23    20    1
    84    86    87    1
    85   119   118    1
    86    41    40    1
    87   129   127   ar
    88   118   115    1
    89    94    92   am
    90    97    96    1
    91    40    39    1
    92    20    21    1
    93    96    95    1
    94    92    93    2
    95    92    91    1
    96    89    88    2
    97   117   116    2
    98    39    30   am
    99    87    90    1
   100    87    88    1
   101    91    90    1
   102   115   116    1
   103   115   114    1
   104    22    21    2
   105    30    31    2
   106    30    29    1
   107   114   108   am
   108    32    33    1
   109    32    29    1
   110    33    34    1
   111    29    28    1
   112   108   109    2
   113   108   107    1
   114    34    35    1
   115   106   107    1
   116   107   110    1
   117   110   111    1
   118    35    36    2
   119   111   113   ar
   120   111   112   ar
   121    36    37    1
   122    36    38    1
