@<TRIPOS>MOLECULE
tmp/2xp9A01.pdb
 129 122 0 0 0
SMALL
GASTEIGER

@<TRIPOS>ATOM
      1  N         32.5340  -21.9260    8.0700 N.3    40  HIS40      -0.1241
      2  CA        32.0280  -21.3780    9.3410 C.3    40  HIS40       0.1621
      3  C         31.3360  -20.0720    9.1060 C.2    40  HIS40       0.2264
      4  O         31.4300  -19.4070    8.0180 O.2    40  HIS40      -0.2867
      5  CB        33.2120  -21.2700   10.3800 C.3    40  HIS40       0.0745
      6  CG        34.1150  -20.1030   10.1710 C.ar   40  HIS40       0.0817
      7  ND1       34.6210  -19.3500   11.2190 N.ar   40  HIS40      -0.2268
      8  CD2       34.5680  -19.5120    9.0240 C.ar   40  HIS40       0.1154
      9  CE1       35.3910  -18.3880   10.7300 C.ar   40  HIS40       0.1986
     10  NE2       35.3440  -18.4430    9.3980 N.ar   40  HIS40      -0.2212
     11  N         31.1290  -16.6330   11.3840 N.3    42  LEU42      -0.1245
     12  CA        31.7350  -15.9800   12.5500 C.3    42  LEU42       0.1561
     13  C         30.9470  -14.7470   12.9090 C.2    42  LEU42       0.2260
     14  O         30.5840  -13.9690   12.0370 O.2    42  LEU42      -0.2867
     15  CB        33.1840  -15.5730   12.2390 C.3    42  LEU42       0.0270
     16  CG        33.8930  -14.6630   13.2440 C.3    42  LEU42       0.0019
     17  CD1       34.2130  -15.4340   14.5830 C.3    42  LEU42       0.0001
     18  CD2       35.2540  -14.2250   12.5900 C.3    42  LEU42       0.0001
     19  N         31.5230  -11.6170   15.3300 N.3    44  LYS44      -0.1245
     20  CA        32.5100  -10.9650   16.2210 C.3    44  LYS44       0.1561
     21  C         31.7980  -10.1610   17.3090 C.2    44  LYS44       0.2260
     22  O         30.6060   -9.8710   17.2050 O.2    44  LYS44      -0.2867
     23  CB        33.4680  -10.0890   15.4250 C.3    44  LYS44       0.0271
     24  CG        34.5200  -10.8940   14.5730 C.3    44  LYS44       0.0035
     25  CD        35.4900   -9.8700   13.8160 C.3    44  LYS44       0.0206
     26  CE        36.4030  -10.6540   12.8810 C.3    44  LYS44       0.1093
     27  NZ        37.6250   -9.8560   12.5710 N.3    44  LYS44      -0.1314
     28  N         39.5040  -10.2790   19.3040 N.3    49  ARG49      -0.1231
     29  CA        40.8680   -9.8620   18.9930 C.3    49  ARG49       0.1694
     30  C         40.8750   -8.7110   17.9860 C.2    49  ARG49       0.2591
     31  O         41.5220   -7.6810   18.1870 O.2    49  ARG49      -0.2718
     32  CB        41.6210  -11.0650   18.4440 C.3    49  ARG49       0.0321
     33  CG        43.1680  -10.8970   18.1600 C.3    49  ARG49       0.0489
     34  CD        44.0070  -10.3190   19.3360 C.3    49  ARG49       0.2205
     35  NE        43.5510  -10.8380   20.6240 N.pl3  49  ARG49      -0.0865
     36  CZ        43.8310  -12.0620   21.0760 C.cat  49  ARG49       0.5346
     37  NH1       44.5830  -12.8900   20.3340 N.pl3  49  ARG49       0.1354
     38  NH2       43.3660  -12.4530   22.2720 N.pl3  49  ARG49       0.1354
     39  N         40.0830   -8.8270   16.9360 N.am   50  ARG50      -0.1980
     40  CA        40.0590   -7.7770   15.9190 C.3    50  ARG50       0.1597
     41  C         38.5970   -7.4210   15.6670 C.2    50  ARG50       0.2287
     42  O         37.9640   -8.0250   14.7660 O.2    50  ARG50      -0.2864
     43  CB        40.7510   -8.3270   14.6450 C.3    50  ARG50       0.0334
     44  CG        40.9330   -7.3310   13.5650 C.3    50  ARG50       0.0492
     45  CD        41.7190   -7.9230   12.3600 C.3    50  ARG50       0.2205
     46  NE        40.8470   -8.6010   11.3820 N.pl3  50  ARG50      -0.0865
     47  CZ        40.0140   -7.9950   10.5060 C.cat  50  ARG50       0.5346
     48  NH1       39.8820   -6.6810   10.4840 N.pl3  50  ARG50       0.1354
     49  NH2       39.2640   -8.7260    9.6540 N.pl3  50  ARG50       0.1354
     50  N         31.2510  -12.4170    9.8810 N.3    93  ASP93      -0.1225
     51  CA        32.2780  -11.3710   10.0070 C.3    93  ASP93       0.1805
     52  C         33.6410  -11.8490    9.5660 C.2    93  ASP93       0.2598
     53  O         34.6310  -11.1070    9.6970 O.2    93  ASP93      -0.2718
     54  CB        32.4000  -10.8480   11.4520 C.3    93  ASP93       0.1424
     55  CG        31.2800   -9.9490   11.8500 C.2    93  ASP93       0.3668
     56  OD1       30.9730   -9.0020   11.0910 O.co2  93  ASP93      -0.2456
     57  OD2       30.6600  -10.1450   12.9340 O.co2  93  ASP93      -0.2456
     58  N         33.7200  -13.0600    9.0260 N.am   94  CYS94      -0.1956
     59  CA        34.9870  -13.5120    8.5030 C.3    94  CYS94       0.1843
     60  C         35.0940  -13.1500    7.0000 C.2    94  CYS94       0.2626
     61  O         34.1060  -13.1930    6.2920 O.2    94  CYS94      -0.2714
     62  CB        35.1050  -15.0330    8.6650 C.3    94  CYS94       0.0997
     63  SG        36.6460  -15.7390    8.0660 S.3    94  CYS94      -0.0797
     64  N         36.3050  -12.9040    6.5190 N.am   95  SER95      -0.1950
     65  CA        36.4920  -12.7210    5.0730 C.3    95  SER95       0.1924
     66  C         36.1140  -13.9110    4.2130 C.2    95  SER95       0.2314
     67  O         35.7450  -13.6970    3.0420 O.2    95  SER95      -0.2863
     68  CB        37.8800  -12.1750    4.7000 C.3    95  SER95       0.2116
     69  OG        38.8450  -13.0600    5.1800 O.3    95  SER95      -0.2180
     70  N         36.4000  -22.6850    4.3090 N.3   103  LEU103     -0.1245
     71  CA        37.8180  -22.5070    4.6870 C.3   103  LEU103      0.1561
     72  C         38.7620  -23.4550    3.9690 C.2   103  LEU103      0.2260
     73  O         39.9600  -23.3510    4.1200 O.2   103  LEU103     -0.2867
     74  CB        37.9990  -22.7020    6.2040 C.3   103  LEU103      0.0270
     75  CG        37.1840  -21.7050    7.0610 C.3   103  LEU103      0.0019
     76  CD1       37.4200  -22.0990    8.5630 C.3   103  LEU103      0.0001
     77  CD2       37.5620  -20.2330    6.7980 C.3   103  LEU103      0.0001
     78  N         44.5790  -24.2740   13.1830 N.3   111  MET111     -0.1230
     79  CA        43.5270  -23.3200   13.6070 C.3   111  MET111      0.1702
     80  C         43.6650  -23.0280   15.1030 C.2   111  MET111      0.2592
     81  O         44.3930  -23.7320   15.7810 O.2   111  MET111     -0.2718
     82  CB        42.1130  -23.9250   13.2930 C.3   111  MET111      0.0401
     83  CG        41.8580  -24.1350   11.7740 C.3   111  MET111      0.0596
     84  SD        41.9410  -22.5200   10.8650 S.3   111  MET111     -0.1393
     85  CE        41.1880  -23.0060    9.3090 C.3   111  MET111      0.0692
     86  N         42.9510  -22.0310   15.6090 N.am  112  GLN112     -0.1979
     87  CA        42.8540  -21.8450   17.0470 C.3   112  GLN112      0.1601
     88  C         42.2920  -23.1350   17.6260 C.2   112  GLN112      0.2287
     89  O         41.4420  -23.8480   17.0440 O.2   112  GLN112     -0.2864
     90  CB        41.8830  -20.6930   17.3570 C.3   112  GLN112      0.0394
     91  CG        42.3320  -19.3020   16.8950 C.3   112  GLN112      0.0908
     92  CD        41.1380  -18.4040   16.4380 C.2   112  GLN112      0.2608
     93  OE1       41.0910  -17.2270   16.7540 O.2   112  GLN112     -0.2717
     94  NE2       40.1860  -18.9770   15.7070 N.am  112  GLN112     -0.0878
     95  N         38.4210  -24.0030   17.8140 N.3   115  PHE115     -0.1241
     96  CA        37.9300  -24.2150   16.4450 C.3   115  PHE115      0.1605
     97  C         38.4010  -25.5930   15.9090 C.2   115  PHE115      0.2264
     98  O         37.6010  -26.4080   15.3630 O.2   115  PHE115     -0.2867
     99  CB        38.4270  -23.0800   15.5760 C.3   115  PHE115      0.0534
    100  CG        37.8000  -23.0690   14.2030 C.ar  115  PHE115     -0.0203
    101  CD1       36.6630  -22.2790   13.9570 C.ar  115  PHE115     -0.0042
    102  CD2       38.2720  -23.9270   13.1960 C.ar  115  PHE115     -0.0042
    103  CE1       36.0530  -22.2730   12.6550 C.ar  115  PHE115     -0.0003
    104  CE2       37.6040  -23.9510   11.9250 C.ar  115  PHE115     -0.0003
    105  CZ        36.5050  -23.1420   11.6910 C.ar  115  PHE115     -0.0000
    106  N         39.0970  -16.4970   20.3480 N.3   134  ASP134     -0.1225
    107  CA        39.3950  -15.0750   20.3900 C.3   134  ASP134      0.1805
    108  C         38.9570  -14.2940   19.1340 C.2   134  ASP134      0.2598
    109  O         38.8690  -13.0430   19.1840 O.2   134  ASP134     -0.2718
    110  CB        40.8950  -14.8970   20.5820 C.3   134  ASP134      0.1424
    111  CG        41.3430  -15.2470   21.9840 C.2   134  ASP134      0.3668
    112  OD1       40.4980  -15.4620   22.8700 O.co2 134  ASP134     -0.2456
    113  OD2       42.5500  -15.2760   22.2050 O.co2 134  ASP134     -0.2456
    114  N         38.6380  -15.0060   18.0120 N.am  135  SER135     -0.1952
    115  CA        38.0630  -14.2790   16.8790 C.3   135  SER135      0.1924
    116  C         36.6380  -13.8570   17.1620 C.2   135  SER135      0.2314
    117  O         36.1680  -12.8230   16.6820 O.2   135  SER135     -0.2863
    118  CB        38.0550  -15.1690   15.6440 C.3   135  SER135      0.2116
    119  OG        39.3780  -15.3210   15.2910 O.3   135  SER135     -0.2180
    120  N         31.5210  -18.8490   16.6700 N.3   138  HIS138     -0.1241
    121  CA        31.4220  -19.5470   15.3660 C.3   138  HIS138      0.1621
    122  C         30.3170  -20.5950   15.3230 C.2   138  HIS138      0.2264
    123  O         30.0140  -21.2650   16.3520 O.2   138  HIS138     -0.2867
    124  CB        32.7180  -20.3310   15.0260 C.3   138  HIS138      0.0745
    125  CG        33.9870  -19.5600   15.1370 C.ar  138  HIS138      0.0817
    126  ND1       34.7070  -19.2050   14.0200 N.ar  138  HIS138     -0.2268
    127  CD2       34.6900  -19.0820   16.2120 C.ar  138  HIS138      0.1154
    128  CE1       35.8250  -18.5820   14.3940 C.ar  138  HIS138      0.1986
    129  NE2       35.8300  -18.4840   15.7150 N.ar  138  HIS138     -0.2212
@<TRIPOS>BOND
     1    67    66    2
     2    72    73    2
     3    72    71    1
     4    66    65    1
     5    70    71    1
     6    71    74    1
     7    68    65    1
     8    68    69    1
     9    65    64    1
    10    74    75    1
    11    61    60    2
    12    64    60   am
    13    77    75    1
    14    60    59    1
    15    75    76    1
    16     4     3    2
    17    63    62    1
    18     1     2    1
    19    59    62    1
    20    59    58    1
    21     8    10   ar
    22     8     6   ar
    23    58    52   am
    24     3     2    1
    25    85    84    1
    26     2     5    1
    27    10     9   ar
    28    52    53    2
    29    52    51    1
    30    49    47    1
    31    50    51    1
    32    51    54    1
    33     6     5    1
    34     6     7   ar
    35    48    47    1
    36    47    46    2
    37     9     7   ar
    38    84    83    1
    39    56    55   ar
    40    46    45    1
    41    11    12    1
    42    54    55    1
    43   105   104   ar
    44   105   103   ar
    45    83    82    1
    46    55    57   ar
    47   104   102   ar
    48    14    13    2
    49    15    12    1
    50    15    16    1
    51    45    44    1
    52    12    13    1
    53    27    26    1
    54    18    16    1
    55   103   101   ar
    56    26    25    1
    57    78    79    1
    58   102   100   ar
    59    16    17    1
    60    82    79    1
    61    44    43    1
    62    79    80    1
    63    25    24    1
    64   101   100   ar
    65   126   128   ar
    66   126   125   ar
    67   100    99    1
    68   128   129   ar
    69    24    23    1
    70    43    40    1
    71    42    41    2
    72   124   125    1
    73   124   121    1
    74    80    86   am
    75    80    81    2
    76   125   127   ar
    77   119   118    1
    78   122   121    1
    79   122   123    2
    80    19    20    1
    81    98    97    2
    82   121   120    1
    83    23    20    1
    84    99    96    1
    85    86    87    1
    86   118   115    1
    87    41    40    1
    88    94    92   am
    89   129   127   ar
    90    97    96    1
    91    40    39    1
    92    20    21    1
    93    92    93    2
    94    92    91    1
    95    96    95    1
    96   117   116    2
    97   115   116    1
    98   115   114    1
    99    91    90    1
   100    39    30   am
   101    89    88    2
   102    87    90    1
   103    87    88    1
   104    22    21    2
   105    30    31    2
   106    30    29    1
   107   114   108   am
   108    33    32    1
   109    33    34    1
   110    32    29    1
   111    29    28    1
   112   108   109    2
   113   108   107    1
   114    34    35    1
   115    37    36    1
   116   106   107    1
   117   107   110    1
   118   110   111    1
   119    35    36    2
   120    36    38    1
   121   111   113   ar
   122   111   112   ar
