@<TRIPOS>MOLECULE
tmp/2xpaA01.pdb
 121 114 0 0 0
SMALL
GASTEIGER

@<TRIPOS>ATOM
      1  N         32.5900  -21.9150    7.9650 N.3    42  HIS42      -0.1241
      2  CA        32.1140  -21.3430    9.2260 C.3    42  HIS42       0.1621
      3  C         31.3920  -20.0230    9.0040 C.2    42  HIS42       0.2264
      4  O         31.4830  -19.3810    7.9380 O.2    42  HIS42      -0.2867
      5  CB        33.2540  -21.1780   10.2950 C.3    42  HIS42       0.0745
      6  CG        34.1760  -20.0510   10.0300 C.ar   42  HIS42       0.0817
      7  ND1       34.6690  -19.2470   11.0330 N.ar   42  HIS42      -0.2268
      8  CD2       34.6320  -19.5220    8.8600 C.ar   42  HIS42       0.1154
      9  CE1       35.4640  -18.3230   10.5010 C.ar   42  HIS42       0.1986
     10  NE2       35.4230  -18.4400    9.1830 N.ar   42  HIS42      -0.2212
     11  N         31.0930  -16.5660   11.3860 N.3    44  LEU44      -0.1245
     12  CA        31.7270  -15.9550   12.5280 C.3    44  LEU44       0.1561
     13  C         30.9220  -14.7440   12.8570 C.2    44  LEU44       0.2260
     14  O         30.6160  -13.9680   11.9630 O.2    44  LEU44      -0.2867
     15  CB        33.1570  -15.5020   12.1710 C.3    44  LEU44       0.0270
     16  CG        33.9030  -14.6290   13.2150 C.3    44  LEU44       0.0019
     17  CD1       34.2010  -15.3880   14.5760 C.3    44  LEU44       0.0001
     18  CD2       35.2680  -14.2110   12.5390 C.3    44  LEU44       0.0001
     19  N         31.5670  -11.6290   15.2940 N.3    46  LYS46      -0.1245
     20  CA        32.5460  -11.0060   16.2080 C.3    46  LYS46       0.1561
     21  C         31.8130  -10.1710   17.2670 C.2    46  LYS46       0.2260
     22  O         30.6210   -9.8590   17.1150 O.2    46  LYS46      -0.2867
     23  CB        33.4650  -10.1050   15.3820 C.3    46  LYS46       0.0271
     24  CG        34.4200  -10.8940   14.5100 C.3    46  LYS46       0.0035
     25  CD        35.5550   -9.9260   13.9300 C.3    46  LYS46       0.0206
     26  CE        36.3620  -10.6170   12.8270 C.3    46  LYS46       0.1093
     27  NZ        37.7110   -9.9810   12.6800 N.3    46  LYS46      -0.1314
     28  N         39.4840  -10.3700   19.0940 N.3    51  ARG51      -0.1231
     29  CA        40.8830   -9.9520   18.8440 C.3    51  ARG51       0.1694
     30  C         40.9740   -8.7980   17.8670 C.2    51  ARG51       0.2591
     31  O         41.7020   -7.8340   18.1080 O.2    51  ARG51      -0.2718
     32  CB        41.7230  -11.0990   18.3320 C.3    51  ARG51       0.0321
     33  CG        43.2290  -10.9820   18.7720 C.3    51  ARG51       0.0489
     34  CD        43.7410  -12.4060   19.2610 C.3    51  ARG51       0.2205
     35  NE        44.3380  -12.4550   20.6180 N.pl3  51  ARG51      -0.0865
     36  CZ        43.7240  -12.1830   21.7820 C.cat  51  ARG51       0.5346
     37  NH1       42.4420  -11.7980   21.8300 N.pl3  51  ARG51       0.1354
     38  NH2       44.4110  -12.2800   22.9280 N.pl3  51  ARG51       0.1354
     39  N         40.2210   -8.8630   16.7790 N.am   52  ARG52      -0.1980
     40  CA        40.1800   -7.7570   15.8450 C.3    52  ARG52       0.1597
     41  C         38.7110   -7.3890   15.6700 C.2    52  ARG52       0.2287
     42  O         38.0440   -8.0130   14.8230 O.2    52  ARG52      -0.2864
     43  CB        40.7970   -8.1970   14.5050 C.3    52  ARG52       0.0334
     44  CG        40.8910   -7.0270   13.4790 C.3    52  ARG52       0.0492
     45  CD        41.6590   -7.3910   12.1740 C.3    52  ARG52       0.2205
     46  NE        40.8390   -8.2080   11.2500 N.pl3  52  ARG52      -0.0865
     47  CZ        39.8710   -7.7420   10.4330 C.cat  52  ARG52       0.5346
     48  NH1       39.5630   -6.4430   10.3930 N.pl3  52  ARG52       0.1354
     49  NH2       39.1880   -8.5810    9.6500 N.pl3  52  ARG52       0.1354
     50  N         31.3100  -12.4230    9.8070 N.3    95  ASP95      -0.1225
     51  CA        32.2860  -11.3310    9.9870 C.3    95  ASP95       0.1805
     52  C         33.6700  -11.7690    9.5730 C.2    95  ASP95       0.2598
     53  O         34.6360  -11.0990    9.8650 O.2    95  ASP95      -0.2718
     54  CB        32.3380  -10.8600   11.4650 C.3    95  ASP95       0.1424
     55  CG        31.2160   -9.9190   11.8400 C.2    95  ASP95       0.3668
     56  OD1       30.5880  -10.1180   12.9190 O.co2  95  ASP95      -0.2456
     57  OD2       30.9420   -8.9330   11.0960 O.co2  95  ASP95      -0.2456
     58  N         33.7750  -12.9000    8.8770 N.am   96  CYS96      -0.1956
     59  CA        35.0210  -13.3460    8.3070 C.3    96  CYS96       0.1843
     60  C         35.0910  -13.0640    6.7810 C.2    96  CYS96       0.2626
     61  O         34.0680  -13.0460    6.0860 O.2    96  CYS96      -0.2714
     62  CB        35.1990  -14.8580    8.5920 C.3    96  CYS96       0.0997
     63  SG        36.8110  -15.5950    8.0320 S.3    96  CYS96      -0.0797
     64  N         36.3040  -12.8940    6.2690 N.am   97  SER97      -0.1950
     65  CA        36.4840  -12.6460    4.8640 C.3    97  SER97       0.1924
     66  C         36.0950  -13.8870    4.0520 C.2    97  SER97       0.2314
     67  O         35.7280  -13.7240    2.8950 O.2    97  SER97      -0.2863
     68  CB        37.8990  -12.0670    4.5180 C.3    97  SER97       0.2116
     69  OG        38.9110  -13.0500    4.7700 O.3    97  SER97      -0.2180
     70  N         36.4630  -22.6450    4.3500 N.3   105  LEU105     -0.1245
     71  CA        37.8550  -22.4500    4.6860 C.3   105  LEU105      0.1561
     72  C         38.8150  -23.3970    3.9580 C.2   105  LEU105      0.2260
     73  O         40.0000  -23.2460    4.1580 O.2   105  LEU105     -0.2867
     74  CB        38.0860  -22.6510    6.2070 C.3   105  LEU105      0.0270
     75  CG        37.3200  -21.6690    7.0840 C.3   105  LEU105      0.0019
     76  CD1       37.6800  -22.0850    8.5340 C.3   105  LEU105      0.0001
     77  CD2       37.7640  -20.2270    6.7790 C.3   105  LEU105      0.0001
     78  N         44.6300  -24.2640   12.9890 N.3   113  MET113     -0.1230
     79  CA        43.5970  -23.3110   13.4290 C.3   113  MET113      0.1702
     80  C         43.7070  -23.0820   14.9210 C.2   113  MET113      0.2592
     81  O         44.3430  -23.8660   15.5880 O.2   113  MET113     -0.2718
     82  CB        42.1790  -23.8730   13.0980 C.3   113  MET113      0.0401
     83  CG        41.9890  -24.2180   11.6220 C.3   113  MET113      0.0596
     84  SD        41.9920  -22.7730   10.5600 S.3   113  MET113     -0.1393
     85  CE        42.0730  -23.4850    8.9220 C.3   113  MET113      0.0692
     86  N         43.0500  -22.0450   15.4270 N.am  114  GLN114     -0.1979
     87  CA        42.8750  -21.8670   16.8500 C.3   114  GLN114      0.1601
     88  C         42.3250  -23.1680   17.4230 C.2   114  GLN114      0.2287
     89  O         41.4140  -23.8450   16.8660 O.2   114  GLN114     -0.2864
     90  CB        41.9490  -20.6820   17.1800 C.3   114  GLN114      0.0394
     91  CG        42.3630  -19.3800   16.5070 C.3   114  GLN114      0.0908
     92  CD        41.7220  -18.1170   17.1020 C.2   114  GLN114      0.2608
     93  OE1       40.8680  -17.4730   16.4710 O.2   114  GLN114     -0.2717
     94  NE2       42.1350  -17.7630   18.3400 N.am  114  GLN114     -0.0878
     95  N         38.5300  -24.0680   17.7190 N.3   117  PHE117     -0.1241
     96  CA        38.0260  -24.2690   16.3550 C.3   117  PHE117      0.1605
     97  C         38.4700  -25.6550   15.7880 C.2   117  PHE117      0.2264
     98  O         37.6600  -26.4260   15.2150 O.2   117  PHE117     -0.2867
     99  CB        38.4890  -23.0940   15.4760 C.3   117  PHE117      0.0534
    100  CG        37.8150  -23.0800   14.1100 C.ar  117  PHE117     -0.0203
    101  CD1       36.7490  -22.2290   13.8690 C.ar  117  PHE117     -0.0042
    102  CD2       38.1760  -23.9960   13.1170 C.ar  117  PHE117     -0.0042
    103  CE1       36.0750  -22.2210   12.6040 C.ar  117  PHE117     -0.0003
    104  CE2       37.5220  -23.9610   11.8280 C.ar  117  PHE117     -0.0003
    105  CZ        36.4770  -23.0890   11.5980 C.ar  117  PHE117     -0.0000
    106  N         38.7200  -14.9700   18.0030 N.3   137  SER137     -0.1217
    107  CA        38.1200  -14.2400   16.8500 C.3   137  SER137      0.1889
    108  C         36.6700  -13.8370   17.1200 C.2   137  SER137      0.2288
    109  O         36.2030  -12.8260   16.6270 O.2   137  SER137     -0.2866
    110  CB        38.1520  -15.1200   15.6080 C.3   137  SER137      0.2089
    111  OG        39.5110  -15.4300   15.3400 O.3   137  SER137     -0.2183
    112  N         31.6800  -18.8580   16.5500 N.3   140  HIS140     -0.1241
    113  CA        31.5760  -19.5630   15.2470 C.3   140  HIS140      0.1621
    114  C         30.4460  -20.6340   15.2240 C.2   140  HIS140      0.2264
    115  O         30.1100  -21.2040   16.2620 O.2   140  HIS140     -0.2867
    116  CB        32.8530  -20.3210   14.9680 C.3   140  HIS140      0.0745
    117  CG        34.1170  -19.4900   15.0190 C.ar  140  HIS140      0.0817
    118  ND1       34.8250  -19.1740   13.8900 N.ar  140  HIS140     -0.2268
    119  CD2       34.8750  -19.0600   16.0720 C.ar  140  HIS140      0.1154
    120  CE1       35.9580  -18.5450   14.2210 C.ar  140  HIS140      0.1986
    121  NE2       35.9900  -18.4270   15.5470 N.ar  140  HIS140     -0.2212
@<TRIPOS>BOND
     1    67    66    2
     2    72    73    2
     3    72    71    1
     4    66    65    1
     5    70    71    1
     6    68    69    1
     7    68    65    1
     8    71    74    1
     9    65    64    1
    10    61    60    2
    11    74    75    1
    12    64    60   am
    13    77    75    1
    14    60    59    1
    15    75    76    1
    16     4     3    2
    17     1     2    1
    18    63    62    1
    19    59    62    1
    20    59    58    1
    21     8    10   ar
    22     8     6   ar
    23    58    52   am
    24    85    84    1
    25     3     2    1
    26    10     9   ar
    27     2     5    1
    28    52    53    2
    29    52    51    1
    30    49    47    1
    31    50    51    1
    32    51    54    1
    33     6     5    1
    34     6     7   ar
    35    48    47    1
    36    47    46    2
    37     9     7   ar
    38    84    83    1
    39    57    55   ar
    40    46    45    1
    41    11    12    1
    42    54    55    1
    43   105   104   ar
    44   105   103   ar
    45    83    82    1
    46   104   102   ar
    47    55    56   ar
    48    14    13    2
    49    15    12    1
    50    15    16    1
    51    45    44    1
    52    12    13    1
    53    18    16    1
    54   103   101   ar
    55    27    26    1
    56    26    25    1
    57    78    79    1
    58    82    79    1
    59   102   100   ar
    60    16    17    1
    61    79    80    1
    62    44    43    1
    63   101   100   ar
    64   118   120   ar
    65   118   117   ar
    66    25    24    1
    67   100    99    1
    68   120   121   ar
    69    43    40    1
    70    24    23    1
    71    42    41    2
    72    80    86   am
    73    80    81    2
    74   116   117    1
    75   116   113    1
    76   117   119   ar
    77    98    97    2
    78   114   113    1
    79   114   115    2
    80   113   112    1
    81    19    20    1
    82   111   110    1
    83    23    20    1
    84    86    87    1
    85    99    96    1
    86   121   119   ar
    87   110   107    1
    88    41    40    1
    89    97    96    1
    90    40    39    1
    91    20    21    1
    92    96    95    1
    93    93    92    2
    94    91    92    1
    95    91    90    1
    96   109   108    2
    97    39    30   am
    98    87    90    1
    99    87    88    1
   100   107   108    1
   101   107   106    1
   102    89    88    2
   103    92    94   am
   104    22    21    2
   105    30    31    2
   106    30    29    1
   107    32    33    1
   108    32    29    1
   109    33    34    1
   110    29    28    1
   111    34    35    1
   112    35    36    2
   113    36    37    1
   114    36    38    1
