@<TRIPOS>MOLECULE
tmp/2xpbA01.pdb
 136 129 0 0 0
SMALL
GASTEIGER

@<TRIPOS>ATOM
      1  N         32.5970  -22.0670    7.9800 N.3    42  HIS42      -0.1241
      2  CA        32.0960  -21.5550    9.2490 C.3    42  HIS42       0.1621
      3  C         31.3800  -20.2360    9.0580 C.2    42  HIS42       0.2264
      4  O         31.4530  -19.5830    7.9720 O.2    42  HIS42      -0.2867
      5  CB        33.2320  -21.4950   10.2880 C.3    42  HIS42       0.0745
      6  CG        34.1130  -20.3120   10.1410 C.ar   42  HIS42       0.0817
      7  ND1       34.5550  -19.5960   11.2070 N.ar   42  HIS42      -0.2268
      8  CD2       34.5380  -19.6480    9.0390 C.ar   42  HIS42       0.1154
      9  CE1       35.2530  -18.5580   10.7820 C.ar   42  HIS42       0.1986
     10  NE2       35.2730  -18.5890    9.4670 N.ar   42  HIS42      -0.2212
     11  N         31.1020  -16.7670   11.3910 N.3    44  LEU44      -0.1245
     12  CA        31.7370  -16.1590   12.5450 C.3    44  LEU44       0.1561
     13  C         30.9160  -14.9360   12.8780 C.2    44  LEU44       0.2260
     14  O         30.6140  -14.1220   11.9960 O.2    44  LEU44      -0.2867
     15  CB        33.1820  -15.6920   12.1890 C.3    44  LEU44       0.0270
     16  CG        34.0760  -14.8910   13.1880 C.3    44  LEU44       0.0019
     17  CD1       34.3900  -15.6050   14.5330 C.3    44  LEU44       0.0001
     18  CD2       35.4340  -14.5020   12.5570 C.3    44  LEU44       0.0001
     19  N         31.6030  -11.7670   15.2150 N.3    46  LYS46      -0.1245
     20  CA        32.6150  -11.1510   16.0930 C.3    46  LYS46       0.1561
     21  C         31.8980  -10.3770   17.1880 C.2    46  LYS46       0.2260
     22  O         30.7020  -10.1480   17.0650 O.2    46  LYS46      -0.2867
     23  CB        33.5280  -10.2100   15.2990 C.3    46  LYS46       0.0271
     24  CG        34.6440  -11.0220   14.5400 C.3    46  LYS46       0.0035
     25  CD        35.5680  -10.0420   13.7860 C.3    46  LYS46       0.0206
     26  CE        36.5580  -10.7740   12.9120 C.3    46  LYS46       0.1093
     27  NZ        37.7280   -9.9240   12.5440 N.3    46  LYS46      -0.1314
     28  N         39.6260  -10.4850   19.1650 N.3    51  ARG51      -0.1231
     29  CA        40.9930  -10.0170   18.9710 C.3    51  ARG51       0.1694
     30  C         41.0300   -8.9120   17.9260 C.2    51  ARG51       0.2591
     31  O         41.8370   -7.9820   18.0190 O.2    51  ARG51      -0.2718
     32  CB        41.9150  -11.1510   18.5830 C.3    51  ARG51       0.0321
     33  CG        43.2190  -11.2660   19.4810 C.3    51  ARG51       0.0489
     34  CD        43.8460   -9.9060   19.9420 C.3    51  ARG51       0.2205
     35  NE        45.3270   -9.8640   19.8710 N.pl3  51  ARG51      -0.0865
     36  CZ        46.1000   -8.8460   20.3120 C.cat  51  ARG51       0.5346
     37  NH1       45.5680   -7.7560   20.8880 N.pl3  51  ARG51       0.1354
     38  NH2       47.4270   -8.9150   20.1860 N.pl3  51  ARG51       0.1354
     39  N         40.1380   -8.9750   16.9440 N.am   52  ARG52      -0.1980
     40  CA        40.0820   -7.9190   15.9490 C.3    52  ARG52       0.1597
     41  C         38.6080   -7.4980   15.7140 C.2    52  ARG52       0.2287
     42  O         37.9660   -8.0090   14.7930 O.2    52  ARG52      -0.2864
     43  CB        40.7860   -8.4310   14.6780 C.3    52  ARG52       0.0334
     44  CG        41.1920   -7.3680   13.6780 C.3    52  ARG52       0.0492
     45  CD        42.0010   -7.9750   12.5100 C.3    52  ARG52       0.2205
     46  NE        41.1570   -8.7690   11.5970 N.pl3  52  ARG52      -0.0865
     47  CZ        40.2150   -8.2750   10.7700 C.cat  52  ARG52       0.5346
     48  NH1       39.9550   -6.9650   10.6890 N.pl3  52  ARG52       0.1354
     49  NH2       39.5140   -9.1010   10.0010 N.pl3  52  ARG52       0.1354
     50  N         31.3800  -12.6090    9.8580 N.3    95  ASP95      -0.1225
     51  CA        32.3980  -11.5620   10.0550 C.3    95  ASP95       0.1805
     52  C         33.7780  -12.0670    9.6500 C.2    95  ASP95       0.2598
     53  O         34.7600  -11.3620    9.8240 O.2    95  ASP95      -0.2718
     54  CB        32.4370  -11.0150   11.4870 C.3    95  ASP95       0.1424
     55  CG        31.2820  -10.0880   11.8340 C.2    95  ASP95       0.3668
     56  OD1       30.5470  -10.3270   12.8590 O.co2  95  ASP95      -0.2456
     57  OD2       31.0780   -9.0920   11.1180 O.co2  95  ASP95      -0.2456
     58  N         33.8530  -13.2520    9.0680 N.am   96  CYS96      -0.1956
     59  CA        35.0920  -13.7020    8.4330 C.3    96  CYS96       0.1843
     60  C         35.1090  -13.3350    6.9450 C.2    96  CYS96       0.2626
     61  O         34.0460  -13.2920    6.3160 O.2    96  CYS96      -0.2714
     62  CB        35.2120  -15.1930    8.5730 C.3    96  CYS96       0.0997
     63  SG        36.7830  -15.8030    8.0610 S.3    96  CYS96      -0.0797
     64  N         36.2960  -13.0650    6.3820 N.am   97  SER97      -0.1950
     65  CA        36.3820  -12.7900    4.9440 C.3    97  SER97       0.1924
     66  C         35.9630  -14.0070    4.0920 C.2    97  SER97       0.2314
     67  O         35.5520  -13.8470    2.9090 O.2    97  SER97      -0.2863
     68  CB        37.7420  -12.1880    4.5350 C.3    97  SER97       0.2116
     69  OG        38.8230  -13.0300    4.9400 O.3    97  SER97      -0.2180
     70  N         36.5770  -22.6960    4.2560 N.3   105  LEU105     -0.1245
     71  CA        37.9160  -22.4300    4.6810 C.3   105  LEU105      0.1561
     72  C         38.9080  -23.3310    3.9670 C.2   105  LEU105      0.2260
     73  O         40.1000  -23.1540    4.1510 O.2   105  LEU105     -0.2867
     74  CB        38.0620  -22.6710    6.2100 C.3   105  LEU105      0.0270
     75  CG        37.2940  -21.6900    7.1040 C.3   105  LEU105      0.0019
     76  CD1       37.3810  -22.1230    8.5690 C.3   105  LEU105      0.0001
     77  CD2       37.7860  -20.2520    6.9020 C.3   105  LEU105      0.0001
     78  N         44.7070  -24.1030   13.0900 N.3   113  MET113     -0.1230
     79  CA        43.6430  -23.1830   13.5740 C.3   113  MET113      0.1702
     80  C         43.7620  -22.9300   15.0780 C.2   113  MET113      0.2592
     81  O         44.3880  -23.7100   15.7910 O.2   113  MET113     -0.2718
     82  CB        42.2370  -23.7490   13.2630 C.3   113  MET113      0.0401
     83  CG        41.9410  -24.0330   11.7710 C.3   113  MET113      0.0596
     84  SD        41.8300  -22.5370   10.7240 S.3   113  MET113     -0.1393
     85  CE        41.7010  -23.2880    9.0950 C.3   113  MET113      0.0692
     86  N         43.1470  -21.8570   15.5680 N.am  114  GLN114     -0.1979
     87  CA        42.9960  -21.7150   17.0090 C.3   114  GLN114      0.1601
     88  C         42.3520  -22.9690   17.5730 C.2   114  GLN114      0.2287
     89  O         41.4150  -23.5530   16.9860 O.2   114  GLN114     -0.2864
     90  CB        42.1550  -20.5070   17.3420 C.3   114  GLN114      0.0394
     91  CG        42.7130  -19.2530   16.7880 C.3   114  GLN114      0.0908
     92  CD        41.8840  -18.0880   17.2360 C.2   114  GLN114      0.2608
     93  OE1       41.3670  -17.3290   16.4180 O.2   114  GLN114     -0.2717
     94  NE2       41.7100  -17.9630   18.5520 N.am  114  GLN114     -0.0878
     95  N         38.6170  -24.1770   17.7750 N.3   117  PHE117     -0.1241
     96  CA        38.0790  -24.3390   16.4190 C.3   117  PHE117      0.1605
     97  C         38.6220  -25.6230   15.8460 C.2   117  PHE117      0.2264
     98  O         37.8720  -26.3930   15.2800 O.2   117  PHE117     -0.2867
     99  CB        38.4620  -23.1560   15.5430 C.3   117  PHE117      0.0534
    100  CG        37.7910  -23.1620   14.1750 C.ar  117  PHE117     -0.0203
    101  CD1       36.7090  -22.3520   13.9390 C.ar  117  PHE117     -0.0042
    102  CD2       38.3030  -23.9350   13.1200 C.ar  117  PHE117     -0.0042
    103  CE1       36.0790  -22.3280   12.7010 C.ar  117  PHE117     -0.0003
    104  CE2       37.6510  -23.9330   11.8380 C.ar  117  PHE117     -0.0003
    105  CZ        36.5420  -23.1310   11.6470 C.ar  117  PHE117     -0.0000
    106  N         36.1280  -18.7000   20.1900 N.3   135  THR135     -0.1203
    107  CA        37.5620  -18.5460   20.1290 C.3   135  THR135      0.1994
    108  C         37.8820  -17.0650   20.3740 C.2   135  THR135      0.2618
    109  O         36.9790  -16.2240   20.5290 O.2   135  THR135     -0.2717
    110  CB        38.0600  -18.8990   18.7050 C.3   135  THR135      0.1784
    111  OG1       37.6140  -17.8380   17.8200 O.3   135  THR135     -0.2211
    112  CG2       37.5440  -20.3010   18.1920 C.3   135  THR135      0.0376
    113  N         39.1590  -16.7100   20.3290 N.am  136  ASP136     -0.1959
    114  CA        39.5230  -15.2990   20.3700 C.3   136  ASP136      0.1840
    115  C         39.0710  -14.4930   19.1750 C.2   136  ASP136      0.2622
    116  O         39.1050  -13.2740   19.2220 O.2   136  ASP136     -0.2715
    117  CB        41.0300  -15.2350   20.4590 C.3   136  ASP136      0.1450
    118  CG        41.5120  -15.5600   21.8490 C.2   136  ASP136      0.3671
    119  OD1       40.7000  -15.4100   22.7900 O.co2 136  ASP136     -0.2456
    120  OD2       42.6680  -15.9620   22.0080 O.co2 136  ASP136     -0.2456
    121  N         38.6940  -15.1520   18.0650 N.am  137  SER137     -0.1950
    122  CA        38.1190  -14.3720   16.9630 C.3   137  SER137      0.1924
    123  C         36.6570  -13.9410   17.1610 C.2   137  SER137      0.2314
    124  O         36.2070  -12.9280   16.5710 O.2   137  SER137     -0.2863
    125  CB        38.2500  -15.1270   15.6830 C.3   137  SER137      0.2116
    126  OG        39.6240  -15.3170   15.4520 O.3   137  SER137     -0.2180
    127  N         31.7610  -19.0290   16.5730 N.3   140  HIS140     -0.1241
    128  CA        31.6490  -19.7460   15.2790 C.3   140  HIS140      0.1621
    129  C         30.4650  -20.7680   15.2220 C.2   140  HIS140      0.2264
    130  O         30.1520  -21.4310   16.2410 O.2   140  HIS140     -0.2867
    131  CB        32.9360  -20.5290   15.0170 C.3   140  HIS140      0.0745
    132  CG        34.1890  -19.7190   15.0960 C.ar  140  HIS140      0.0817
    133  ND1       34.9230  -19.3760   13.9830 N.ar  140  HIS140     -0.2268
    134  CD2       34.8720  -19.2260   16.1640 C.ar  140  HIS140      0.1154
    135  CE1       36.0060  -18.7080   14.3530 C.ar  140  HIS140      0.1986
    136  NE2       35.9940  -18.5920   15.6760 N.ar  140  HIS140     -0.2212
@<TRIPOS>BOND
     1    67    66    2
     2    72    73    2
     3    72    71    1
     4    66    65    1
     5    70    71    1
     6    68    69    1
     7    68    65    1
     8    71    74    1
     9    65    64    1
    10    74    75    1
    11    61    60    2
    12    64    60   am
    13    77    75    1
    14    60    59    1
    15    75    76    1
    16     4     3    2
    17     1     2    1
    18    63    62    1
    19    59    62    1
    20    59    58    1
    21     8    10   ar
    22     8     6   ar
    23     3     2    1
    24    58    52   am
    25    85    84    1
    26     2     5    1
    27    10     9   ar
    28    52    53    2
    29    52    51    1
    30    50    51    1
    31    49    47    1
    32    51    54    1
    33     6     5    1
    34     6     7   ar
    35    48    47    1
    36    84    83    1
    37    47    46    2
    38     9     7   ar
    39    57    55   ar
    40    11    12    1
    41    54    55    1
    42    46    45    1
    43   105   104   ar
    44   105   103   ar
    45    83    82    1
    46    55    56   ar
    47   104   102   ar
    48    14    13    2
    49    15    12    1
    50    15    16    1
    51    45    44    1
    52    27    26    1
    53    12    13    1
    54    18    16    1
    55   103   101   ar
    56    26    25    1
    57    78    79    1
    58   102   100   ar
    59    16    17    1
    60    82    79    1
    61    79    80    1
    62    44    43    1
    63    25    24    1
    64   101   100   ar
    65   133   135   ar
    66   133   132   ar
    67   100    99    1
    68   135   136   ar
    69    24    23    1
    70    43    40    1
    71    42    41    2
    72   131   132    1
    73   131   128    1
    74    80    86   am
    75    80    81    2
    76   132   134   ar
    77    19    20    1
    78   129   128    1
    79   129   130    2
    80   128   127    1
    81    98    97    2
    82    23    20    1
    83   126   125    1
    84    99    96    1
    85    86    87    1
    86   136   134   ar
    87   125   122    1
    88    41    40    1
    89    97    96    1
    90    40    39    1
    91    20    21    1
    92    93    92    2
    93    96    95    1
    94   124   123    2
    95    91    92    1
    96    91    90    1
    97    39    30   am
    98   122   123    1
    99   122   121    1
   100    89    88    2
   101    87    90    1
   102    87    88    1
   103    22    21    2
   104    92    94   am
   105   111   110    1
   106    30    31    2
   107    30    29    1
   108   121   115   am
   109   112   110    1
   110    32    29    1
   111    32    33    1
   112   110   107    1
   113    29    28    1
   114   115   116    2
   115   115   114    1
   116    33    34    1
   117    35    34    1
   118    35    36    2
   119   107   106    1
   120   107   108    1
   121    38    36    1
   122    36    37    1
   123   113   114    1
   124   113   108   am
   125   114   117    1
   126   108   109    2
   127   117   118    1
   128   118   120   ar
   129   118   119   ar
