@<TRIPOS>MOLECULE
tmp/2xpcA00.pdb
 197 188 0 0 0
SMALL
GASTEIGER

@<TRIPOS>ATOM
      1  N         24.9040   34.5930   52.6820 N.3    11  ILE11      -0.1231
      2  CA        24.2890   34.5780   51.3460 C.3    11  ILE11       0.1692
      3  C         22.7800   34.7340   51.5250 C.2    11  ILE11       0.2593
      4  O         22.1140   33.9020   52.1710 O.2    11  ILE11      -0.2718
      5  CB        24.5170   33.2730   50.6120 C.3    11  ILE11       0.0266
      6  CG1       26.0210   32.9630   50.5150 C.3    11  ILE11       0.0019
      7  CG2       23.8130   33.3030   49.2220 C.3    11  ILE11       0.0020
      8  CD1       26.2500   31.5720   49.9370 C.3    11  ILE11       0.0001
      9  N         22.2450   35.8170   50.9740 N.am   12  GLY12      -0.1942
     10  CA        20.8060   36.1540   51.0800 C.3    12  GLY12       0.2014
     11  C         20.5350   37.2610   52.0940 C.2    12  GLY12       0.2638
     12  O         20.8940   37.1400   53.2710 O.2    12  GLY12      -0.2714
     13  N         19.8210   38.3000   51.6640 N.am   13  LEU13      -0.1977
     14  CA        19.4470   39.3660   52.6130 C.3    13  LEU13       0.1596
     15  C         18.0000   39.1660   53.1050 C.2    13  LEU13       0.2287
     16  O         17.7130   38.1150   53.7170 O.2    13  LEU13      -0.2864
     17  CB        19.7010   40.7660   52.0250 C.3    13  LEU13       0.0297
     18  CG        19.8420   41.8780   53.0700 C.3    13  LEU13       0.0022
     19  CD1       20.8310   41.5660   54.2060 C.3    13  LEU13       0.0001
     20  CD2       20.2220   43.1630   52.3800 C.3    13  LEU13       0.0001
     21  N         24.1110   38.4020   47.4790 N.3    35  ASP35      -0.1225
     22  CA        22.7740   37.9410   47.0910 C.3    35  ASP35       0.1805
     23  C         22.7970   37.9640   45.5740 C.2    35  ASP35       0.2598
     24  O         23.3530   38.8950   44.9660 O.2    35  ASP35      -0.2718
     25  CB        21.7240   38.8980   47.6810 C.3    35  ASP35       0.1424
     26  CG        20.3110   38.3440   47.6720 C.2    35  ASP35       0.3668
     27  OD1       19.8140   37.9910   46.5820 O.co2  35  ASP35      -0.2456
     28  OD2       19.6850   38.3420   48.7620 O.co2  35  ASP35      -0.2456
     29  N         22.2670   36.9120   44.9580 N.am   36  THR36      -0.1939
     30  CA        22.1730   36.8440   43.4980 C.3    36  THR36       0.2028
     31  C         21.1870   37.8840   42.9320 C.2    36  THR36       0.2642
     32  O         21.2640   38.1990   41.7330 O.2    36  THR36      -0.2714
     33  CB        21.7360   35.4390   43.0490 C.3    36  THR36       0.1808
     34  OG1       20.5220   35.1360   43.7380 O.3    36  THR36      -0.2208
     35  CG2       22.7910   34.3970   43.3950 C.3    36  THR36       0.0379
     36  N         20.3030   38.4470   43.7690 N.am   37  ARG37      -0.1977
     37  CA        19.3980   39.5480   43.3390 C.3    37  ARG37       0.1597
     38  C         20.1080   40.9220   43.3660 C.2    37  ARG37       0.2287
     39  O         20.8220   41.2170   44.3320 O.2    37  ARG37      -0.2864
     40  CB        18.1470   39.5980   44.2210 C.3    37  ARG37       0.0334
     41  CG        17.3740   38.2820   44.2750 C.3    37  ARG37       0.0492
     42  CD        16.3090   38.3320   45.3610 C.3    37  ARG37       0.2205
     43  NE        16.9050   38.2200   46.6890 N.pl3  37  ARG37      -0.0865
     44  CZ        16.2170   38.0400   47.8090 C.cat  37  ARG37       0.5346
     45  NH1       14.8920   37.9670   47.7580 N.pl3  37  ARG37       0.1354
     46  NH2       16.8360   37.9570   48.9700 N.pl3  37  ARG37       0.1354
     47  N         26.8290   35.6610   42.8830 N.3    57  LEU57      -0.1245
     48  CA        27.6870   35.2430   44.0050 C.3    57  LEU57       0.1561
     49  C         29.1020   35.7350   43.7150 C.2    57  LEU57       0.2260
     50  O         29.4430   35.9940   42.5550 O.2    57  LEU57      -0.2867
     51  CB        27.6600   33.7230   44.1890 C.3    57  LEU57       0.0270
     52  CG        26.2630   33.1500   44.5670 C.3    57  LEU57       0.0019
     53  CD1       26.3870   31.6870   44.9600 C.3    57  LEU57       0.0001
     54  CD2       25.6800   33.9120   45.7590 C.3    57  LEU57       0.0001
     55  N         21.3510   31.2770   53.2050 N.3    71  SER71      -0.1203
     56  CA        19.9010   31.3020   53.2760 C.3    71  SER71       0.2005
     57  C         19.3540   29.9600   52.7830 C.2    71  SER71       0.2461
     58  O         19.9460   29.3470   51.8880 O.2    71  SER71      -0.2732
     59  CB        19.3740   32.3550   52.2730 C.3    71  SER71       0.2103
     60  OG        17.9760   32.1940   52.0310 O.3    71  SER71      -0.2182
     61  N         18.1790   29.5590   53.2500 N.am   72  PRO72      -0.2717
     62  CA        17.6120   28.3320   52.7090 C.3    72  PRO72       0.1536
     63  C         17.2490   28.4760   51.2270 C.2    72  PRO72       0.2599
     64  O         17.0180   27.4860   50.5520 O.2    72  PRO72      -0.2715
     65  CB        16.3480   28.1280   53.5610 C.3    72  PRO72       0.0310
     66  CG        16.0490   29.5230   54.1690 C.3    72  PRO72       0.0237
     67  CD        17.4250   30.0800   54.4130 C.3    72  PRO72       0.0939
     68  N         17.1940   29.7190   50.7430 N.am   73  GLY73      -0.1941
     69  CA        16.8450   30.0050   49.3520 C.3    73  GLY73       0.2014
     70  C         17.9480   29.7630   48.3220 C.2    73  GLY73       0.2638
     71  O         17.6680   29.8790   47.1320 O.2    73  GLY73      -0.2714
     72  N         19.1370   29.3520   48.7690 N.am   74  ILE74      -0.1977
     73  CA        20.2360   28.9890   47.8470 C.3    74  ILE74       0.1596
     74  C         20.5330   27.5020   48.0430 C.2    74  ILE74       0.2287
     75  O         20.6470   27.0390   49.1850 O.2    74  ILE74      -0.2864
     76  CB        21.5120   29.8970   47.9930 C.3    74  ILE74       0.0276
     77  CG1       22.6030   29.5740   46.9560 C.3    74  ILE74       0.0022
     78  CG2       22.1420   29.8000   49.3500 C.3    74  ILE74       0.0022
     79  CD1       22.7880   30.6780   45.9480 C.3    74  ILE74       0.0001
     80  N         10.4810   29.3920   59.9140 N.3   138  ASN138     -0.1240
     81  CA         9.9710   29.5200   58.5670 C.3   138  ASN138      0.1653
     82  C          8.6080   30.2330   58.5370 C.2   138  ASN138      0.2266
     83  O          8.0510   30.5090   57.4650 O.2   138  ASN138     -0.2867
     84  CB         9.9610   28.1220   57.9210 C.3   138  ASN138      0.1155
     85  CG         9.6830   28.1680   56.4330 C.2   138  ASN138      0.2627
     86  OD1        8.7980   27.4660   55.9280 O.2   138  ASN138     -0.2716
     87  ND2       10.4630   28.9690   55.7200 N.am  138  ASN138     -0.0877
     88  N         14.6860   22.9030   53.3960 N.3   161  PHE161     -0.1241
     89  CA        15.9170   23.6310   53.0560 C.3   161  PHE161      0.1605
     90  C         16.6760   24.0570   54.3040 C.2   161  PHE161      0.2264
     91  O         17.9290   23.9640   54.3580 O.2   161  PHE161     -0.2867
     92  CB        15.5970   24.8840   52.2390 C.3   161  PHE161      0.0534
     93  CG        14.8250   24.6330   50.9750 C.ar  161  PHE161     -0.0203
     94  CD1       14.9730   23.4520   50.2340 C.ar  161  PHE161     -0.0042
     95  CD2       14.0460   25.6680   50.4530 C.ar  161  PHE161     -0.0042
     96  CE1       14.2700   23.2660   49.0560 C.ar  161  PHE161     -0.0003
     97  CE2       13.3750   25.5000   49.2430 C.ar  161  PHE161     -0.0003
     98  CZ        13.4890   24.2790   48.5580 C.ar  161  PHE161     -0.0000
     99  N          7.1450   17.9270   46.6210 N.3   182  ASP182     -0.1225
    100  CA         7.3020   19.3920   46.6320 C.3   182  ASP182      0.1805
    101  C          8.7690   19.7360   46.4310 C.2   182  ASP182      0.2597
    102  O          9.6540   18.8960   46.6510 O.2   182  ASP182     -0.2718
    103  CB         6.7480   19.9560   47.9590 C.3   182  ASP182      0.1424
    104  CG         6.4490   21.4580   47.9090 C.2   182  ASP182      0.3668
    105  OD1        6.6370   22.1320   46.8800 O.co2 182  ASP182     -0.2456
    106  OD2        6.0610   21.9540   49.0130 O.co2 182  ASP182     -0.2456
    107  N          9.0350   20.9580   45.9940 N.am  183  HIS183     -0.1975
    108  CA        10.3980   21.4590   45.8890 C.3   183  HIS183      0.1656
    109  C         11.2680   20.6450   44.9650 C.2   183  HIS183      0.2291
    110  O         12.4790   20.6160   45.1730 O.2   183  HIS183     -0.2864
    111  CB        11.0420   21.5730   47.2840 C.3   183  HIS183      0.0771
    112  CG        10.2160   22.3890   48.2300 C.ar  183  HIS183      0.0820
    113  ND1        9.9950   23.7320   48.0170 N.ar  183  HIS183     -0.2267
    114  CD2        9.5340   22.0570   49.3530 C.ar  183  HIS183      0.1154
    115  CE1        9.1880   24.1940   48.9690 C.ar  183  HIS183      0.1986
    116  NE2        8.9190   23.2110   49.8140 N.ar  183  HIS183     -0.2212
    117  N         12.2640   21.2470   42.1340 N.3   185  ASP185     -0.1225
    118  CA        13.2670   22.1060   41.5020 C.3   185  ASP185      0.1805
    119  C         14.5750   22.2080   42.2790 C.2   185  ASP185      0.2597
    120  O         15.5790   22.6240   41.7030 O.2   185  ASP185     -0.2718
    121  CB        12.6960   23.5050   41.1800 C.3   185  ASP185      0.1424
    122  CG        12.1860   24.2450   42.4330 C.2   185  ASP185      0.3668
    123  OD1       11.8430   23.6100   43.4500 O.co2 185  ASP185     -0.2456
    124  OD2       12.0420   25.4860   42.3380 O.co2 185  ASP185     -0.2456
    125  N         14.5480   21.7960   43.5430 N.am  186  ARG186     -0.1979
    126  CA        15.6950   21.8740   44.4650 C.3   186  ARG186      0.1597
    127  C         16.1810   20.4830   44.8500 C.2   186  ARG186      0.2287
    128  O         17.1930   20.3830   45.5560 O.2   186  ARG186     -0.2864
    129  CB        15.3090   22.6150   45.7590 C.3   186  ARG186      0.0334
    130  CG        15.5000   24.1320   45.6530 C.3   186  ARG186      0.0492
    131  CD        16.9810   24.5120   45.8240 C.3   186  ARG186      0.2205
    132  NE        17.4910   24.2620   47.1740 N.pl3 186  ARG186     -0.0865
    133  CZ        17.4370   25.1550   48.1800 C.cat 186  ARG186      0.5346
    134  NH1       16.8750   26.3280   47.9670 N.pl3 186  ARG186      0.1354
    135  NH2       17.9570   24.8620   49.3730 N.pl3 186  ARG186      0.1354
    136  N          0.5200   25.7750   48.4110 N.3   316  THR316     -0.1218
    137  CA         1.6240   25.9940   47.4700 C.3   316  THR316      0.1862
    138  C          2.1450   24.6970   46.8760 C.2   316  THR316      0.2287
    139  O          3.1520   24.7100   46.1440 O.2   316  THR316     -0.2866
    140  CB         2.7570   26.7060   48.1760 C.3   316  THR316      0.1770
    141  OG1        3.0770   26.0180   49.3940 O.3   316  THR316     -0.2211
    142  CG2        2.3290   28.1590   48.5400 C.3   316  THR316      0.0375
    143  N          4.1740   29.1280   40.0720 N.3   341  ASP341     -0.1239
    144  CA         5.3770   28.3160   39.8340 C.3   341  ASP341      0.1674
    145  C          5.1690   26.9830   40.5320 C.2   341  ASP341      0.2266
    146  O          5.2410   26.8890   41.7530 O.2   341  ASP341     -0.2867
    147  CB         6.5810   29.0690   40.4130 C.3   341  ASP341      0.1410
    148  CG         7.8060   28.1880   40.6520 C.2   341  ASP341      0.3668
    149  OD1        7.9750   27.1480   39.9670 O.co2 341  ASP341     -0.2456
    150  OD2        8.6370   28.5690   41.5310 O.co2 341  ASP341     -0.2456
    151  N          7.1370   24.4030   40.6290 N.3   343  LYS343     -0.1245
    152  CA         8.3480   23.7610   41.1910 C.3   343  LYS343      0.1561
    153  C          8.5620   22.3690   40.6230 C.2   343  LYS343      0.2260
    154  O          9.0630   21.4830   41.3170 O.2   343  LYS343     -0.2867
    155  CB         8.2610   23.7250   42.7440 C.3   343  LYS343      0.0271
    156  CG         8.3240   25.1450   43.3830 C.3   343  LYS343      0.0035
    157  CD         7.8900   25.1560   44.8640 C.3   343  LYS343      0.0206
    158  CE         6.3950   24.9570   44.9200 C.3   343  LYS343      0.1093
    159  NZ         5.9220   24.7720   46.3330 N.3   343  LYS343     -0.1314
    160  N          3.8850   27.7680   44.1110 N.3   409  ALA409     -0.1231
    161  CA         4.4630   28.9470   44.7490 C.3   409  ALA409      0.1694
    162  C          4.0200   30.2010   43.9930 C.2   409  ALA409      0.2593
    163  O          3.6050   30.1460   42.8270 O.2   409  ALA409     -0.2718
    164  CB         5.9910   28.8390   44.7800 C.3   409  ALA409      0.0304
    165  N          4.1440   31.3370   44.6670 N.am  410  SER410     -0.1938
    166  CA         3.5970   32.6060   44.1480 C.3   410  SER410      0.2055
    167  C          4.6460   33.5000   43.5080 C.2   410  SER410      0.2642
    168  O          4.3120   34.5550   42.9640 O.2   410  SER410     -0.2714
    169  CB         2.8840   33.3670   45.2740 C.3   410  SER410      0.2130
    170  OG         3.8200   33.9860   46.1220 O.3   410  SER410     -0.2179
    171  N          5.9160   33.1180   43.6020 N.am  411  LEU411     -0.1977
    172  CA         6.9860   34.0780   43.3840 C.3   411  LEU411      0.1596
    173  C          7.2330   34.5180   41.9450 C.2   411  LEU411      0.2287
    174  O          7.9750   35.4650   41.7240 O.2   411  LEU411     -0.2864
    175  CB         8.2870   33.6300   44.0600 C.3   411  LEU411      0.0297
    176  CG         8.2210   33.3490   45.5730 C.3   411  LEU411      0.0022
    177  CD1        9.6530   33.1060   46.0210 C.3   411  LEU411      0.0001
    178  CD2        7.6210   34.4780   46.4450 C.3   411  LEU411      0.0001
    179  N          4.9000   37.3960   47.7640 N.3   416  ASN416     -0.1225
    180  CA         4.7250   36.1750   48.5680 C.3   416  ASN416      0.1785
    181  C          3.2680   35.6970   48.5270 C.2   416  ASN416      0.2597
    182  O          2.3930   36.3710   47.9360 O.2   416  ASN416     -0.2718
    183  CB         5.1660   36.4450   50.0190 C.3   416  ASN416      0.1169
    184  CG         4.5570   37.7210   50.5920 C.2   416  ASN416      0.2627
    185  OD1        3.3540   38.0000   50.4120 O.2   416  ASN416     -0.2716
    186  ND2        5.3750   38.4960   51.2940 N.am  416  ASN416     -0.0877
    187  N          2.9970   34.5290   49.1180 N.am  417  PHE417     -0.1976
    188  CA         1.6360   33.9920   49.0340 C.3   417  PHE417      0.1639
    189  C          0.6430   34.8660   49.7970 C.2   417  PHE417      0.2290
    190  O         -0.5580   34.8150   49.5260 O.2   417  PHE417     -0.2864
    191  CB         1.5650   32.5100   49.5250 C.3   417  PHE417      0.0560
    192  CG         1.7000   32.3660   51.0320 C.ar  417  PHE417     -0.0200
    193  CD1        0.5920   32.4810   51.8760 C.ar  417  PHE417     -0.0042
    194  CD2        2.9600   32.1690   51.6120 C.ar  417  PHE417     -0.0042
    195  CE1        0.7380   32.3970   53.2860 C.ar  417  PHE417     -0.0003
    196  CE2        3.1110   32.0810   52.9850 C.ar  417  PHE417     -0.0003
    197  CZ         2.0070   32.2000   53.8360 C.ar  417  PHE417     -0.0000
@<TRIPOS>BOND
     1   144   143    1
     2   144   147    1
     3   144   145    1
     4   149   148   ar
     5   147   148    1
     6   145   146    2
     7   153   152    1
     8   153   154    2
     9   151   152    1
    10   148   150   ar
    11   121   118    1
    12   121   122    1
    13   152   155    1
    14   118   117    1
    15   118   119    1
    16   120   119    2
    17   174   173    2
    18    32    31    2
    19   173   172    1
    20   119   125   am
    21   124   122   ar
    22   122   123   ar
    23    50    49    2
    24   155   156    1
    25   163   162    2
    26    47    48    1
    27    31    30    1
    28    31    36   am
    29   168   167    2
    30    33    35    1
    31    33    30    1
    32    33    34    1
    33    37    38    1
    34    37    36    1
    35    37    40    1
    36    38    39    2
    37   156   157    1
    38   172   171    1
    39   172   175    1
    40    30    29    1
    41   167   171   am
    42   167   166    1
    43   125   126    1
    44    49    48    1
    45   162   165   am
    46   162   161    1
    47    48    51    1
    48   175   176    1
    49   160   161    1
    50   166   165    1
    51   166   169    1
    52    51    52    1
    53    40    41    1
    54    41    42    1
    55   126   127    1
    56   126   129    1
    57    52    53    1
    58    52    54    1
    59   161   164    1
    60   127   128    2
    61   157   158    1
    62   158   159    1
    63    29    23   am
    64   109   110    2
    65   109   108    1
    66    24    23    2
    67   169   170    1
    68    42    43    1
    69   176   177    1
    70   176   178    1
    71    23    22    1
    72   130   129    1
    73   130   131    1
    74   131   132    1
    75   108   107    1
    76   108   111    1
    77    79    77    1
    78   107   101   am
    79   139   138    2
    80   101   100    1
    81   101   102    2
    82    27    26   ar
    83    99   100    1
    84   100   103    1
    85    43    44    2
    86   138   137    1
    87   105   104   ar
    88    77    76    1
    89    22    21    1
    90    22    25    1
    91    71    70    2
    92   132   133    2
    93   111   112    1
    94   137   140    1
    95   137   136    1
    96    26    25    1
    97    26    28   ar
    98    45    44    1
    99   179   180    1
   100    44    46    1
   101    73    76    1
   102    73    74    1
   103    73    72    1
   104   104   103    1
   105   104   106   ar
   106   182   181    2
   107   134   133    1
   108    76    78    1
   109   113   112   ar
   110   113   115   ar
   111    74    75    2
   112   140   142    1
   113   140   141    1
   114   133   135    1
   115   112   114   ar
   116    70    72   am
   117    70    69    1
   118   181   180    1
   119   181   187   am
   120    98    96   ar
   121    98    97   ar
   122   180   183    1
   123   115   116   ar
   124   188   187    1
   125   188   191    1
   126   188   189    1
   127    96    94   ar
   128     7     5    1
   129    97    95   ar
   130    69    68    1
   131   114   116   ar
   132   191   192    1
   133   190   189    2
   134     8     6    1
   135   183   184    1
   136    94    93   ar
   137   185   184    2
   138    95    93   ar
   139     6     5    1
   140    64    63    2
   141   184   186   am
   142     5     2    1
   143    68    63   am
   144     9    10    1
   145     9     3   am
   146    93    92    1
   147   192   194   ar
   148   192   193   ar
   149    10    11    1
   150    63    62    1
   151     2     3    1
   152     2     1    1
   153     3     4    2
   154   194   196   ar
   155    13    11   am
   156    13    14    1
   157   193   195   ar
   158    58    57    2
   159    17    14    1
   160    17    18    1
   161    60    59    1
   162    11    12    2
   163    92    89    1
   164    59    56    1
   165    20    18    1
   166    14    15    1
   167    62    61    1
   168    62    65    1
   169    57    61   am
   170    57    56    1
   171   196   197   ar
   172    89    88    1
   173    89    90    1
   174    18    19    1
   175    15    16    2
   176    55    56    1
   177    61    67    1
   178   195   197   ar
   179    65    66    1
   180    66    67    1
   181    90    91    2
   182    87    85   am
   183    86    85    2
   184    85    84    1
   185    83    82    2
   186    84    81    1
   187    82    81    1
   188    81    80    1
