@<TRIPOS>MOLECULE
tmp/2xpwA01.pdb
 79 74 0 0 0
SMALL
GASTEIGER

@<TRIPOS>ATOM
      1  N         27.5110   28.5220   12.3720 N.3    24  LEU24      -0.1231
      2  CA        26.1020   28.8650   12.3080 C.3    24  LEU24       0.1693
      3  C         25.9270   30.0230   11.3430 C.2    24  LEU24       0.2593
      4  O         25.8070   31.1600   11.7300 O.2    24  LEU24      -0.2718
      5  CB        25.5770   29.1450   13.7100 C.3    24  LEU24       0.0284
      6  CG        24.1810   28.6150   14.0130 C.3    24  LEU24       0.0019
      7  CD1       23.7250   29.2430   15.3260 C.3    24  LEU24       0.0001
      8  CD2       23.1060   28.8290   12.9010 C.3    24  LEU24       0.0001
      9  N         25.9990   29.6890   10.0600 N.am   25  THR25      -0.1939
     10  CA        25.8960   30.6550    8.9840 C.3    25  THR25       0.2028
     11  C         24.5570   30.4640    8.2230 C.2    25  THR25       0.2642
     12  O         23.9350   29.4400    8.3680 O.2    25  THR25      -0.2714
     13  CB        27.0070   30.4790    7.9530 C.3    25  THR25       0.1808
     14  OG1       26.9130   29.2200    7.3020 O.3    25  THR25      -0.2208
     15  CG2       28.4200   30.6410    8.6040 C.3    25  THR25       0.0379
     16  N         24.1440   31.4500    7.4250 N.am   26  THR26      -0.1950
     17  CA        22.9090   31.3010    6.6420 C.3    26  THR26       0.1897
     18  C         23.0200   30.1310    5.6620 C.2    26  THR26       0.2313
     19  O         22.0730   29.3650    5.4960 O.2    26  THR26      -0.2863
     20  CB        22.4890   32.5890    5.9080 C.3    26  THR26       0.1794
     21  OG1       23.4930   32.9540    4.9630 O.3    26  THR26      -0.2208
     22  CG2       22.2570   33.7600    6.9060 C.3    26  THR26       0.0378
     23  N         22.8770   26.8730    7.8320 N.3    29  LEU29      -0.1245
     24  CA        21.5570   26.6540    8.4450 C.3    29  LEU29       0.1561
     25  C         20.5070   26.2980    7.3340 C.2    29  LEU29       0.2260
     26  O         19.6750   25.4260    7.5100 O.2    29  LEU29      -0.2867
     27  CB        21.1460   27.8540    9.2980 C.3    29  LEU29       0.0270
     28  CG        19.8210   27.6700   10.0340 C.3    29  LEU29       0.0019
     29  CD1       19.7500   26.3910   10.8330 C.3    29  LEU29       0.0001
     30  CD2       19.5730   28.9020   10.9380 C.3    29  LEU29       0.0001
     31  N         15.1080   30.9480    4.2670 N.3    40  LEU40      -0.1245
     32  CA        15.5750   31.0600    5.6300 C.3    40  LEU40       0.1561
     33  C         15.3560   32.4710    6.1440 C.2    40  LEU40       0.2260
     34  O         14.9150   32.6250    7.2730 O.2    40  LEU40      -0.2867
     35  CB        17.0600   30.7050    5.7160 C.3    40  LEU40       0.0270
     36  CG        17.6310   30.7660    7.1660 C.3    40  LEU40       0.0019
     37  CD1       16.9190   29.7490    8.0980 C.3    40  LEU40       0.0001
     38  CD2       19.1350   30.5160    7.1330 C.3    40  LEU40       0.0001
     39  N         14.2590   33.9290    9.7960 N.3    44  VAL44      -0.1231
     40  CA        15.2340   34.4400   10.7760 C.3    44  VAL44       0.1692
     41  C         16.1780   35.3020   10.0270 C.2    44  VAL44       0.2592
     42  O         16.7050   34.9030    9.0160 O.2    44  VAL44      -0.2718
     43  CB        15.8990   33.3320   11.5440 C.3    44  VAL44       0.0266
     44  CG1       16.5270   32.3510   10.6450 C.3    44  VAL44       0.0020
     45  CG2       16.9800   33.9380   12.4870 C.3    44  VAL44       0.0020
     46  N         16.3910   36.5160   10.5120 N.am   45  LYS45      -0.1966
     47  CA        17.1660   37.4880    9.7500 C.3    45  LYS45       0.1728
     48  C         18.4770   37.8940   10.3580 C.2    45  LYS45       0.2616
     49  O         19.3460   38.4160    9.6680 O.2    45  LYS45      -0.2715
     50  CB        16.3360   38.7540    9.5840 C.3    45  LYS45       0.0311
     51  CG        15.0950   38.4610    8.7580 C.3    45  LYS45       0.0038
     52  CD        14.1050   39.5240    8.9120 C.3    45  LYS45       0.0206
     53  CE        12.8200   39.1990    8.1090 C.3    45  LYS45       0.1093
     54  NZ        12.1900   37.8540    8.4220 N.3    45  LYS45      -0.1314
     55  N         18.5440   37.7360   11.6730 N.am   46  ASN46      -0.1958
     56  CA        19.5460   38.4170   12.5020 C.3    46  ASN46       0.1819
     57  C         20.2080   37.3370   13.3500 C.2    46  ASN46       0.2621
     58  O         19.5150   36.6720   14.1530 O.2    46  ASN46      -0.2715
     59  CB        18.8630   39.4540   13.3680 C.3    46  ASN46       0.1195
     60  CG        19.8090   40.1600   14.2790 C.2    46  ASN46       0.2630
     61  OD1       20.0180   39.7590   15.4320 O.2    46  ASN46      -0.2716
     62  ND2       20.3750   41.2480   13.7900 N.am   46  ASN46      -0.0877
     63  N         21.5400   37.2330   13.2150 N.am   47  LYS47      -0.1977
     64  CA        22.3150   36.1660   13.8980 C.3    47  LYS47       0.1596
     65  C         22.2050   36.3300   15.4230 C.2    47  LYS47       0.2287
     66  O         22.0190   35.3340   16.1080 O.2    47  LYS47      -0.2864
     67  CB        23.7770   36.1200   13.5040 C.3    47  LYS47       0.0298
     68  CG        24.4360   34.8620   14.0460 C.3    47  LYS47       0.0038
     69  CD        25.7440   34.5910   13.4040 C.3    47  LYS47       0.0206
     70  CE        26.4160   33.3530   13.9410 C.3    47  LYS47       0.1093
     71  NZ        27.6140   33.0140   13.1460 N.3    47  LYS47      -0.1314
     72  N         18.9710   34.9980   16.6830 N.3    50  LEU50      -0.1245
     73  CA        19.0480   33.5490   16.7170 C.3    50  LEU50       0.1561
     74  C         19.8500   33.0620   17.9010 C.2    50  LEU50       0.2260
     75  O         19.4240   32.1410   18.6030 O.2    50  LEU50      -0.2867
     76  CB        19.6890   33.0220   15.4830 C.3    50  LEU50       0.0270
     77  CG        19.7470   31.4910   15.3640 C.3    50  LEU50       0.0019
     78  CD1       18.3290   30.8650   15.5570 C.3    50  LEU50       0.0001
     79  CD2       20.2770   31.1930   13.9740 C.3    50  LEU50       0.0001
@<TRIPOS>BOND
     1    31    32    1
     2    21    20    1
     3    19    18    2
     4    32    35    1
     5    32    33    1
     6    18    17    1
     7    35    36    1
     8    20    17    1
     9    20    22    1
    10    33    34    2
    11    17    16    1
    12    38    36    1
    13    36    37    1
    14    14    13    1
    15    25    26    2
    16    25    24    1
    17    16    11   am
    18    23    24    1
    19    13    15    1
    20    13    10    1
    21    53    54    1
    22    53    52    1
    23    11    12    2
    24    11    10    1
    25    24    27    1
    26    51    52    1
    27    51    50    1
    28    10     9    1
    29    42    41    2
    30    27    28    1
    31    50    47    1
    32    49    48    2
    33    47    48    1
    34    47    46    1
    35    39    40    1
    36    41    46   am
    37    41    40    1
    38    28    29    1
    39    28    30    1
    40     9     3   am
    41    48    55   am
    42    44    43    1
    43    40    43    1
    44     3     4    2
    45     3     2    1
    46    43    45    1
    47    55    56    1
    48     2     1    1
    49     2     5    1
    50    56    57    1
    51    56    59    1
    52     8     6    1
    53    71    70    1
    54    63    57   am
    55    63    64    1
    56    57    58    2
    57    59    60    1
    58    69    70    1
    59    69    68    1
    60    67    64    1
    61    67    68    1
    62     5     6    1
    63    62    60   am
    64    64    65    1
    65    79    77    1
    66     6     7    1
    67    60    61    2
    68    77    76    1
    69    77    78    1
    70    65    66    2
    71    76    73    1
    72    72    73    1
    73    73    74    1
    74    74    75    2
