@<TRIPOS>MOLECULE
tmp/2xpzA00.pdb
 150 146 0 0 0
SMALL
GASTEIGER

@<TRIPOS>ATOM
      1  N         16.8920   37.9730    4.0890 N.3   173  PRO173     -0.2102
      2  CA        15.6000   37.9700    4.7870 C.3   173  PRO173      0.1504
      3  C         15.6990   37.5220    6.2390 C.2   173  PRO173      0.2576
      4  O         16.6030   36.7710    6.5920 O.2   173  PRO173     -0.2718
      5  CB        14.7740   36.9720    3.9740 C.3   173  PRO173      0.0282
      6  CG        15.3000   37.1150    2.6030 C.3   173  PRO173      0.0208
      7  CD        16.7800   37.3810    2.7450 C.3   173  PRO173      0.0893
      8  N         14.7730   37.9900    7.0670 N.am  174  VAL174     -0.1966
      9  CA        14.7760   37.6640    8.4810 C.3   174  VAL174      0.1727
     10  C         13.4110   37.1430    8.9160 C.2   174  VAL174      0.2616
     11  O         12.3780   37.6980    8.5430 O.2   174  VAL174     -0.2715
     12  CB        15.1640   38.8950    9.3390 C.3   174  VAL174      0.0290
     13  CG1       14.7900   38.6860   10.7910 C.3   174  VAL174      0.0023
     14  CG2       16.6500   39.2060    9.2080 C.3   174  VAL174      0.0023
     15  N         13.4170   36.0560    9.6820 N.am  175  VAL175     -0.1963
     16  CA        12.2160   35.6040   10.3620 C.3   175  VAL175      0.1727
     17  C         12.4440   35.7640   11.8690 C.2   175  VAL175      0.2616
     18  O         13.5760   35.7250   12.3410 O.2   175  VAL175     -0.2715
     19  CB        11.8280   34.1480    9.9880 C.3   175  VAL175      0.0290
     20  CG1       11.5630   34.0210    8.4900 C.3   175  VAL175      0.0023
     21  CG2       12.8970   33.1720   10.4160 C.3   175  VAL175      0.0023
     22  N         11.3690   35.9670   12.6170 N.am  176  PHE176     -0.1974
     23  CA        11.4730   36.2600   14.0390 C.3   176  PHE176      0.1639
     24  C         10.3580   35.5480   14.7720 C.2   176  PHE176      0.2290
     25  O          9.3640   35.1800   14.1740 O.2   176  PHE176     -0.2864
     26  CB        11.3930   37.7820   14.2650 C.3   176  PHE176      0.0560
     27  CG        11.4350   38.2110   15.7170 C.ar  176  PHE176     -0.0200
     28  CD1       12.6330   38.3140   16.3860 C.ar  176  PHE176     -0.0042
     29  CD2       10.2680   38.5510   16.3880 C.ar  176  PHE176     -0.0042
     30  CE1       12.6790   38.7120   17.6940 C.ar  176  PHE176     -0.0003
     31  CE2       10.3090   38.9520   17.6990 C.ar  176  PHE176     -0.0003
     32  CZ        11.5220   39.0320   18.3550 C.ar  176  PHE176     -0.0000
     33  N          7.8400   36.3490   16.1640 N.3   178  GLY178     -0.1210
     34  CA         6.8670   37.3950   16.2930 C.3   178  GLY178      0.1956
     35  C          6.1340   37.4310   14.9870 C.2   178  GLY178      0.2612
     36  O          6.4110   36.6340   14.1030 O.2   178  GLY178     -0.2717
     37  N          5.1970   38.3630   14.8740 N.am  179  ILE179     -0.1965
     38  CA         4.4440   38.5590   13.6520 C.3   179  ILE179      0.1727
     39  C          4.9440   39.8110   12.9800 C.2   179  ILE179      0.2616
     40  O          5.0270   40.8720   13.5890 O.2   179  ILE179     -0.2715
     41  CB         2.9420   38.6400   13.9280 C.3   179  ILE179      0.0290
     42  CG1        2.4730   37.3180   14.5550 C.3   179  ILE179      0.0022
     43  CG2        2.1870   38.9430   12.6440 C.3   179  ILE179      0.0023
     44  CD1        1.0040   37.2350   14.8090 C.3   179  ILE179      0.0001
     45  N          5.3100   39.6740   11.7210 N.am  180  ARG180     -0.1977
     46  CA         5.9030   40.7710   11.0020 C.3   180  ARG180      0.1597
     47  C          4.9180   41.9170   10.8210 C.2   180  ARG180      0.2287
     48  O          3.7670   41.7010   10.4680 O.2   180  ARG180     -0.2864
     49  CB         6.3870   40.2730    9.6490 C.3   180  ARG180      0.0334
     50  CG         7.3320   41.2350    9.0210 C.3   180  ARG180      0.0492
     51  CD         8.1220   40.6270    7.9260 C.3   180  ARG180      0.2205
     52  NE         8.7520   41.6690    7.1310 N.pl3 180  ARG180     -0.0865
     53  CZ         9.3300   41.4610    5.9570 C.cat 180  ARG180      0.5346
     54  NH1        9.3640   40.2480    5.4400 N.pl3 180  ARG180      0.1354
     55  NH2        9.8740   42.4700    5.2980 N.pl3 180  ARG180      0.1354
     56  N         13.6420   49.6690   -0.1670 N.3   185  ASP185     -0.1239
     57  CA        13.9130   48.7000    0.8870 C.3   185  ASP185      0.1674
     58  C         15.2030   49.0570    1.6130 C.2   185  ASP185      0.2266
     59  O         16.2530   49.2400    0.9920 O.2   185  ASP185     -0.2867
     60  CB        14.0070   47.2800    0.3170 C.3   185  ASP185      0.1410
     61  CG        13.6190   46.2130    1.3310 C.2   185  ASP185      0.3668
     62  OD1       12.4780   45.7170    1.2470 O.co2 185  ASP185     -0.2456
     63  OD2       14.4440   45.8660    2.2070 O.co2 185  ASP185     -0.2456
     64  N         16.2260   47.0390    3.9820 N.3   187  ASN187     -0.1225
     65  CA        16.5820   45.7240    4.5280 C.3   187  ASN187      0.1785
     66  C         16.3430   45.5950    6.0320 C.2   187  ASN187      0.2597
     67  O         17.0540   44.8770    6.7280 O.2   187  ASN187     -0.2718
     68  CB        18.0320   45.3570    4.1950 C.3   187  ASN187      0.1169
     69  CG        18.1770   44.7190    2.8290 C.2   187  ASN187      0.2627
     70  OD1       19.2600   44.2690    2.4640 O.2   187  ASN187     -0.2716
     71  ND2       17.0870   44.6720    2.0690 N.am  187  ASN187     -0.0877
     72  N         15.3270   46.2890    6.5220 N.am  188  ILE188     -0.1966
     73  CA        15.0050   46.2690    7.9350 C.3   188  ILE188      0.1727
     74  C         13.6640   45.5740    8.1530 C.2   188  ILE188      0.2616
     75  O         12.6210   46.1180    7.7870 O.2   188  ILE188     -0.2715
     76  CB        14.9810   47.7080    8.5140 C.3   188  ILE188      0.0290
     77  CG1       16.3260   48.3910    8.2810 C.3   188  ILE188      0.0022
     78  CG2       14.6790   47.6980    9.9950 C.3   188  ILE188      0.0023
     79  CD1       16.4630   49.6980    8.9980 C.3   188  ILE188      0.0001
     80  N         13.7020   44.3720    8.7380 N.am  189  TYR189     -0.1974
     81  CA        12.4910   43.5940    9.0390 C.3   189  TYR189      0.1639
     82  C         11.9750   43.9060   10.4330 C.2   189  TYR189      0.2290
     83  O         12.7590   44.0150   11.3780 O.2   189  TYR189     -0.2864
     84  CB        12.7480   42.0910    8.9020 C.3   189  TYR189      0.0560
     85  CG        13.3220   41.7250    7.5630 C.ar  189  TYR189     -0.0198
     86  CD1       12.5230   41.2180    6.5550 C.ar  189  TYR189     -0.0009
     87  CD2       14.6680   41.9180    7.2990 C.ar  189  TYR189     -0.0009
     88  CE1       13.0640   40.9000    5.3180 C.ar  189  TYR189      0.0417
     89  CE2       15.2120   41.6080    6.0780 C.ar  189  TYR189      0.0417
     90  CZ        14.4130   41.1050    5.0890 C.ar  189  TYR189      0.1957
     91  OH        14.9800   40.8110    3.8710 O.3   189  TYR189     -0.2866
     92  N          8.9890   43.1330   13.5110 N.3   191  PHE191     -0.1241
     93  CA         8.0340   42.1730   14.0360 C.3   191  PHE191      0.1605
     94  C          7.4480   42.5880   15.3830 C.2   191  PHE191      0.2264
     95  O          8.0360   43.3770   16.1250 O.2   191  PHE191     -0.2867
     96  CB         8.7120   40.8260   14.2130 C.3   191  PHE191      0.0534
     97  CG         9.6200   40.4520   13.0980 C.ar  191  PHE191     -0.0203
     98  CD1        9.1600   39.6810   12.0590 C.ar  191  PHE191     -0.0042
     99  CD2       10.9400   40.8420   13.1110 C.ar  191  PHE191     -0.0042
    100  CE1        9.9870   39.3130   11.0550 C.ar  191  PHE191     -0.0003
    101  CE2       11.7790   40.4750   12.1070 C.ar  191  PHE191     -0.0003
    102  CZ        11.3050   39.7120   11.0720 C.ar  191  PHE191     -0.0000
    103  N         15.5900   33.0000    2.4240 N.3   209  LEU209     -0.1231
    104  CA        14.2930   32.4070    2.7060 C.3   209  LEU209      0.1693
    105  C         13.1890   32.9870    1.8290 C.2   209  LEU209      0.2593
    106  O         13.1430   34.1890    1.5700 O.2   209  LEU209     -0.2718
    107  CB        13.9370   32.5840    4.1890 C.3   209  LEU209      0.0284
    108  CG        14.9270   32.0110    5.2090 C.3   209  LEU209      0.0019
    109  CD1       14.7930   32.6750    6.5570 C.3   209  LEU209      0.0001
    110  CD2       14.7710   30.5170    5.3470 C.3   209  LEU209      0.0001
    111  N         12.3060   32.1130    1.3670 N.am  210  SER210     -0.1938
    112  CA        11.0570   32.5240    0.7500 C.3   210  SER210      0.2055
    113  C          9.9460   31.8590    1.5430 C.2   210  SER210      0.2643
    114  O         10.2230   31.1500    2.5030 O.2   210  SER210     -0.2714
    115  CB        11.0170   32.1010   -0.7120 C.3   210  SER210      0.2130
    116  OG        11.5440   30.8000   -0.8600 O.3   210  SER210     -0.2179
    117  N          8.6950   32.0780    1.1560 N.am  211  SER211     -0.1949
    118  CA         7.5800   31.5900    1.9620 C.3   211  SER211      0.1924
    119  C          6.3810   31.1540    1.1310 C.2   211  SER211      0.2314
    120  O          6.2500   31.5300   -0.0360 O.2   211  SER211     -0.2863
    121  CB         7.1570   32.6430    2.9980 C.3   211  SER211      0.2116
    122  OG         6.5020   33.7510    2.4050 O.3   211  SER211     -0.2180
    123  N          8.5220   28.9520    5.9760 N.3   221  TYR221     -0.1241
    124  CA         9.7450   29.6240    5.5430 C.3   221  TYR221      0.1605
    125  C         10.8470   28.5940    5.3570 C.2   221  TYR221      0.2264
    126  O         11.0340   27.7250    6.2100 O.2   221  TYR221     -0.2867
    127  CB        10.1790   30.6680    6.5780 C.3   221  TYR221      0.0534
    128  CG         9.1360   31.7340    6.8010 C.ar  221  TYR221     -0.0201
    129  CD1        9.1370   32.9130    6.0490 C.ar  221  TYR221     -0.0009
    130  CD2        8.1410   31.5670    7.7450 C.ar  221  TYR221     -0.0009
    131  CE1        8.1730   33.9010    6.2390 C.ar  221  TYR221      0.0417
    132  CE2        7.1720   32.5430    7.9350 C.ar  221  TYR221      0.0417
    133  CZ         7.1960   33.7080    7.1840 C.ar  221  TYR221      0.1957
    134  OH         6.2320   34.6760    7.3900 O.3   221  TYR221     -0.2866
    135  N          3.4040   29.5520   12.2700 N.3   258  ASP258     -0.1239
    136  CA         4.3250   29.4440   11.1450 C.3   258  ASP258      0.1674
    137  C          5.4410   28.4440   11.4650 C.2   258  ASP258      0.2266
    138  O          5.7440   28.2060   12.6340 O.2   258  ASP258     -0.2867
    139  CB         4.9690   30.8120   10.8280 C.3   258  ASP258      0.1410
    140  CG         3.9920   31.8320   10.2480 C.2   258  ASP258      0.3668
    141  OD1        2.9230   31.4370    9.7450 O.co2 258  ASP258     -0.2456
    142  OD2        4.3140   33.0470   10.2920 O.co2 258  ASP258     -0.2456
    143  N          7.0650   31.3180   15.1820 N.3   276  MET276     -0.1245
    144  CA         7.9830   30.7170   14.2020 C.3   276  MET276      0.1570
    145  C          8.6390   29.4460   14.7420 C.2   276  MET276      0.2261
    146  O          9.7020   29.5150   15.3440 O.2   276  MET276     -0.2867
    147  CB         9.0650   31.7160   13.7760 C.3   276  MET276      0.0387
    148  CG         9.9350   31.2960   12.5810 C.3   276  MET276      0.0595
    149  SD         9.0620   31.3450   10.9980 S.3   276  MET276     -0.1393
    150  CE         7.9780   32.7490   11.2510 C.3   276  MET276      0.0692
@<TRIPOS>BOND
     1   116   115    1
     2   115   112    1
     3    56    57    1
     4   120   119    2
     5    60    57    1
     6    60    61    1
     7   112   111    1
     8   112   113    1
     9    57    58    1
    10    59    58    2
    11   119   118    1
    12   117   113   am
    13   117   118    1
    14    62    61   ar
    15    61    63   ar
    16   111   105   am
    17   113   114    2
    18   106   105    2
    19   105   104    1
    20   118   121    1
    21    71    69   am
    22   122   121    1
    23   103   104    1
    24    70    69    2
    25     6     7    1
    26     6     5    1
    27   104   107    1
    28     7     1    1
    29    69    68    1
    30    91    90    1
    31     5     2    1
    32    64    65    1
    33     1     2    1
    34   107   108    1
    35    68    65    1
    36    65    66    1
    37     2     3    1
    38    90    88   ar
    39    90    89   ar
    40   108   110    1
    41   108   109    1
    42    55    53    1
    43    88    86   ar
    44   125   124    1
    45   125   126    2
    46    54    53    1
    47   124   123    1
    48   124   127    1
    49    53    52    2
    50    66    72   am
    51    66    67    2
    52   129   131   ar
    53   129   128   ar
    54    89    87   ar
    55     3     4    2
    56     3     8   am
    57   131   133   ar
    58    72    73    1
    59    86    85   ar
    60   127   128    1
    61   128   130   ar
    62     8     9    1
    63    52    51    1
    64   133   134    1
    65   133   132   ar
    66    87    85   ar
    67    85    84    1
    68   130   132   ar
    69    75    74    2
    70    51    50    1
    71    73    74    1
    72    73    76    1
    73    74    80   am
    74    77    76    1
    75    77    79    1
    76     9    10    1
    77     9    12    1
    78    20    19    1
    79    76    78    1
    80    11    10    2
    81    80    81    1
    82    84    81    1
    83    10    15   am
    84    50    49    1
    85    81    82    1
    86    14    12    1
    87    12    13    1
    88    49    46    1
    89    15    16    1
    90   141   140   ar
    91    19    16    1
    92    19    21    1
    93   140   142   ar
    94   140   139    1
    95    16    17    1
    96    82    83    2
    97    48    47    2
    98    47    46    1
    99   139   136    1
   100   149   150    1
   101   149   148    1
   102    46    45    1
   103   100   102   ar
   104   100    98   ar
   105   102   101   ar
   106   136   137    1
   107   136   135    1
   108   137   138    2
   109    45    39   am
   110    17    18    2
   111    17    22   am
   112    98    97   ar
   113   101    99   ar
   114   148   147    1
   115    22    23    1
   116    43    41    1
   117    39    40    2
   118    39    38    1
   119    97    99   ar
   120    97    96    1
   121    92    93    1
   122    38    41    1
   123    38    37    1
   124   147   144    1
   125    41    42    1
   126    93    96    1
   127    93    94    1
   128    23    26    1
   129    23    24    1
   130    36    35    2
   131    25    24    2
   132   144   145    1
   133   144   143    1
   134    26    27    1
   135    42    44    1
   136   145   146    2
   137    37    35   am
   138    35    34    1
   139    94    95    2
   140    27    28   ar
   141    27    29   ar
   142    33    34    1
   143    28    30   ar
   144    29    31   ar
   145    30    32   ar
   146    31    32   ar
