@<TRIPOS>MOLECULE
tmp/2xq0A00.pdb
 178 169 0 0 0
SMALL
GASTEIGER

@<TRIPOS>ATOM
      1  N        -21.2990  -13.1250   12.6130 N.3   142  GLN142     -0.1245
      2  CA       -21.6760  -11.8490   13.1980 C.3   142  GLN142      0.1566
      3  C        -21.8030  -12.1530   14.6900 C.2   142  GLN142      0.2260
      4  O        -22.7160  -12.8730   15.0990 O.2   142  GLN142     -0.2867
      5  CB       -23.0110  -11.3590   12.6330 C.3   142  GLN142      0.0367
      6  CG       -23.6810  -10.2820   13.4840 C.3   142  GLN142      0.0905
      7  CD       -22.8240   -9.0400   13.6090 C.2   142  GLN142      0.2608
      8  OE1      -22.3910   -8.4750   12.6040 O.2   142  GLN142     -0.2717
      9  NE2      -22.5590   -8.6180   14.8420 N.am  142  GLN142     -0.0878
     10  N        -21.4770   -9.8460   17.5120 N.3   144  GLU144     -0.1245
     11  CA       -21.9700   -8.8540   18.4790 C.3   144  GLU144      0.1567
     12  C        -23.4580   -9.0820   18.7190 C.2   144  GLU144      0.2260
     13  O        -24.1910   -9.3040   17.7640 O.2   144  GLU144     -0.2867
     14  CB       -21.7360   -7.4330   17.9560 C.3   144  GLU144      0.0388
     15  CG       -21.8230   -6.3390   19.0360 C.3   144  GLU144      0.1160
     16  CD       -21.4310   -4.9760   18.4700 C.2   144  GLU144      0.3649
     17  OE1      -21.0570   -4.9380   17.2890 O.co2 144  GLU144     -0.2457
     18  OE2      -21.5050   -3.9640   19.1840 O.co2 144  GLU144     -0.2457
     19  N        -26.8590   -6.3850    8.5900 N.3   266  TYR266     -0.1227
     20  CA       -26.5130   -5.0800    9.1380 C.3   266  TYR266      0.1736
     21  C        -25.9430   -4.2120    8.0410 C.2   266  TYR266      0.2596
     22  O        -25.7530   -4.6800    6.9200 O.2   266  TYR266     -0.2718
     23  CB       -25.5440   -5.2240   10.3150 C.3   266  TYR266      0.0548
     24  CG       -26.1300   -6.0620   11.4290 C.ar  266  TYR266     -0.0200
     25  CD1      -26.8770   -5.4830   12.4400 C.ar  266  TYR266     -0.0009
     26  CD2      -25.9660   -7.4390   11.4450 C.ar  266  TYR266     -0.0009
     27  CE1      -27.4330   -6.2500   13.4460 C.ar  266  TYR266      0.0417
     28  CE2      -26.5160   -8.2130   12.4420 C.ar  266  TYR266      0.0417
     29  CZ       -27.2490   -7.6170   13.4420 C.ar  266  TYR266      0.1957
     30  OH       -27.7980   -8.3940   14.4410 O.3   266  TYR266     -0.2866
     31  N        -25.7070   -2.9420    8.3520 N.am  267  GLY267     -0.1942
     32  CA       -25.1460   -2.0190    7.3850 C.3   267  GLY267      0.2014
     33  C        -23.6570   -2.3090    7.3600 C.2   267  GLY267      0.2639
     34  O        -23.0160   -2.2790    6.3170 O.2   267  GLY267     -0.2714
     35  N        -23.1110   -2.6350    8.5250 N.am  268  GLY268     -0.1939
     36  CA       -21.6930   -2.9230    8.6200 C.3   268  GLY268      0.2014
     37  C        -21.3350   -3.4800    9.9700 C.2   268  GLY268      0.2639
     38  O        -22.1420   -3.4030   10.8910 O.2   268  GLY268     -0.2714
     39  N        -20.1360   -4.0520   10.0900 N.am  269  MET269     -0.1963
     40  CA       -19.6550   -4.5560   11.3790 C.3   269  MET269      0.1736
     41  C        -18.1770   -4.2700   11.3740 C.2   269  MET269      0.2616
     42  O        -17.4760   -4.6440   10.4280 O.2   269  MET269     -0.2715
     43  CB       -19.8920   -6.0530   11.5350 C.3   269  MET269      0.0427
     44  CG       -19.2960   -6.6460   12.8090 C.3   269  MET269      0.0599
     45  SD       -19.9070   -5.8760   14.3440 S.3   269  MET269     -0.1393
     46  CE       -18.5020   -6.1020   15.4360 C.3   269  MET269      0.0692
     47  N        -17.7230   -3.6180   12.4370 N.am  270  GLU270     -0.1977
     48  CA       -16.3690   -3.0880   12.5450 C.3   270  GLU270      0.1602
     49  C        -15.3130   -4.1020   12.9930 C.2   270  GLU270      0.2287
     50  O        -14.4650   -3.7710   13.8150 O.2   270  GLU270     -0.2864
     51  CB       -16.3950   -1.9330   13.5540 C.3   270  GLU270      0.0415
     52  CG       -16.6440   -2.3570   15.0390 C.3   270  GLU270      0.1163
     53  CD       -18.1310   -2.3590   15.4720 C.2   270  GLU270      0.3649
     54  OE1      -19.0360   -2.4210   14.6070 O.co2 270  GLU270     -0.2457
     55  OE2      -18.3940   -2.3010   16.6970 O.co2 270  GLU270     -0.2457
     56  N        -21.4720    5.0500    5.9840 N.3   291  VAL291     -0.1245
     57  CA       -21.4660    3.8130    6.7490 C.3   291  VAL291      0.1561
     58  C        -20.0300    3.3400    6.9230 C.2   291  VAL291      0.2260
     59  O        -19.7090    2.6390    7.8940 O.2   291  VAL291     -0.2867
     60  CB       -22.2880    2.6910    6.0800 C.3   291  VAL291      0.0252
     61  CG1      -22.1430    1.3850    6.8740 C.3   291  VAL291      0.0019
     62  CG2      -23.7610    3.1000    5.9640 C.3   291  VAL291      0.0019
     63  N        -18.4450    5.4360    9.6350 N.3   294  HIS294     -0.1226
     64  CA       -18.8980    4.8300   10.8830 C.3   294  HIS294      0.1752
     65  C        -18.0180    3.6600   11.3190 C.2   294  HIS294      0.2595
     66  O        -17.4490    3.6880   12.3880 O.2   294  HIS294     -0.2718
     67  CB       -20.3600    4.3810   10.7850 C.3   294  HIS294      0.0759
     68  CG       -20.9240    3.9350   12.1000 C.ar  294  HIS294      0.0818
     69  ND1      -21.5490    4.7970   12.9710 N.ar  294  HIS294     -0.2268
     70  CD2      -20.9040    2.7270   12.7140 C.ar  294  HIS294      0.1154
     71  CE1      -21.9080    4.1370   14.0630 C.ar  294  HIS294      0.1986
     72  NE2      -21.5230    2.8800   13.9310 N.ar  294  HIS294     -0.2212
     73  N        -17.9090    2.6250   10.4920 N.am  295  GLU295     -0.1979
     74  CA       -17.0980    1.4670   10.8560 C.3   295  GLU295      0.1602
     75  C        -15.6470    1.8800   11.0690 C.2   295  GLU295      0.2287
     76  O        -14.9520    1.3230   11.9110 O.2   295  GLU295     -0.2864
     77  CB       -17.1300    0.4040    9.7610 C.3   295  GLU295      0.0415
     78  CG       -18.5230    0.0320    9.2610 C.3   295  GLU295      0.1163
     79  CD       -19.4250   -0.4500   10.3630 C.2   295  GLU295      0.3649
     80  OE1      -20.6580   -0.4330   10.1600 O.co2 295  GLU295     -0.2457
     81  OE2      -18.9070   -0.8320   11.4380 O.co2 295  GLU295     -0.2457
     82  N        -15.0250    3.2920   14.5460 N.3   298  HIS298     -0.1241
     83  CA       -14.9740    2.2060   15.5290 C.3   298  HIS298      0.1621
     84  C        -13.5420    1.7600   15.8150 C.2   298  HIS298      0.2264
     85  O        -13.2230    1.2840   16.9200 O.2   298  HIS298     -0.2867
     86  CB       -15.7860    0.9980   15.0640 C.3   298  HIS298      0.0745
     87  CG       -17.2070    1.0240   15.5110 C.ar  298  HIS298      0.0817
     88  ND1      -17.5610    1.1680   16.8340 N.ar  298  HIS298     -0.2268
     89  CD2      -18.3670    0.9010   14.8140 C.ar  298  HIS298      0.1154
     90  CE1      -18.8840    1.1600   16.9320 C.ar  298  HIS298      0.1986
     91  NE2      -19.3900    0.9990   15.7230 N.ar  298  HIS298     -0.2212
     92  N        -22.8900    0.4630   26.5970 N.3   313  PHE313     -0.1241
     93  CA       -22.7870    0.3600   25.1440 C.3   313  PHE313      0.1605
     94  C        -22.6900    1.7370   24.4820 C.2   313  PHE313      0.2264
     95  O        -22.1150    1.8680   23.3990 O.2   313  PHE313     -0.2867
     96  CB       -24.0080   -0.4010   24.6250 C.3   313  PHE313      0.0534
     97  CG       -23.9550   -0.7320   23.1570 C.ar  313  PHE313     -0.0203
     98  CD1      -22.8250   -1.3190   22.6050 C.ar  313  PHE313     -0.0042
     99  CD2      -25.0700   -0.5180   22.3450 C.ar  313  PHE313     -0.0042
    100  CE1      -22.7820   -1.6520   21.2490 C.ar  313  PHE313     -0.0003
    101  CE2      -25.0360   -0.8450   20.9940 C.ar  313  PHE313     -0.0003
    102  CZ       -23.8800   -1.4150   20.4500 C.ar  313  PHE313     -0.0000
    103  N        -21.0290    3.0900   20.7600 N.3   317  GLU317     -0.1245
    104  CA       -21.8160    3.6400   19.6510 C.3   317  GLU317      0.1567
    105  C        -22.0020    5.1630   19.6830 C.2   317  GLU317      0.2260
    106  O        -22.0660    5.7930   18.6360 O.2   317  GLU317     -0.2867
    107  CB       -23.1710    2.9380   19.5360 C.3   317  GLU317      0.0388
    108  CG       -23.0800    1.4410   19.1990 C.3   317  GLU317      0.1160
    109  CD       -22.4080    1.1550   17.8570 C.2   317  GLU317      0.3649
    110  OE1      -22.2750    2.0810   17.0220 O.co2 317  GLU317     -0.2457
    111  OE2      -22.0200   -0.0090   17.6260 O.co2 317  GLU317     -0.2457
    112  N        -20.7000    7.5140   16.6100 N.3   321  VAL321     -0.1245
    113  CA       -21.5840    8.3880   15.8550 C.3   321  VAL321      0.1561
    114  C        -21.0200    9.8120   15.9220 C.2   321  VAL321      0.2260
    115  O        -21.0290   10.5400   14.9240 O.2   321  VAL321     -0.2867
    116  CB       -23.0660    8.3290   16.3810 C.3   321  VAL321      0.0252
    117  CG1      -23.9450    9.3760   15.6670 C.3   321  VAL321      0.0019
    118  CG2      -23.6810    6.9250   16.1680 C.3   321  VAL321      0.0019
    119  N        -17.8060    9.7910   13.6600 N.3   324  GLU324     -0.1245
    120  CA       -18.2830    9.6820   12.2820 C.3   324  GLU324      0.1567
    121  C        -18.7130   11.0510   11.7600 C.2   324  GLU324      0.2260
    122  O        -18.3150   11.4740   10.6750 O.2   324  GLU324     -0.2867
    123  CB       -19.4890    8.7320   12.2530 C.3   324  GLU324      0.0388
    124  CG       -20.2700    8.6500   10.9350 C.3   324  GLU324      0.1160
    125  CD       -21.5970    7.8940   11.1020 C.2   324  GLU324      0.3649
    126  OE1      -21.9020    7.4060   12.2280 O.co2 324  GLU324     -0.2457
    127  OE2      -22.3400    7.7890   10.0990 O.co2 324  GLU324     -0.2457
    128  N        -29.4470   -7.8240   23.4220 N.3   375  ASP375     -0.1239
    129  CA       -30.1710   -7.3650   22.2370 C.3   375  ASP375      0.1674
    130  C        -31.3000   -6.4270   22.6370 C.2   375  ASP375      0.2266
    131  O        -31.4910   -5.3760   22.0330 O.2   375  ASP375     -0.2867
    132  CB       -30.7760   -8.5490   21.4700 C.3   375  ASP375      0.1410
    133  CG       -29.8070   -9.1830   20.4810 C.2   375  ASP375      0.3668
    134  OD1      -28.8630   -8.4960   20.0330 O.co2 375  ASP375     -0.2456
    135  OD2      -30.0040  -10.3720   20.1370 O.co2 375  ASP375     -0.2456
    136  N        -30.5460   -2.8290   22.6340 N.3   378  PHE378     -0.1241
    137  CA       -30.0290   -2.1310   21.4690 C.3   378  PHE378      0.1605
    138  C        -31.1770   -1.4070   20.7760 C.2   378  PHE378      0.2264
    139  O        -32.2400   -1.9730   20.4950 O.2   378  PHE378     -0.2867
    140  CB       -29.2570   -3.0670   20.5300 C.3   378  PHE378      0.0534
    141  CG       -28.0850   -3.7440   21.1940 C.ar  378  PHE378     -0.0203
    142  CD1      -27.3150   -3.0640   22.1290 C.ar  378  PHE378     -0.0042
    143  CD2      -27.7590   -5.0550   20.9000 C.ar  378  PHE378     -0.0042
    144  CE1      -26.2420   -3.6790   22.7510 C.ar  378  PHE378     -0.0003
    145  CE2      -26.6850   -5.6730   21.5230 C.ar  378  PHE378     -0.0003
    146  CZ       -25.9270   -4.9850   22.4430 C.ar  378  PHE378     -0.0000
    147  N        -26.7400    5.2700   20.3300 N.3   383  TYR383     -0.1241
    148  CA       -26.1700    5.9850   19.1970 C.3   383  TYR383      0.1605
    149  C        -26.4130    7.4820   19.3330 C.2   383  TYR383      0.2264
    150  O        -25.4780    8.2790   19.3570 O.2   383  TYR383     -0.2867
    151  CB       -26.8070    5.4840   17.8880 C.3   383  TYR383      0.0534
    152  CG       -26.4740    4.0420   17.5440 C.ar  383  TYR383     -0.0201
    153  CD1      -27.1890    2.9800   18.1010 C.ar  383  TYR383     -0.0009
    154  CD2      -25.4580    3.7480   16.6450 C.ar  383  TYR383     -0.0009
    155  CE1      -26.8740    1.6510   17.7840 C.ar  383  TYR383      0.0417
    156  CE2      -25.1370    2.4280   16.3180 C.ar  383  TYR383      0.0417
    157  CZ       -25.8420    1.3920   16.8860 C.ar  383  TYR383      0.1957
    158  OH       -25.5230    0.0930   16.5460 O.3   383  TYR383     -0.2866
    159  N        -30.7540   -6.7500    4.2110 N.3   581  ARG581     -0.1245
    160  CA       -30.4660   -5.7920    5.2770 C.3   581  ARG581      0.1563
    161  C        -31.7150   -5.5180    6.1160 C.2   581  ARG581      0.2260
    162  O        -32.7290   -5.0740    5.5890 O.2   581  ARG581     -0.2867
    163  CB       -29.9320   -4.4840    4.6880 C.3   581  ARG581      0.0307
    164  CG       -29.4500   -3.4930    5.7360 C.3   581  ARG581      0.0489
    165  CD       -28.7060   -2.3320    5.0960 C.3   581  ARG581      0.2205
    166  NE       -28.2720   -1.3610    6.0930 N.pl3 581  ARG581     -0.0865
    167  CZ       -27.7490   -0.1760    5.8070 C.cat 581  ARG581      0.5346
    168  NH1      -27.5760    0.1910    4.5460 N.pl3 581  ARG581      0.1354
    169  NH2      -27.3930    0.6420    6.7860 N.pl3 581  ARG581      0.1354
    170  N        -32.7600   -3.2680    8.1030 N.3   583  LYS583     -0.1245
    171  CA       -33.3460   -1.9260    8.0360 C.3   583  LYS583      0.1561
    172  C        -34.3580   -1.7650    6.8940 C.2   583  LYS583      0.2260
    173  O        -35.2700   -0.9420    6.9930 O.2   583  LYS583     -0.2867
    174  CB       -32.2480   -0.8550    7.9560 C.3   583  LYS583      0.0271
    175  CG       -32.0540   -0.2380    6.5780 C.3   583  LYS583      0.0035
    176  CD       -30.9140    0.7930    6.5450 C.3   583  LYS583      0.0206
    177  CE       -31.2990    2.1170    7.1860 C.3   583  LYS583      0.1093
    178  NZ       -30.3330    3.1990    6.8260 N.3   583  LYS583     -0.1314
@<TRIPOS>BOND
     1   159   160    1
     2   168   167    1
     3   163   160    1
     4   163   164    1
     5   165   164    1
     6   165   166    1
     7   160   161    1
     8   162   161    2
     9   167   166    2
    10   167   169    1
    11    62    60    1
    12    56    57    1
    13    60    57    1
    14    60    61    1
    15    34    33    2
    16   176   175    1
    17   176   177    1
    18   175   174    1
    19    57    58    1
    20   178   177    1
    21   172   173    2
    22   172   171    1
    23    22    21    2
    24    58    59    2
    25    33    32    1
    26    33    35   am
    27    32    31    1
    28   174   171    1
    29   171   170    1
    30    21    31   am
    31    21    20    1
    32    35    36    1
    33    19    20    1
    34    36    37    1
    35    20    23    1
    36    78    77    1
    37    78    79    1
    38    63    64    1
    39    77    74    1
    40    37    39   am
    41    37    38    2
    42    39    40    1
    43   127   125   ar
    44    80    79   ar
    45    23    24    1
    46    79    81   ar
    47    42    41    2
    48    73    74    1
    49    73    65   am
    50   122   121    2
    51    67    64    1
    52    67    68    1
    53    74    75    1
    54    64    65    1
    55   124   125    1
    56   124   123    1
    57    75    76    2
    58   125   126   ar
    59    65    66    2
    60    41    40    1
    61    41    47   am
    62    40    43    1
    63    24    26   ar
    64    24    25   ar
    65    26    28   ar
    66    43    44    1
    67   121   120    1
    68    68    70   ar
    69    68    69   ar
    70   123   120    1
    71   120   119    1
    72    47    48    1
    73    25    27   ar
    74    28    29   ar
    75    48    49    1
    76    48    51    1
    77     8     7    2
    78     1     2    1
    79     5     2    1
    80     5     6    1
    81    70    72   ar
    82    44    45    1
    83    69    71   ar
    84    49    50    2
    85     2     3    1
    86    29    27   ar
    87    29    30    1
    88     6     7    1
    89    51    52    1
    90     7     9   am
    91    72    71   ar
    92    45    46    1
    93    82    83    1
    94    54    53   ar
    95     3     4    2
    96    89    87   ar
    97    89    91   ar
    98   115   114    2
    99    52    53    1
   100    86    87    1
   101    86    83    1
   102    53    55   ar
   103    87    88   ar
   104    83    84    1
   105   117   116    1
   106    91    90   ar
   107    84    85    2
   108   113   114    1
   109   113   116    1
   110   113   112    1
   111   118   116    1
   112   156   154   ar
   113   156   157   ar
   114   158   157    1
   115   154   152   ar
   116    88    90   ar
   117   157   155   ar
   118   110   109   ar
   119    17    16   ar
   120    10    11    1
   121   152   151    1
   122   152   153   ar
   123   111   109   ar
   124    13    12    2
   125   155   153   ar
   126   109   108    1
   127   151   148    1
   128    14    11    1
   129    14    15    1
   130    16    15    1
   131    16    18   ar
   132    11    12    1
   133   106   105    2
   134   148   149    1
   135   148   147    1
   136   108   107    1
   137   149   150    2
   138   107   104    1
   139   104   105    1
   140   104   103    1
   141   134   133   ar
   142   135   133   ar
   143   102   101   ar
   144   102   100   ar
   145   133   132    1
   146   139   138    2
   147   140   141    1
   148   140   137    1
   149   138   137    1
   150   143   141   ar
   151   143   145   ar
   152   101    99   ar
   153   141   142   ar
   154   100    98   ar
   155   137   136    1
   156   132   129    1
   157   145   146   ar
   158   131   130    2
   159   142   144   ar
   160   129   130    1
   161   129   128    1
   162    99    97   ar
   163   146   144   ar
   164    98    97   ar
   165    97    96    1
   166    95    94    2
   167    94    93    1
   168    96    93    1
   169    93    92    1
