@<TRIPOS>MOLECULE
tmp/2xq2A02.pdb
 70 64 0 0 0
SMALL
GASTEIGER

@<TRIPOS>ATOM
      1  N         -7.1560  -28.4720  -58.7820 N.3    32  SER32      -0.1217
      2  CA        -5.8150  -27.9170  -58.5760 C.3    32  SER32       0.1889
      3  C         -5.0950  -28.6170  -57.4100 C.2    32  SER32       0.2288
      4  O         -3.9000  -28.9270  -57.5230 O.2    32  SER32      -0.2866
      5  CB        -5.9290  -26.4190  -58.3070 C.3    32  SER32       0.2089
      6  OG        -4.6830  -25.7980  -58.0660 O.3    32  SER32      -0.2183
      7  N         -4.6230  -32.5770  -58.1960 N.3    35  ALA35      -0.1231
      8  CA        -3.6690  -32.7160  -59.3060 C.3    35  ALA35       0.1694
      9  C         -2.2700  -33.1640  -58.8960 C.2    35  ALA35       0.2591
     10  O         -1.6550  -33.9220  -59.6380 O.2    35  ALA35      -0.2718
     11  CB        -3.5830  -31.4350  -60.1000 C.3    35  ALA35       0.0304
     12  N         -1.7880  -32.7400  -57.7140 N.am   36  ALA36      -0.1980
     13  CA        -0.4700  -33.0720  -57.1630 C.3    36  ALA36       0.1597
     14  C         -0.2580  -34.5740  -57.0090 C.2    36  ALA36       0.2287
     15  O          0.8750  -35.0470  -57.1240 O.2    36  ALA36      -0.2864
     16  CB        -0.2980  -32.3950  -55.8190 C.3    36  ALA36       0.0319
     17  N          0.4090  -28.0980  -67.5080 N.3   159  ASP159     -0.1225
     18  CA        -0.0410  -28.9210  -66.3820 C.3   159  ASP159      0.1805
     19  C         -1.3860  -29.5670  -66.6950 C.2   159  ASP159      0.2597
     20  O         -1.5940  -30.7380  -66.3620 O.2   159  ASP159     -0.2718
     21  CB        -0.1300  -28.0860  -65.0920 C.3   159  ASP159      0.1424
     22  CG         1.1910  -27.5030  -64.6240 C.2   159  ASP159      0.3668
     23  OD1        2.1570  -27.4810  -65.4330 O.co2 159  ASP159     -0.2456
     24  OD2        1.2520  -27.0260  -63.4640 O.co2 159  ASP159     -0.2456
     25  N         -2.2950  -28.8050  -67.3370 N.am  160  VAL160     -0.1980
     26  CA        -3.6200  -29.2940  -67.7140 C.3   160  VAL160      0.1595
     27  C         -3.4600  -30.3990  -68.7800 C.2   160  VAL160      0.2287
     28  O         -4.0510  -31.4860  -68.6370 O.2   160  VAL160     -0.2864
     29  CB        -4.5480  -28.1340  -68.1400 C.3   160  VAL160      0.0276
     30  CG1       -5.8850  -28.6430  -68.6590 C.3   160  VAL160      0.0022
     31  CG2       -4.7620  -27.1650  -66.9860 C.3   160  VAL160      0.0022
     32  N         -1.6510  -33.5700  -66.9790 N.3   163  VAL163     -0.1245
     33  CA        -2.6090  -34.3240  -66.1490 C.3   163  VAL163      0.1561
     34  C         -3.5450  -35.1850  -67.0200 C.2   163  VAL163      0.2260
     35  O         -3.6940  -36.3750  -66.7540 O.2   163  VAL163     -0.2867
     36  CB        -3.3460  -33.4000  -65.1410 C.3   163  VAL163      0.0252
     37  CG1       -4.7240  -33.9320  -64.7620 C.3   163  VAL163      0.0019
     38  CG2       -2.4950  -33.1890  -63.8970 C.3   163  VAL163      0.0019
     39  N          1.7870  -25.6910  -49.1880 N.3   239  TYR239     -0.1227
     40  CA         1.9390  -24.2420  -49.2520 C.3   239  TYR239      0.1736
     41  C          0.8420  -23.9070  -50.2460 C.2   239  TYR239      0.2595
     42  O          0.1920  -22.8680  -50.1200 O.2   239  TYR239     -0.2718
     43  CB         3.3370  -23.8200  -49.7750 C.3   239  TYR239      0.0548
     44  CG         3.8780  -24.6450  -50.9340 C.ar  239  TYR239     -0.0200
     45  CD1        3.8490  -24.1580  -52.2360 C.ar  239  TYR239     -0.0009
     46  CD2        4.4900  -25.8840  -50.7150 C.ar  239  TYR239     -0.0009
     47  CE1        4.3910  -24.8910  -53.2970 C.ar  239  TYR239      0.0417
     48  CE2        5.0190  -26.6340  -51.7690 C.ar  239  TYR239      0.0417
     49  CZ         4.9630  -26.1350  -53.0600 C.ar  239  TYR239      0.1957
     50  OH         5.4750  -26.8670  -54.1080 O.3   239  TYR239     -0.2866
     51  N          0.5750  -24.8630  -51.1600 N.am  240  ILE240     -0.1980
     52  CA        -0.4650  -24.8380  -52.1870 C.3   240  ILE240      0.1595
     53  C         -1.8760  -24.7210  -51.5660 C.2   240  ILE240      0.2287
     54  O         -2.7480  -24.1060  -52.1870 O.2   240  ILE240     -0.2864
     55  CB        -0.2750  -26.0400  -53.1970 C.3   240  ILE240      0.0276
     56  CG1        0.9690  -25.8140  -54.1010 C.3   240  ILE240      0.0022
     57  CG2       -1.5140  -26.2790  -54.0830 C.3   240  ILE240      0.0022
     58  CD1        1.7450  -27.0180  -54.4530 C.3   240  ILE240      0.0001
     59  N          8.3770  -32.8880  -62.5880 N.3   330  SER330     -0.1217
     60  CA         8.3790  -33.1650  -61.1470 C.3   330  SER330      0.1889
     61  C          9.7500  -32.9210  -60.5560 C.2   330  SER330      0.2288
     62  O          9.8390  -32.3790  -59.4530 O.2   330  SER330     -0.2866
     63  CB         7.9450  -34.5940  -60.8510 C.3   330  SER330      0.2089
     64  OG         6.6490  -34.8550  -61.3620 O.3   330  SER330     -0.2183
     65  N         10.5050  -28.9950  -60.4310 N.3   333  SER333     -0.1217
     66  CA         9.6710  -28.4800  -59.3460 C.3   333  SER333      0.1889
     67  C         10.3480  -28.7390  -57.9750 C.2   333  SER333      0.2288
     68  O         10.5190  -27.8060  -57.1970 O.2   333  SER333     -0.2866
     69  CB         8.2990  -29.1460  -59.4080 C.3   333  SER333      0.2089
     70  OG         7.2770  -28.3800  -58.7930 O.3   333  SER333     -0.2183
@<TRIPOS>BOND
     1    27    28    2
     2    27    26    1
     3    30    29    1
     4    29    26    1
     5    29    31    1
     6    26    25    1
     7    17    18    1
     8    25    19   am
     9    34    35    2
    10    34    33    1
    11    32    33    1
    12    19    18    1
    13    19    20    2
    14    18    21    1
    15    33    36    1
    16    23    22   ar
    17    36    37    1
    18    36    38    1
    19    21    22    1
    20    22    24   ar
    21    59    60    1
    22    64    63    1
    23    60    63    1
    24    60    61    1
    25    61    62    2
    26    65    66    1
    27    11     8    1
    28    10     9    2
    29    69    66    1
    30    69    70    1
    31    66    67    1
    32     8     9    1
    33     8     7    1
    34     9    12   am
    35     1     2    1
    36     2     5    1
    37     2     3    1
    38     5     6    1
    39    67    68    2
    40    12    13    1
    41     4     3    2
    42    13    14    1
    43    13    16    1
    44    15    14    2
    45    58    56    1
    46    50    49    1
    47    56    55    1
    48    57    55    1
    49    47    49   ar
    50    47    45   ar
    51    55    52    1
    52    49    48   ar
    53    45    44   ar
    54    54    53    2
    55    52    53    1
    56    52    51    1
    57    48    46   ar
    58    51    41   am
    59    44    46   ar
    60    44    43    1
    61    41    42    2
    62    41    40    1
    63    43    40    1
    64    40    39    1
