@<TRIPOS>MOLECULE
tmp/2xqgA00.pdb
 102 101 0 0 0
SMALL
GASTEIGER

@<TRIPOS>ATOM
      1  N        -17.6790  -36.8790  -26.8660 N.3   114  GLY114     -0.1210
      2  CA       -17.8740  -38.2570  -27.3000 C.3   114  GLY114      0.1956
      3  C        -16.4970  -38.9480  -27.1460 C.2   114  GLY114      0.2612
      4  O        -16.1770  -39.9130  -27.8600 O.2   114  GLY114     -0.2717
      5  N        -15.6160  -38.4070  -26.2860 N.am  115  GLY115     -0.1956
      6  CA       -14.3490  -39.1120  -26.0290 C.3   115  GLY115      0.1869
      7  C        -13.3680  -39.0300  -27.2040 C.2   115  GLY115      0.2309
      8  O        -12.4000  -39.7780  -27.2310 O.2   115  GLY115     -0.2863
      9  N        -18.4660  -29.4940  -24.8300 N.3   195  GLU195     -0.1231
     10  CA       -18.5530  -30.2800  -23.6140 C.3   195  GLU195      0.1699
     11  C        -17.6960  -31.5320  -23.6740 C.2   195  GLU195      0.2593
     12  O        -17.5600  -32.1560  -24.7420 O.2   195  GLU195     -0.2718
     13  CB       -20.0190  -30.6530  -23.3150 C.3   195  GLU195      0.0402
     14  CG       -20.2660  -31.3460  -21.9600 C.3   195  GLU195      0.1161
     15  CD       -20.3640  -32.8260  -22.1090 C.2   195  GLU195      0.3649
     16  OE1      -20.2680  -33.2490  -23.3000 O.co2 195  GLU195     -0.2457
     17  OE2      -20.6020  -33.5400  -21.0710 O.co2 195  GLU195     -0.2457
     18  N        -17.0910  -31.8960  -22.5370 N.am  196  SER196     -0.1938
     19  CA       -16.3060  -33.1720  -22.4440 C.3   196  SER196      0.2055
     20  C        -15.1760  -33.0970  -23.4660 C.2   196  SER196      0.2642
     21  O        -14.3750  -32.1200  -23.3760 O.2   196  SER196     -0.2714
     22  CB       -17.2100  -34.4010  -22.5710 C.3   196  SER196      0.2130
     23  OG       -16.6320  -35.5480  -21.9690 O.3   196  SER196     -0.2179
     24  N        -15.0340  -34.0380  -24.4070 N.am  197  ALA197     -0.1977
     25  CA       -13.9170  -33.8950  -25.3540 C.3   197  ALA197      0.1597
     26  C        -14.0480  -32.6190  -26.2140 C.2   197  ALA197      0.2287
     27  O        -13.0440  -32.1230  -26.7710 O.2   197  ALA197     -0.2864
     28  CB       -13.7640  -35.1370  -26.2560 C.3   197  ALA197      0.0319
     29  N         -7.5610  -38.1810  -19.5860 N.3   229  TRP229     -0.1241
     30  CA        -7.9240  -38.8970  -20.7990 C.3   229  TRP229      0.1605
     31  C         -7.7000  -38.0540  -22.0420 C.2   229  TRP229      0.2264
     32  O         -7.9790  -38.4770  -23.1070 O.2   229  TRP229     -0.2867
     33  CB        -9.4240  -39.2960  -20.7390 C.3   229  TRP229      0.0550
     34  CG       -10.3010  -38.1180  -20.2450 C.ar  229  TRP229      0.0003
     35  CD1      -10.6640  -37.8720  -18.9430 C.ar  229  TRP229      0.0946
     36  CD2      -10.8500  -37.0220  -21.0150 C.ar  229  TRP229      0.0152
     37  NE1      -11.4440  -36.7400  -18.8590 N.ar  229  TRP229     -0.2442
     38  CE2      -11.5750  -36.1900  -20.1050 C.ar  229  TRP229      0.0810
     39  CE3      -10.8780  -36.7040  -22.3800 C.ar  229  TRP229      0.0012
     40  CZ2      -12.3000  -35.0250  -20.5150 C.ar  229  TRP229      0.0191
     41  CZ3      -11.6000  -35.4750  -22.7860 C.ar  229  TRP229      0.0001
     42  CH2      -12.2680  -34.6830  -21.8540 C.ar  229  TRP229      0.0015
     43  N        -13.9050  -47.7420  -18.9150 N.3   283  PRO283     -0.2102
     44  CA       -14.9990  -46.9920  -19.5750 C.3   283  PRO283      0.1504
     45  C        -14.5960  -45.5970  -19.9900 C.2   283  PRO283      0.2576
     46  O        -15.3930  -44.8810  -20.6360 O.2   283  PRO283     -0.2718
     47  CB       -16.0360  -46.8750  -18.4780 C.3   283  PRO283      0.0282
     48  CG       -15.7750  -48.1260  -17.5970 C.3   283  PRO283      0.0208
     49  CD       -14.2750  -48.2780  -17.5910 C.3   283  PRO283      0.0893
     50  N        -13.4130  -45.1510  -19.5920 N.am  284  LEU284     -0.1966
     51  CA       -13.0300  -43.7950  -19.8970 C.3   284  LEU284      0.1728
     52  C        -11.9190  -43.7490  -20.9840 C.2   284  LEU284      0.2617
     53  O        -11.3030  -42.7040  -21.2270 O.2   284  LEU284     -0.2715
     54  CB       -12.5980  -43.0820  -18.5980 C.3   284  LEU284      0.0311
     55  CG       -13.8390  -42.6330  -17.8050 C.3   284  LEU284      0.0022
     56  CD1      -14.0560  -43.6120  -16.7010 C.3   284  LEU284      0.0001
     57  CD2      -13.6770  -41.2330  -17.2430 C.3   284  LEU284      0.0001
     58  N        -11.7070  -44.8670  -21.6710 N.am  285  SER285     -0.1936
     59  CA       -10.5790  -44.9670  -22.6110 C.3   285  SER285      0.2055
     60  C        -10.7110  -44.0700  -23.8110 C.2   285  SER285      0.2642
     61  O        -11.7570  -43.9900  -24.4200 O.2   285  SER285     -0.2714
     62  CB       -10.4590  -46.4120  -23.1200 C.3   285  SER285      0.2130
     63  OG        -9.8210  -47.1840  -22.1440 O.3   285  SER285     -0.2179
     64  N         -9.6350  -43.3900  -24.1520 N.am  286  VAL286     -0.1977
     65  CA        -9.6200  -42.6090  -25.3460 C.3   286  VAL286      0.1596
     66  C         -8.5050  -43.2370  -26.1460 C.2   286  VAL286      0.2287
     67  O         -7.3660  -42.8540  -26.0010 O.2   286  VAL286     -0.2864
     68  CB        -9.3980  -41.0960  -25.0430 C.3   286  VAL286      0.0276
     69  CG1       -9.0700  -40.3070  -26.3090 C.3   286  VAL286      0.0022
     70  CG2      -10.7000  -40.4960  -24.4270 C.3   286  VAL286      0.0022
     71  N        -20.2100  -43.2410  -15.6880 N.3   327  PHE327     -0.1241
     72  CA       -19.2170  -44.2790  -16.1340 C.3   327  PHE327      0.1605
     73  C        -19.2550  -45.5430  -15.3450 C.2   327  PHE327      0.2264
     74  O        -18.6900  -46.5670  -15.7560 O.2   327  PHE327     -0.2867
     75  CB       -17.7930  -43.6830  -16.2110 C.3   327  PHE327      0.0534
     76  CG       -17.7600  -42.4060  -17.0520 C.ar  327  PHE327     -0.0203
     77  CD1      -17.9350  -41.1470  -16.4490 C.ar  327  PHE327     -0.0042
     78  CD2      -17.6020  -42.4780  -18.4510 C.ar  327  PHE327     -0.0042
     79  CE1      -17.9420  -40.0040  -17.1890 C.ar  327  PHE327     -0.0003
     80  CE2      -17.5950  -41.3420  -19.2170 C.ar  327  PHE327     -0.0003
     81  CZ       -17.7690  -40.0890  -18.5860 C.ar  327  PHE327     -0.0000
     82  N        -12.5570  -35.1090  -14.3310 N.3   396  PHE396     -0.1241
     83  CA       -13.2130  -33.8760  -14.8010 C.3   396  PHE396      0.1605
     84  C        -12.9690  -32.6500  -13.8940 C.2   396  PHE396      0.2264
     85  O        -12.5040  -31.5650  -14.3770 O.2   396  PHE396     -0.2867
     86  CB       -14.7150  -34.0860  -14.9940 C.3   396  PHE396      0.0534
     87  CG       -15.0310  -35.1500  -16.0770 C.ar  396  PHE396     -0.0203
     88  CD1      -15.2220  -36.4980  -15.7290 C.ar  396  PHE396     -0.0042
     89  CD2      -15.0360  -34.8080  -17.4260 C.ar  396  PHE396     -0.0042
     90  CE1      -15.4610  -37.5270  -16.7100 C.ar  396  PHE396     -0.0003
     91  CE2      -15.3430  -35.7970  -18.4020 C.ar  396  PHE396     -0.0003
     92  CZ       -15.4880  -37.1590  -18.0480 C.ar  396  PHE396     -0.0000
     93  N        -22.8200  -36.1180  -15.7850 N.3   436  HIS436     -0.1241
     94  CA       -22.0870  -35.6980  -16.9320 C.3   436  HIS436      0.1621
     95  C        -22.9550  -35.6170  -18.1650 C.2   436  HIS436      0.2264
     96  O        -23.6670  -36.5880  -18.4560 O.2   436  HIS436     -0.2867
     97  CB       -21.0190  -36.7310  -17.1560 C.3   436  HIS436      0.0745
     98  CG       -20.1240  -36.4110  -18.3080 C.ar  436  HIS436      0.0817
     99  ND1      -19.1030  -35.4890  -18.2190 N.ar  436  HIS436     -0.2268
    100  CD2      -20.0590  -36.9330  -19.5630 C.ar  436  HIS436      0.1154
    101  CE1      -18.4540  -35.4430  -19.3740 C.ar  436  HIS436      0.1986
    102  NE2      -19.0040  -36.3150  -20.2040 N.ar  436  HIS436     -0.2212
@<TRIPOS>BOND
     1     4     3    2
     2     2     3    1
     3     2     1    1
     4     8     7    2
     5     7     6    1
     6     3     5   am
     7    27    26    2
     8    69    68    1
     9     5     6    1
    10    28    25    1
    11    26    25    1
    12    66    67    2
    13    66    65    1
    14    25    24    1
    15    65    68    1
    16    65    64    1
    17    68    70    1
    18     9    10    1
    19    12    11    2
    20    61    60    2
    21    24    20   am
    22    64    60   am
    23    60    59    1
    24    11    10    1
    25    11    18   am
    26    10    13    1
    27    20    21    2
    28    20    19    1
    29    13    14    1
    30    16    15   ar
    31    62    59    1
    32    62    63    1
    33    32    31    2
    34    41    39   ar
    35    41    42   ar
    36    59    58    1
    37    22    19    1
    38    22    23    1
    39    18    19    1
    40    39    36   ar
    41    15    14    1
    42    15    17   ar
    43    31    30    1
    44    42    40   ar
    45    58    52   am
    46    53    52    2
    47    36    34   ar
    48    36    38   ar
    49    52    51    1
    50    30    33    1
    51    30    29    1
    52    33    34    1
    53    46    45    2
    54    40    38   ar
    55    34    35   ar
    56   102   100   ar
    57   102   101   ar
    58    38    37   ar
    59    45    50   am
    60    45    44    1
    61    51    50    1
    62    51    54    1
    63    44    43    1
    64    44    47    1
    65   100    98   ar
    66   101    99   ar
    67    80    81   ar
    68    80    78   ar
    69    35    37   ar
    70    43    49    1
    71    54    55    1
    72    81    79   ar
    73    47    48    1
    74    96    95    2
    75    78    76   ar
    76    91    92   ar
    77    91    89   ar
    78    98    99   ar
    79    98    97    1
    80    95    94    1
    81    92    90   ar
    82    55    57    1
    83    55    56    1
    84    48    49    1
    85    89    87   ar
    86    79    77   ar
    87    97    94    1
    88    76    77   ar
    89    76    75    1
    90    94    93    1
    91    90    88   ar
    92    75    72    1
    93    72    71    1
    94    72    73    1
    95    87    88   ar
    96    87    86    1
    97    74    73    2
    98    86    83    1
    99    83    82    1
   100    83    84    1
   101    85    84    2
