@<TRIPOS>MOLECULE
tmp/2xqiA00.pdb
 115 113 0 0 0
SMALL
GASTEIGER

@<TRIPOS>ATOM
      1  N        -18.8230  -33.5940  -27.8210 N.3   113  GLY113     -0.1210
      2  CA       -17.9880  -34.6160  -27.2230 C.3   113  GLY113      0.1956
      3  C        -18.3050  -36.0360  -27.7230 C.2   113  GLY113      0.2612
      4  O        -18.9740  -36.2390  -28.7440 O.2   113  GLY113     -0.2717
      5  N        -17.7730  -37.0330  -27.0130 N.am  114  GLY114     -0.1942
      6  CA       -17.8600  -38.4420  -27.4120 C.3   114  GLY114      0.2014
      7  C        -16.4720  -39.1330  -27.3570 C.2   114  GLY114      0.2639
      8  O        -16.1810  -40.0440  -28.1910 O.2   114  GLY114     -0.2714
      9  N        -15.6170  -38.7100  -26.4070 N.am  115  GLY115     -0.1954
     10  CA       -14.3120  -39.3510  -26.1850 C.3   115  GLY115      0.1869
     11  C        -13.2920  -39.2970  -27.3380 C.2   115  GLY115      0.2309
     12  O        -12.3210  -40.0700  -27.3440 O.2   115  GLY115     -0.2863
     13  N        -14.0280  -40.5450  -29.9350 N.3   117  GLN117     -0.1245
     14  CA       -14.3520  -41.7790  -30.6620 C.3   117  GLN117      0.1566
     15  C        -15.7840  -41.6890  -31.2220 C.2   117  GLN117      0.2260
     16  O        -16.1120  -42.3610  -32.1610 O.2   117  GLN117     -0.2867
     17  CB       -14.2090  -43.0430  -29.7990 C.3   117  GLN117      0.0367
     18  CG       -13.0500  -43.1210  -28.7720 C.3   117  GLN117      0.0905
     19  CD       -11.6410  -42.8870  -29.4060 C.2   117  GLN117      0.2608
     20  OE1      -11.1190  -43.7390  -30.1420 O.2   117  GLN117     -0.2717
     21  NE2      -11.0410  -41.7170  -29.1180 N.am  117  GLN117     -0.0878
     22  N        -18.5210  -29.5820  -25.0250 N.3   195  GLU195     -0.1231
     23  CA       -18.6140  -30.3550  -23.7710 C.3   195  GLU195      0.1699
     24  C        -17.7670  -31.6400  -23.8620 C.2   195  GLU195      0.2593
     25  O        -17.6620  -32.2340  -24.9490 O.2   195  GLU195     -0.2718
     26  CB       -20.0990  -30.6260  -23.4110 C.3   195  GLU195      0.0402
     27  CG       -20.4320  -31.2880  -22.0480 C.3   195  GLU195      0.1161
     28  CD       -20.4830  -32.8180  -22.0720 C.2   195  GLU195      0.3649
     29  OE1      -20.3770  -33.3770  -23.2150 O.co2 195  GLU195     -0.2457
     30  OE2      -20.6240  -33.4570  -20.9550 O.co2 195  GLU195     -0.2457
     31  N        -17.1260  -32.0420  -22.7590 N.am  196  SER196     -0.1938
     32  CA       -16.3030  -33.3160  -22.7170 C.3   196  SER196      0.2055
     33  C        -15.1080  -33.2960  -23.7180 C.2   196  SER196      0.2642
     34  O        -14.3320  -32.3170  -23.7310 O.2   196  SER196     -0.2714
     35  CB       -17.2140  -34.5330  -22.9670 C.3   196  SER196      0.2130
     36  OG       -16.7460  -35.7050  -22.3150 O.3   196  SER196     -0.2179
     37  N        -14.9460  -34.3160  -24.5670 N.am  197  ALA197     -0.1977
     38  CA       -13.8930  -34.1950  -25.5590 C.3   197  ALA197      0.1597
     39  C        -14.0310  -32.8710  -26.3610 C.2   197  ALA197      0.2287
     40  O        -13.0120  -32.3100  -26.8160 O.2   197  ALA197     -0.2864
     41  CB       -13.8220  -35.3880  -26.4830 C.3   197  ALA197      0.0319
     42  N         -7.5650  -38.3970  -19.8620 N.3   229  TRP229     -0.1241
     43  CA        -7.9320  -39.1410  -21.0560 C.3   229  TRP229      0.1605
     44  C         -7.6990  -38.2650  -22.2840 C.2   229  TRP229      0.2264
     45  O         -8.0390  -38.6650  -23.3900 O.2   229  TRP229     -0.2867
     46  CB        -9.4290  -39.5610  -21.0070 C.3   229  TRP229      0.0550
     47  CG       -10.3080  -38.4130  -20.5180 C.ar  229  TRP229      0.0003
     48  CD1      -10.7260  -38.1930  -19.2260 C.ar  229  TRP229      0.0946
     49  CD2      -10.8110  -37.2980  -21.2900 C.ar  229  TRP229      0.0152
     50  NE1      -11.4670  -37.0360  -19.1580 N.ar  229  TRP229     -0.2442
     51  CE2      -11.5380  -36.4750  -20.4130 C.ar  229  TRP229      0.0810
     52  CE3      -10.7710  -36.9550  -22.6450 C.ar  229  TRP229      0.0012
     53  CZ2      -12.1970  -35.3060  -20.8500 C.ar  229  TRP229      0.0191
     54  CZ3      -11.4300  -35.7620  -23.0780 C.ar  229  TRP229      0.0001
     55  CH2      -12.1160  -34.9720  -22.1880 C.ar  229  TRP229      0.0015
     56  N        -13.6640  -47.8770  -18.9350 N.3   283  PRO283     -0.2102
     57  CA       -14.7580  -47.1420  -19.6180 C.3   283  PRO283      0.1504
     58  C        -14.3710  -45.6870  -19.9660 C.2   283  PRO283      0.2576
     59  O        -15.2290  -44.8830  -20.2800 O.2   283  PRO283     -0.2718
     60  CB       -15.8910  -47.1690  -18.5970 C.3   283  PRO283      0.0282
     61  CG       -15.5260  -48.2670  -17.6670 C.3   283  PRO283      0.0208
     62  CD       -14.0470  -48.3160  -17.5930 C.3   283  PRO283      0.0893
     63  N        -13.0840  -45.3700  -19.9070 N.am  284  LEU284     -0.1966
     64  CA       -12.6270  -44.0290  -20.1870 C.3   284  LEU284      0.1728
     65  C        -11.5170  -44.0560  -21.1860 C.2   284  LEU284      0.2617
     66  O        -10.8110  -43.0910  -21.3260 O.2   284  LEU284     -0.2715
     67  CB       -12.1910  -43.3060  -18.9050 C.3   284  LEU284      0.0311
     68  CG       -13.4600  -42.7280  -18.2600 C.3   284  LEU284      0.0022
     69  CD1      -13.6450  -43.2800  -16.8700 C.3   284  LEU284      0.0001
     70  CD2      -13.4830  -41.1840  -18.3370 C.3   284  LEU284      0.0001
     71  N        -11.3860  -45.1730  -21.8920 N.am  285  SER285     -0.1936
     72  CA       -10.3680  -45.3210  -22.8970 C.3   285  SER285      0.2055
     73  C        -10.5800  -44.3560  -24.0560 C.2   285  SER285      0.2642
     74  O        -11.6950  -44.2110  -24.5850 O.2   285  SER285     -0.2714
     75  CB       -10.3640  -46.7640  -23.4310 C.3   285  SER285      0.2130
     76  OG        -9.6940  -47.6220  -22.5350 O.3   285  SER285     -0.2179
     77  N         -9.4880  -43.7210  -24.4620 N.am  286  VAL286     -0.1977
     78  CA        -9.4740  -42.9840  -25.6840 C.3   286  VAL286      0.1596
     79  C         -8.4020  -43.6350  -26.5210 C.2   286  VAL286      0.2287
     80  O         -7.2390  -43.2350  -26.4880 O.2   286  VAL286     -0.2864
     81  CB        -9.1710  -41.5220  -25.4390 C.3   286  VAL286      0.0276
     82  CG1       -8.9510  -40.8150  -26.7630 C.3   286  VAL286      0.0022
     83  CG2      -10.3130  -40.8790  -24.6330 C.3   286  VAL286      0.0022
     84  N        -20.2330  -43.4640  -15.8200 N.3   327  PHE327     -0.1241
     85  CA       -19.2170  -44.4260  -16.2700 C.3   327  PHE327      0.1605
     86  C        -19.2900  -45.7420  -15.5100 C.2   327  PHE327      0.2264
     87  O        -18.8630  -46.7620  -16.0350 O.2   327  PHE327     -0.2867
     88  CB       -17.8000  -43.8070  -16.3230 C.3   327  PHE327      0.0534
     89  CG       -17.7450  -42.5700  -17.1970 C.ar  327  PHE327     -0.0203
     90  CD1      -18.0650  -41.3110  -16.6720 C.ar  327  PHE327     -0.0042
     91  CD2      -17.4970  -42.6840  -18.5800 C.ar  327  PHE327     -0.0042
     92  CE1      -18.0730  -40.1800  -17.4890 C.ar  327  PHE327     -0.0003
     93  CE2      -17.4970  -41.5790  -19.3980 C.ar  327  PHE327     -0.0003
     94  CZ       -17.7900  -40.3070  -18.8640 C.ar  327  PHE327     -0.0000
     95  N        -12.6100  -35.1860  -14.3650 N.3   396  PHE396     -0.1241
     96  CA       -13.2840  -33.9990  -14.8450 C.3   396  PHE396      0.1605
     97  C        -13.0470  -32.7710  -14.0060 C.2   396  PHE396      0.2264
     98  O        -12.6090  -31.7670  -14.5170 O.2   396  PHE396     -0.2867
     99  CB       -14.7790  -34.2680  -15.0390 C.3   396  PHE396      0.0534
    100  CG       -15.0280  -35.3110  -16.0930 C.ar  396  PHE396     -0.0203
    101  CD1      -15.3350  -36.6210  -15.7390 C.ar  396  PHE396     -0.0042
    102  CD2      -14.8570  -35.0010  -17.4420 C.ar  396  PHE396     -0.0042
    103  CE1      -15.5270  -37.5950  -16.7040 C.ar  396  PHE396     -0.0003
    104  CE2      -15.0500  -35.9620  -18.4120 C.ar  396  PHE396     -0.0003
    105  CZ       -15.3840  -37.2720  -18.0600 C.ar  396  PHE396     -0.0000
    106  N        -22.9700  -36.4570  -15.9390 N.3   436  HIS436     -0.1241
    107  CA       -22.1930  -35.9770  -17.0590 C.3   436  HIS436      0.1621
    108  C        -23.0310  -35.9090  -18.3240 C.2   436  HIS436      0.2264
    109  O        -23.5930  -36.9230  -18.7770 O.2   436  HIS436     -0.2867
    110  CB       -21.0800  -36.9660  -17.2850 C.3   436  HIS436      0.0745
    111  CG       -20.1640  -36.6150  -18.4140 C.ar  436  HIS436      0.0817
    112  ND1      -19.2540  -35.5750  -18.3490 N.ar  436  HIS436     -0.2268
    113  CD2      -19.9670  -37.2090  -19.6110 C.ar  436  HIS436      0.1154
    114  CE1      -18.5350  -35.5450  -19.4560 C.ar  436  HIS436      0.1986
    115  NE2      -18.9510  -36.5240  -20.2380 N.ar  436  HIS436     -0.2212
@<TRIPOS>BOND
     1    16    15    2
     2    15    14    1
     3    14    13    1
     4    14    17    1
     5    20    19    2
     6    17    18    1
     7    19    21   am
     8    19    18    1
     9     4     3    2
    10     8     7    2
    11     1     2    1
    12     3     2    1
    13     3     5   am
    14     6     7    1
    15     6     5    1
    16     7     9   am
    17    12    11    2
    18    11    10    1
    19    40    39    2
    20    82    81    1
    21    79    80    2
    22    79    78    1
    23    41    38    1
    24     9    10    1
    25    39    38    1
    26    78    81    1
    27    78    77    1
    28    38    37    1
    29    81    83    1
    30    22    23    1
    31    25    24    2
    32    74    73    2
    33    37    33   am
    34    77    73   am
    35    73    72    1
    36    24    23    1
    37    24    31   am
    38    23    26    1
    39    34    33    2
    40    33    32    1
    41    75    72    1
    42    75    76    1
    43    26    27    1
    44    45    44    2
    45    29    28   ar
    46    54    52   ar
    47    54    55   ar
    48    35    32    1
    49    35    36    1
    50    72    71    1
    51    31    32    1
    52    52    49   ar
    53    44    43    1
    54    55    53   ar
    55    28    27    1
    56    28    30   ar
    57    71    65   am
    58    66    65    2
    59    49    47   ar
    60    49    51   ar
    61    65    64    1
    62    43    46    1
    63    43    42    1
    64    46    47    1
    65    53    51   ar
    66    47    48   ar
    67    51    50   ar
    68    59    58    2
    69   115   113   ar
    70   115   114   ar
    71    64    63    1
    72    64    67    1
    73    58    63   am
    74    58    57    1
    75    57    56    1
    76    57    60    1
    77   113   111   ar
    78   114   112   ar
    79    93    94   ar
    80    93    91   ar
    81    48    50   ar
    82    56    62    1
    83    67    68    1
    84    94    92   ar
    85   109   108    2
    86    60    61    1
    87    91    89   ar
    88   111   112   ar
    89   111   110    1
    90   104   105   ar
    91   104   102   ar
    92    70    68    1
    93   108   107    1
    94    68    69    1
    95   105   103   ar
    96    61    62    1
    97    92    90   ar
    98   102   100   ar
    99   110   107    1
   100    89    90   ar
   101    89    88    1
   102   107   106    1
   103   103   101   ar
   104    88    85    1
   105    85    84    1
   106    85    86    1
   107   100   101   ar
   108   100    99    1
   109    87    86    2
   110    99    96    1
   111    96    95    1
   112    96    97    1
   113    98    97    2
