@<TRIPOS>MOLECULE
tmp/2xqoA00.pdb
 127 124 0 0 0
SMALL
GASTEIGER

@<TRIPOS>ATOM
      1  N        -15.2280   25.5490   21.4780 N.3    75  ALA75      -0.1231
      2  CA       -15.5650   25.7500   20.0730 C.3    75  ALA75       0.1694
      3  C        -14.4380   26.4740   19.3280 C.2    75  ALA75       0.2589
      4  O        -14.3710   26.3150   18.1020 O.2    75  ALA75      -0.2718
      5  CB       -16.8070   26.6420   19.9380 C.3    75  ALA75       0.0304
      6  N        -13.5940   27.1990   20.0560 N.am   76  SER76      -0.2006
      7  CA       -12.4310   28.1470   19.3060 C.3    76  SER76       0.1610
      8  C        -11.1210   27.1440   19.4370 C.3    76  SER76       0.2063
      9  O        -10.1110   27.6170   18.8730 O.3    76  SER76      -0.2184
     10  CB       -12.0850   29.3770   20.3220 C.3    76  SER76       0.2063
     11  OG       -13.1660   30.1750   20.3610 O.3    76  SER76      -0.2184
     12  N         -8.3680   25.1460   18.2800 N.3    78  ALA78      -0.1245
     13  CA        -7.9620   25.0130   16.8680 C.3    78  ALA78       0.1562
     14  C         -6.5370   24.4800   16.7310 C.2    78  ALA78       0.2260
     15  O         -5.7070   24.8030   17.5850 O.2    78  ALA78      -0.2867
     16  CB        -8.1000   26.3330   16.1990 C.3    78  ALA78       0.0290
     17  N         -5.5720   26.7780   11.4440 N.3    83  GLN83      -0.1245
     18  CA        -6.2790   26.9410   12.7370 C.3    83  GLN83       0.1566
     19  C         -7.7050   26.4230   12.5760 C.2    83  GLN83       0.2260
     20  O         -8.6850   27.1300   12.8180 O.2    83  GLN83      -0.2867
     21  CB        -6.1580   28.3520   13.3180 C.3    83  GLN83       0.0367
     22  CG        -4.7580   28.7170   13.7380 C.3    83  GLN83       0.0905
     23  CD        -4.3440   27.9220   14.9490 C.2    83  GLN83       0.2608
     24  OE1       -3.6990   26.8040   14.8060 O.2    83  GLN83      -0.2717
     25  NE2       -4.6320   28.4670   16.1030 N.am   83  GLN83      -0.0878
     26  N        -10.8520   24.8140   13.7510 N.3    85  ALA85      -0.1245
     27  CA       -11.5010   24.6650   15.0990 C.3    85  ALA85       0.1562
     28  C        -12.2430   23.3330   15.2120 C.2    85  ALA85       0.2260
     29  O        -12.5780   22.6530   14.2200 O.2    85  ALA85      -0.2867
     30  CB       -12.4200   25.7980   15.3540 C.3    85  ALA85       0.0290
     31  N        -15.1970   22.8500   15.8210 N.3    87  THR87      -0.1218
     32  CA       -16.5940   22.9180   15.2440 C.3    87  THR87       0.1862
     33  C        -16.5670   22.4670   13.8080 C.2    87  THR87       0.2287
     34  O        -17.5770   22.2480   13.1700 O.2    87  THR87      -0.2866
     35  CB       -17.0950   24.3610   15.2970 C.3    87  THR87       0.1770
     36  OG1      -16.0890   25.2400   14.6900 O.3    87  THR87      -0.2211
     37  CG2      -17.3240   24.7820   16.7490 C.3    87  THR87       0.0375
     38  N        -23.0240   20.8110   21.4540 N.3    95  ASN95      -0.1225
     39  CA       -23.4070   22.1960   21.4460 C.3    95  ASN95       0.1785
     40  C        -22.8110   22.9940   20.2400 C.2    95  ASN95       0.2597
     41  O        -22.9920   24.1770   20.1200 O.2    95  ASN95      -0.2718
     42  CB       -22.9870   22.8900   22.7620 C.3    95  ASN95       0.1169
     43  CG       -23.6640   22.2550   23.9290 C.2    95  ASN95       0.2627
     44  OD1      -24.9040   22.1890   23.9190 O.2    95  ASN95      -0.2716
     45  ND2      -22.8730   21.5290   24.7710 N.am   95  ASN95      -0.0877
     46  N        -22.1120   22.2400   19.3900 N.am   96  TYR96      -0.1976
     47  CA       -21.5420   22.9440   18.2190 C.3    96  TYR96       0.1639
     48  C        -22.5810   23.0040   17.0810 C.2    96  TYR96       0.2290
     49  O        -23.2690   21.9990   16.7880 O.2    96  TYR96      -0.2864
     50  CB       -20.2920   22.3020   17.7080 C.3    96  TYR96       0.0560
     51  CG       -19.1270   22.3230   18.7070 C.ar   96  TYR96      -0.0198
     52  CD1      -19.1230   23.1620   19.8390 C.ar   96  TYR96      -0.0009
     53  CD2      -18.0460   21.4590   18.4830 C.ar   96  TYR96      -0.0009
     54  CE1      -17.9990   23.1260   20.7780 C.ar   96  TYR96       0.0417
     55  CE2      -16.9220   21.4070   19.3900 C.ar   96  TYR96       0.0417
     56  CZ       -16.9320   22.2680   20.4930 C.ar   96  TYR96       0.1957
     57  OH       -15.8120   22.2610   21.3460 O.3    96  TYR96      -0.2866
     58  N        -14.3370   23.8160    6.5460 N.3   125  HIS125     -0.1241
     59  CA       -14.9740   24.6550    7.5340 C.3   125  HIS125      0.1621
     60  C        -15.1630   26.0750    6.9310 C.2   125  HIS125      0.2264
     61  O        -16.1720   26.7660    7.1770 O.2   125  HIS125     -0.2867
     62  CB       -14.0680   24.6710    8.7590 C.3   125  HIS125      0.0745
     63  CG       -14.6450   25.2800    9.9840 C.ar  125  HIS125      0.0817
     64  ND1      -13.9510   26.0880   10.9000 N.ar  125  HIS125     -0.2268
     65  CD2      -15.8900   25.1030   10.5160 C.ar  125  HIS125      0.1154
     66  CE1      -14.7850   26.3990   11.9030 C.ar  125  HIS125      0.1986
     67  NE2      -15.9460   25.7770   11.6800 N.ar  125  HIS125     -0.2212
     68  N        -18.8800   28.3580    5.9860 N.3   129  PHE129     -0.1241
     69  CA       -19.3030   29.7400    6.1620 C.3   129  PHE129      0.1605
     70  C        -19.4110   30.5430    4.8730 C.2   129  PHE129      0.2264
     71  O        -20.2390   31.3710    4.7780 O.2   129  PHE129     -0.2867
     72  CB       -18.3600   30.4460    7.1620 C.3   129  PHE129      0.0534
     73  CG       -18.4510   29.8650    8.5690 C.ar  129  PHE129     -0.0203
     74  CD1      -19.5850   30.1070    9.3870 C.ar  129  PHE129     -0.0042
     75  CD2      -17.4440   29.0600    9.0970 C.ar  129  PHE129     -0.0042
     76  CE1      -19.6730   29.5340   10.6840 C.ar  129  PHE129     -0.0003
     77  CE2      -17.4890   28.4960   10.3570 C.ar  129  PHE129     -0.0003
     78  CZ       -18.6270   28.7330   11.1940 C.ar  129  PHE129     -0.0000
     79  N        -16.9970   34.3170    9.3620 N.3   148  GLY148     -0.1210
     80  CA       -17.6180   33.1280    9.8790 C.3   148  GLY148      0.1956
     81  C        -16.6240   32.0810   10.3880 C.2   148  GLY148      0.2612
     82  O        -16.7920   31.5120   11.4620 O.2   148  GLY148     -0.2717
     83  N        -15.5450   31.8690    9.5900 N.am  149  TYR149     -0.1962
     84  CA       -14.4920   30.9360   10.0050 C.3   149  TYR149      0.1771
     85  C        -13.9390   31.3410   11.3890 C.2   149  TYR149      0.2620
     86  O        -13.7620   30.4220   12.2780 O.2   149  TYR149     -0.2715
     87  CB       -13.3800   31.0010    9.0020 C.3   149  TYR149      0.0574
     88  CG       -12.3190   29.9420    9.1400 C.ar  149  TYR149     -0.0198
     89  CD1      -12.5230   28.6910    8.6180 C.ar  149  TYR149     -0.0009
     90  CD2      -11.1310   30.1370    9.8690 C.ar  149  TYR149     -0.0009
     91  CE1      -11.6030   27.6190    8.7580 C.ar  149  TYR149      0.0417
     92  CE2      -10.1510   29.1410    9.9930 C.ar  149  TYR149      0.0417
     93  CZ       -10.3720   27.8940    9.4200 C.ar  149  TYR149      0.1957
     94  OH        -9.4410   26.8790    9.5380 O.3   149  TYR149     -0.2866
     95  N        -13.5860   32.6200   11.5600 N.am  150  ASN150     -0.1958
     96  CA       -12.8800   33.0070   12.7820 C.3   150  ASN150      0.1819
     97  C        -13.7650   33.2060   14.0190 C.2   150  ASN150      0.2622
     98  O        -13.3620   33.0390   15.1200 O.2   150  ASN150     -0.2715
     99  CB       -12.0020   34.2420   12.4640 C.3   150  ASN150      0.1195
    100  CG       -11.3260   34.8090   13.6700 C.2   150  ASN150      0.2630
    101  OD1      -10.3580   34.1600   14.1720 O.2   150  ASN150     -0.2716
    102  ND2      -11.8180   35.8550   14.2110 N.am  150  ASN150     -0.0877
    103  N        -15.0280   33.6400   13.7330 N.am  151  THR151     -0.1937
    104  CA       -15.8950   34.1480   14.8240 C.3   151  THR151      0.2028
    105  C        -17.1240   33.2590   15.0660 C.2   151  THR151      0.2643
    106  O        -17.7560   33.3650   16.1410 O.2   151  THR151     -0.2714
    107  CB       -16.3550   35.5510   14.6310 C.3   151  THR151      0.1808
    108  OG1      -17.4370   35.6420   13.6380 O.3   151  THR151     -0.2208
    109  CG2      -15.2330   36.5550   14.2890 C.3   151  THR151      0.0379
    110  N        -17.4230   32.3840   14.0820 N.am  152  GLY152     -0.1939
    111  CA       -18.6850   31.6630   14.0320 C.3   152  GLY152      0.2014
    112  C        -19.8330   32.3640   13.3430 C.2   152  GLY152      0.2638
    113  O        -20.8880   31.6740   13.1430 O.2   152  GLY152     -0.2714
    114  N        -19.6530   33.6280   12.9840 N.am  153  TRP153     -0.1973
    115  CA       -20.7610   34.4140   12.3870 C.3   153  TRP153      0.1640
    116  C        -20.2560   35.1580   11.1990 C.2   153  TRP153      0.2290
    117  O        -19.2810   35.9170   11.2790 O.2   153  TRP153     -0.2864
    118  CB       -21.3120   35.4190   13.4550 C.3   153  TRP153      0.0576
    119  CG       -21.7180   34.5730   14.6650 C.ar  153  TRP153      0.0006
    120  CD1      -20.9920   34.3970   15.8060 C.ar  153  TRP153      0.0946
    121  CD2      -22.8530   33.6960   14.7470 C.ar  153  TRP153      0.0152
    122  NE1      -21.6390   33.4790   16.6420 N.ar  153  TRP153     -0.2442
    123  CE2      -22.7980   33.0400   16.0100 C.ar  153  TRP153      0.0810
    124  CE3      -23.9560   33.4730   13.9060 C.ar  153  TRP153      0.0012
    125  CZ2      -23.7570   32.1060   16.4320 C.ar  153  TRP153      0.0191
    126  CZ3      -24.9230   32.5230   14.3180 C.ar  153  TRP153      0.0001
    127  CH2      -24.8140   31.8450   15.5630 C.ar  153  TRP153      0.0015
@<TRIPOS>BOND
     1    71    70    2
     2    70    69    1
     3    68    69    1
     4    69    72    1
     5    58    59    1
     6    60    61    2
     7    60    59    1
     8    72    73    1
     9    59    62    1
    10    73    75   ar
    11    73    74   ar
    12    89    91   ar
    13    89    88   ar
    14    91    93   ar
    15    62    63    1
    16    87    88    1
    17    87    84    1
    18    75    77   ar
    19    88    90   ar
    20    79    80    1
    21    74    76   ar
    22    93    94    1
    23    93    92   ar
    24    83    84    1
    25    83    81   am
    26    90    92   ar
    27    80    81    1
    28    63    65   ar
    29    63    64   ar
    30    84    85    1
    31    77    78   ar
    32    81    82    2
    33    65    67   ar
    34    76    78   ar
    35    64    66   ar
    36   116   117    2
    37   116   115    1
    38    85    95   am
    39    85    86    2
    40    17    18    1
    41    95    96    1
    42    67    66   ar
    43   115   114    1
    44   115   118    1
    45    99    96    1
    46    99   100    1
    47    19    18    1
    48    19    20    2
    49    18    21    1
    50    96    97    1
    51   114   112   am
    52   113   112    2
    53    34    33    2
    54    21    22    1
    55   112   111    1
    56   118   119    1
    57   108   107    1
    58   100   101    2
    59   100   102   am
    60   103    97   am
    61   103   104    1
    62    22    23    1
    63    26    27    1
    64    33    32    1
    65   124   126   ar
    66   124   121   ar
    67    97    98    2
    68   111   110    1
    69   110   105   am
    70    29    28    2
    71   109   107    1
    72   126   127   ar
    73   107   104    1
    74   119   121   ar
    75   119   120   ar
    76    36    35    1
    77   121   123   ar
    78    24    23    2
    79   104   105    1
    80    23    25   am
    81   105   106    2
    82    27    28    1
    83    27    30    1
    84    32    35    1
    85    32    31    1
    86    35    37    1
    87   127   125   ar
    88   120   122   ar
    89   123   125   ar
    90   123   122   ar
    91    16    13    1
    92    14    13    1
    93    14    15    2
    94    49    48    2
    95    13    12    1
    96    48    47    1
    97    50    47    1
    98    50    51    1
    99     4     3    2
   100    47    46    1
   101    53    51   ar
   102    53    55   ar
   103    51    52   ar
   104     9     8    1
   105     7     8    1
   106     7     6    1
   107     7    10    1
   108     3     6   am
   109     3     2    1
   110    46    40   am
   111    55    56   ar
   112    52    54   ar
   113     5     2    1
   114     2     1    1
   115    41    40    2
   116    40    39    1
   117    10    11    1
   118    56    54   ar
   119    56    57    1
   120    39    38    1
   121    39    42    1
   122    42    43    1
   123    44    43    2
   124    43    45   am
