@<TRIPOS>MOLECULE
tmp/2xqoA01.pdb
 153 148 0 0 0
SMALL
GASTEIGER

@<TRIPOS>ATOM
      1  N         -0.9870   32.0290    6.6560 N.3    60  THR60      -0.1203
      2  CA        -0.1830   33.1270    7.2130 C.3    60  THR60       0.1994
      3  C         -0.8890   33.8070    8.3700 C.2    60  THR60       0.2618
      4  O         -0.3070   34.0270    9.4500 O.2    60  THR60      -0.2717
      5  CB         0.1300   34.1530    6.1120 C.3    60  THR60       0.1784
      6  OG1        0.8420   33.4430    5.0160 O.3    60  THR60      -0.2211
      7  CG2        1.1010   35.2000    6.6600 C.3    60  THR60       0.0376
      8  N         -2.1600   34.2050    8.1250 N.am   61  ARG61      -0.1965
      9  CA        -2.8700   34.9810    9.1700 C.3    61  ARG61       0.1729
     10  C         -3.1040   34.1530   10.4560 C.2    61  ARG61       0.2616
     11  O         -3.1960   34.6960   11.5450 O.2    61  ARG61      -0.2715
     12  CB        -4.1880   35.4200    8.6190 C.3    61  ARG61       0.0348
     13  CG        -4.9770   36.3850    9.5140 C.3    61  ARG61       0.0492
     14  CD        -4.2570   37.7360    9.6490 C.3    61  ARG61       0.2205
     15  NE        -4.8580   38.6760   10.6620 N.pl3  61  ARG61      -0.0865
     16  CZ        -4.6040   38.5540   11.9690 C.cat  61  ARG61       0.5346
     17  NH1       -3.8870   37.5050   12.4450 N.pl3  61  ARG61       0.1354
     18  NH2       -5.0860   39.4400   12.8160 N.pl3  61  ARG61       0.1354
     19  N         -3.3780   32.8650   10.2560 N.am   62  GLU62      -0.1963
     20  CA        -3.7510   31.9640   11.3660 C.3    62  GLU62       0.1733
     21  C         -2.5870   31.3730   12.1320 C.2    62  GLU62       0.2617
     22  O         -2.7020   31.1170   13.3320 O.2    62  GLU62      -0.2715
     23  CB        -4.6010   30.7440   10.8180 C.3    62  GLU62       0.0429
     24  CG        -5.9800   31.2300   10.2980 C.3    62  GLU62       0.1163
     25  CD        -6.9050   31.6240   11.4910 C.2    62  GLU62       0.3649
     26  OE1       -6.5400   31.5560   12.6220 O.co2  62  GLU62      -0.2457
     27  OE2       -8.1140   31.8650   11.1800 O.co2  62  GLU62      -0.2457
     28  N         -1.5000   31.0480   11.4120 N.am   63  SER63      -0.1936
     29  CA        -0.3950   30.3560   12.1100 C.3    63  SER63       0.2055
     30  C          0.9890   30.8750   11.7010 C.2    63  SER63       0.2643
     31  O          1.9910   30.2760   12.1840 O.2    63  SER63      -0.2714
     32  CB        -0.4410   28.8650   11.7640 C.3    63  SER63       0.2130
     33  OG        -0.1150   28.6310   10.4060 O.3    63  SER63      -0.2179
     34  N          1.0740   31.9130   10.9000 N.am   64  THR64      -0.1950
     35  CA         2.3900   32.3200   10.3020 C.3    64  THR64       0.1897
     36  C          3.1080   31.0700    9.7340 C.2    64  THR64       0.2313
     37  O          4.3730   30.9360    9.8540 O.2    64  THR64      -0.2863
     38  CB         3.3020   33.0660   11.3390 C.3    64  THR64       0.1794
     39  OG1        2.4820   33.9110   12.1370 O.3    64  THR64      -0.2208
     40  CG2        4.3370   33.9090   10.6050 C.3    64  THR64       0.0378
     41  N          3.2570   28.1720   10.8340 N.3    66  ARG66      -0.1245
     42  CA         3.7690   27.1990   11.8730 C.3    66  ARG66       0.1563
     43  C          2.7190   26.1180   12.0640 C.2    66  ARG66       0.2260
     44  O          1.6890   26.3600   12.7420 O.2    66  ARG66      -0.2867
     45  CB         4.1270   27.9610   13.1290 C.3    66  ARG66       0.0307
     46  CG         5.2340   28.9550   12.8660 C.3    66  ARG66       0.0489
     47  CD         5.7610   29.5100   14.1530 C.3    66  ARG66       0.2205
     48  NE         4.9330   30.5520   14.7530 N.pl3  66  ARG66      -0.0865
     49  CZ         5.0120   31.8880   14.5890 C.cat  66  ARG66       0.5346
     50  NH1        5.8190   32.5030   13.7820 N.pl3  66  ARG66       0.1354
     51  NH2        4.1320   32.6440   15.2440 N.pl3  66  ARG66       0.1354
     52  N          0.7890   25.0610   15.4090 N.3    69  THR69      -0.1218
     53  CA         0.1580   26.0510   16.2720 C.3    69  THR69       0.1862
     54  C         -1.1570   25.5380   16.8600 C.2    69  THR69       0.2287
     55  O         -1.9530   24.8780   16.1200 O.2    69  THR69      -0.2866
     56  CB        -0.1850   27.3260   15.4480 C.3    69  THR69       0.1770
     57  OG1        1.0450   27.9070   14.9520 O.3    69  THR69      -0.2211
     58  CG2       -0.8930   28.4530   16.2130 C.3    69  THR69       0.0375
     59  N         -4.3490   26.6810   19.6200 N.3    71  THR71      -0.1274
     60  CA        -4.8890   27.8050   20.3970 C.3    71  THR71       0.1548
     61  C         -6.3540   27.5200   20.8190 C.3    71  THR71       0.2036
     62  O         -6.9750   26.5400   20.2570 O.3    71  THR71      -0.2187
     63  CB        -4.9630   29.1140   19.6280 C.3    71  THR71       0.1721
     64  OG1       -5.7570   28.9110   18.4410 O.3    71  THR71      -0.2215
     65  CG2       -3.4930   29.6530   19.1700 C.3    71  THR71       0.0371
     66  N         -8.3680   25.1460   18.2800 N.3    78  ALA78      -0.1245
     67  CA        -7.9620   25.0130   16.8680 C.3    78  ALA78       0.1562
     68  C         -6.5370   24.4800   16.7310 C.2    78  ALA78       0.2260
     69  O         -5.7070   24.8030   17.5850 O.2    78  ALA78      -0.2867
     70  CB        -8.1000   26.3330   16.1990 C.3    78  ALA78       0.0290
     71  N         -5.5720   26.7780   11.4440 N.3    83  GLN83      -0.1245
     72  CA        -6.2790   26.9410   12.7370 C.3    83  GLN83       0.1566
     73  C         -7.7050   26.4230   12.5760 C.2    83  GLN83       0.2260
     74  O         -8.6850   27.1300   12.8180 O.2    83  GLN83      -0.2867
     75  CB        -6.1580   28.3520   13.3180 C.3    83  GLN83       0.0367
     76  CG        -4.7580   28.7170   13.7380 C.3    83  GLN83       0.0905
     77  CD        -4.3440   27.9220   14.9490 C.2    83  GLN83       0.2608
     78  OE1       -3.6990   26.8040   14.8060 O.2    83  GLN83      -0.2717
     79  NE2       -4.6320   28.4670   16.1030 N.am   83  GLN83      -0.0878
     80  N        -13.5860   32.6200   11.5600 N.3   150  ASN150     -0.1240
     81  CA       -12.8800   33.0070   12.7820 C.3   150  ASN150      0.1653
     82  C        -13.7650   33.2060   14.0190 C.2   150  ASN150      0.2266
     83  O        -13.3620   33.0390   15.1200 O.2   150  ASN150     -0.2867
     84  CB       -12.0020   34.2420   12.4640 C.3   150  ASN150      0.1155
     85  CG       -11.3260   34.8090   13.6700 C.2   150  ASN150      0.2627
     86  OD1      -10.3580   34.1600   14.1720 O.2   150  ASN150     -0.2716
     87  ND2      -11.8180   35.8550   14.2110 N.am  150  ASN150     -0.0877
     88  N        -12.1990   44.4750   12.7620 N.3   161  TRP161     -0.1298
     89  CA       -11.7030   43.1160   12.6100 C.3   161  TRP161      0.1291
     90  C        -11.8810   42.6190   11.2210 C.3   161  TRP161      0.2013
     91  O        -11.0110   41.7800   10.7680 O.3   161  TRP161     -0.2188
     92  CB       -12.4890   42.2120   13.5860 C.3   161  TRP161      0.0497
     93  CG       -11.9070   40.8220   13.7190 C.ar  161  TRP161     -0.0001
     94  CD1      -12.4820   39.5970   13.3760 C.ar  161  TRP161      0.0946
     95  CD2      -10.6210   40.5180   14.2350 C.ar  161  TRP161      0.0152
     96  NE1      -11.6550   38.5630   13.6580 N.ar  161  TRP161     -0.2442
     97  CE2      -10.4790   39.0950   14.1480 C.ar  161  TRP161      0.0810
     98  CE3       -9.5640   41.2900   14.7530 C.ar  161  TRP161      0.0012
     99  CZ2       -9.3180   38.4460   14.6020 C.ar  161  TRP161      0.0191
    100  CZ3       -8.4230   40.6550   15.1510 C.ar  161  TRP161      0.0001
    101  CH2       -8.2950   39.2230   15.0800 C.ar  161  TRP161      0.0015
    102  N         -8.4610   41.1120   10.1110 N.3   165  TYR165     -0.1241
    103  CA        -8.4440   39.6990    9.9210 C.3   165  TYR165      0.1605
    104  C         -8.7350   39.3150    8.4450 C.2   165  TYR165      0.2264
    105  O         -7.8370   38.6940    7.8010 O.2   165  TYR165     -0.2867
    106  CB        -9.4260   38.9470   10.8850 C.3   165  TYR165      0.0534
    107  CG        -9.4350   37.4540   10.6180 C.ar  165  TYR165     -0.0201
    108  CD1       -8.4010   36.6380   11.0660 C.ar  165  TYR165     -0.0009
    109  CD2      -10.4100   36.8800    9.8110 C.ar  165  TYR165     -0.0009
    110  CE1       -8.3900   35.2420   10.7950 C.ar  165  TYR165      0.0417
    111  CE2      -10.4000   35.5500    9.5050 C.ar  165  TYR165      0.0417
    112  CZ        -9.3860   34.7210    9.9520 C.ar  165  TYR165      0.1957
    113  OH        -9.3790   33.4270    9.6480 O.3   165  TYR165     -0.2866
    114  N          7.9370   33.1720    3.7720 N.3   186  PHE186     -0.1241
    115  CA         6.5910   33.5000    4.3230 C.3   186  PHE186      0.1605
    116  C          6.6550   34.9720    4.7650 C.2   186  PHE186      0.2264
    117  O          7.6930   35.5620    5.1000 O.2   186  PHE186     -0.2867
    118  CB         6.1920   32.5720    5.4620 C.3   186  PHE186      0.0534
    119  CG         7.0600   32.6860    6.7110 C.ar  186  PHE186     -0.0203
    120  CD1        8.2680   31.9020    6.7760 C.ar  186  PHE186     -0.0042
    121  CD2        6.7610   33.5890    7.7110 C.ar  186  PHE186     -0.0042
    122  CE1        9.0580   31.9730    7.9190 C.ar  186  PHE186     -0.0003
    123  CE2        7.5690   33.6590    8.8300 C.ar  186  PHE186     -0.0003
    124  CZ         8.7390   32.8310    8.9160 C.ar  186  PHE186     -0.0000
    125  N          3.8450   37.7430    7.1770 N.3   188  TRP188     -0.1227
    126  CA         3.2470   37.6770    8.4840 C.3   188  TRP188      0.1737
    127  C          2.3140   38.8520    8.6680 C.2   188  TRP188      0.2595
    128  O          2.4470   39.8720    8.0710 O.2   188  TRP188     -0.2718
    129  CB         4.3340   37.6600    9.6300 C.3   188  TRP188      0.0564
    130  CG         5.3160   38.7990    9.5880 C.ar  188  TRP188      0.0003
    131  CD1        5.1860   40.0750   10.1550 C.ar  188  TRP188      0.0946
    132  CD2        6.5920   38.8040    8.9170 C.ar  188  TRP188      0.0152
    133  NE1        6.2670   40.8540    9.8760 N.ar  188  TRP188     -0.2442
    134  CE2        7.1610   40.1120    9.1590 C.ar  188  TRP188      0.0810
    135  CE3        7.3100   37.8690    8.1660 C.ar  188  TRP188      0.0012
    136  CZ2        8.4000   40.5150    8.6000 C.ar  188  TRP188      0.0191
    137  CZ3        8.6340   38.2650    7.6800 C.ar  188  TRP188      0.0001
    138  CH2        9.1230   39.5570    7.9010 C.ar  188  TRP188      0.0015
    139  N          1.3390   38.6250    9.5880 N.am  189  ASP189     -0.1960
    140  CA         0.3970   39.7030    9.9960 C.3   189  ASP189      0.1840
    141  C          1.1560   41.0150   10.3100 C.2   189  ASP189      0.2622
    142  O          2.1170   40.9790   11.0860 O.2   189  ASP189     -0.2715
    143  CB        -0.3070   39.2050   11.2670 C.3   189  ASP189      0.1450
    144  CG        -1.3990   40.1920   11.7290 C.2   189  ASP189      0.3671
    145  OD1       -2.0640   40.7530   10.8480 O.co2 189  ASP189     -0.2456
    146  OD2       -1.4950   40.4220   12.9820 O.co2 189  ASP189     -0.2456
    147  N          0.7120   42.0860    9.6690 N.am  190  THR190     -0.1951
    148  CA         1.2470   43.4430    9.8090 C.3   190  THR190      0.1897
    149  C          2.5620   43.7330    9.0720 C.2   190  THR190      0.2313
    150  O          3.1290   44.8420    9.1150 O.2   190  THR190     -0.2863
    151  CB         1.3910   43.9750   11.3230 C.3   190  THR190      0.1794
    152  OG1        2.5690   43.3920   11.9030 O.3   190  THR190     -0.2208
    153  CG2        0.1210   43.6050   12.1220 C.3   190  THR190      0.0378
@<TRIPOS>BOND
     1   114   115    1
     2   115   116    1
     3   115   118    1
     4   116   117    2
     5     6     5    1
     6   118   119    1
     7     5     7    1
     8     5     2    1
     9     1     2    1
    10   119   120   ar
    11   119   121   ar
    12   120   122   ar
    13   125   126    1
    14     2     3    1
    15   137   138   ar
    16   137   135   ar
    17   121   123   ar
    18   105   104    2
    19   138   136   ar
    20   122   124   ar
    21   128   127    2
    22     8     3   am
    23     8     9    1
    24   135   132   ar
    25     3     4    2
    26   104   103    1
    27   126   127    1
    28   126   129    1
    29   136   134   ar
    30    12     9    1
    31    12    13    1
    32   127   139   am
    33   123   124   ar
    34   132   134   ar
    35   132   130   ar
    36   149   150    2
    37   149   148    1
    38   134   133   ar
    39     9    10    1
    40   111   109   ar
    41   111   112   ar
    42    13    14    1
    43   130   129    1
    44   130   131   ar
    45   139   140    1
    46   113   112    1
    47    14    15    1
    48   147   148    1
    49   147   141   am
    50    36    37    2
    51    36    35    1
    52   148   151    1
    53   109   107   ar
    54   133   131   ar
    55   103   102    1
    56   103   106    1
    57   112   110   ar
    58   140   141    1
    59   140   143    1
    60    19    10   am
    61    19    20    1
    62    24    23    1
    63    24    25    1
    64    35    34    1
    65    35    38    1
    66   141   142    2
    67    33    32    1
    68    10    11    2
    69    40    38    1
    70   107   106    1
    71   107   108   ar
    72    15    16    2
    73    91    90    1
    74   110   108   ar
    75    23    20    1
    76    41    42    1
    77   145   144   ar
    78    34    30   am
    79    27    25   ar
    80    90    89    1
    81   143   144    1
    82   151   152    1
    83   151   153    1
    84    38    39    1
    85    20    21    1
    86    28    29    1
    87    28    21   am
    88    71    72    1
    89    25    26   ar
    90    80    81    1
    91    30    29    1
    92    30    31    2
    93   144   146   ar
    94    32    29    1
    95    42    43    1
    96    42    45    1
    97    16    17    1
    98    16    18    1
    99    43    44    2
   100    21    22    2
   101    84    81    1
   102    84    85    1
   103    73    72    1
   104    73    74    2
   105    89    88    1
   106    89    92    1
   107    72    75    1
   108    81    82    1
   109    46    45    1
   110    46    47    1
   111    75    76    1
   112    94    96   ar
   113    94    93   ar
   114    92    93    1
   115    96    97   ar
   116    85    86    2
   117    85    87   am
   118    93    95   ar
   119    76    77    1
   120    50    49    1
   121    82    83    2
   122    97    95   ar
   123    97    99   ar
   124    47    48    1
   125    95    98   ar
   126    49    48    2
   127    49    51    1
   128    99   101   ar
   129    98   100   ar
   130    78    77    2
   131    77    79   am
   132    57    56    1
   133   101   100   ar
   134    52    53    1
   135    56    58    1
   136    56    53    1
   137    55    54    2
   138    70    67    1
   139    53    54    1
   140    68    67    1
   141    68    69    2
   142    67    66    1
   143    64    63    1
   144    65    63    1
   145    59    60    1
   146    63    60    1
   147    62    61    1
   148    60    61    1
