@<TRIPOS>MOLECULE
tmp/2xqqA00.pdb
 154 153 0 0 0
SMALL
GASTEIGER

@<TRIPOS>ATOM
      1  N         27.3390   25.0950   26.5680 N.3     7  LYS7       -0.1231
      2  CA        27.1710   25.4320   25.1500 C.3     7  LYS7        0.1693
      3  C         28.4230   25.1280   24.3440 C.2     7  LYS7        0.2592
      4  O         28.3740   24.5710   23.2560 O.2     7  LYS7       -0.2718
      5  CB        26.7180   26.8570   24.9310 C.3     7  LYS7        0.0285
      6  CG        25.3770   27.1450   25.5650 C.3     7  LYS7        0.0035
      7  CD        24.2610   26.5980   24.8360 C.3     7  LYS7        0.0206
      8  CE        22.9070   27.1400   25.2530 C.3     7  LYS7        0.1093
      9  NZ        21.8480   26.5360   24.4090 N.3     7  LYS7       -0.1314
     10  N         29.5690   25.5180   24.8560 N.am    8  ASN8       -0.1960
     11  CA        30.8280   25.2480   24.2170 C.3     8  ASN8        0.1819
     12  C         31.9310   25.2270   25.2430 C.2     8  ASN8        0.2621
     13  O         31.9040   26.0210   26.1520 O.2     8  ASN8       -0.2715
     14  CB        31.2020   26.4100   23.2330 C.3     8  ASN8        0.1195
     15  CG        30.2390   26.5670   22.1380 C.2     8  ASN8        0.2630
     16  OD1       29.2790   27.3380   22.2390 O.2     8  ASN8       -0.2716
     17  ND2       30.4770   25.8470   21.0470 N.am    8  ASN8       -0.0877
     18  N         32.8850   24.3290   25.1020 N.am    9  ALA9       -0.1963
     19  CA        33.9470   24.2020   26.0610 C.3     9  ALA9        0.1728
     20  C         35.2130   23.7390   25.3910 C.2     9  ALA9        0.2616
     21  O         35.1560   22.8770   24.4790 O.2     9  ALA9       -0.2715
     22  CB        33.5300   23.2920   27.2060 C.3     9  ALA9        0.0334
     23  N         36.3160   24.2660   25.8620 N.am   10  ASP10      -0.1971
     24  CA        37.6610   23.6760   25.6270 C.3    10  ASP10       0.1709
     25  C         38.2340   23.6700   27.0170 C.2    10  ASP10       0.2293
     26  O         38.9050   24.6050   27.4720 O.2    10  ASP10      -0.2864
     27  CB        38.4800   24.5270   24.6570 C.3    10  ASP10       0.1436
     28  CG        39.8950   23.9900   24.4950 C.2    10  ASP10       0.3671
     29  OD1       40.1030   22.8260   24.7280 O.co2  10  ASP10      -0.2456
     30  OD2       40.7890   24.7770   24.1940 O.co2  10  ASP10      -0.2456
     31  N         22.4620   38.1920   29.7130 N.3    58  ARG58      -0.1231
     32  CA        21.4010   37.6500   28.9030 C.3    58  ARG58       0.1694
     33  C         21.4600   37.9940   27.4160 C.2    58  ARG58       0.2592
     34  O         20.8040   37.3670   26.6110 O.2    58  ARG58      -0.2718
     35  CB        20.0670   38.1050   29.4840 C.3    58  ARG58       0.0321
     36  CG        19.7550   37.5850   30.8840 C.3    58  ARG58       0.0489
     37  CD        18.3770   38.2400   31.4780 C.3    58  ARG58       0.2205
     38  NE        18.2000   37.6840   32.8240 N.pl3  58  ARG58      -0.0865
     39  CZ        17.3460   36.7070   33.1340 C.cat  58  ARG58       0.5346
     40  NH1       16.5300   36.2270   32.2070 N.pl3  58  ARG58       0.1354
     41  NH2       17.3130   36.2460   34.3970 N.pl3  58  ARG58       0.1354
     42  N         22.2300   39.0270   27.0620 N.am   59  ASN59      -0.1960
     43  CA        22.3190   39.4490   25.6570 C.3    59  ASN59       0.1819
     44  C         23.7050   39.9820   25.3490 C.2    59  ASN59       0.2621
     45  O         24.0740   41.1290   25.7070 O.2    59  ASN59      -0.2715
     46  CB        21.2750   40.4910   25.2630 C.3    59  ASN59       0.1195
     47  CG        21.3910   40.8660   23.8230 C.2    59  ASN59       0.2630
     48  OD1       21.9930   41.9000   23.4920 O.2    59  ASN59      -0.2716
     49  ND2       21.0380   39.9500   22.9260 N.am   59  ASN59      -0.0877
     50  N         24.5270   39.1360   24.7330 N.am   60  PHE60      -0.1960
     51  CA        25.8470   39.5380   24.3060 C.3    60  PHE60       0.1771
     52  C         26.4280   38.5370   23.3270 C.2    60  PHE60       0.2620
     53  O         26.1070   37.3360   23.3440 O.2    60  PHE60      -0.2715
     54  CB        26.8710   39.7420   25.4640 C.3    60  PHE60       0.0574
     55  CG        27.2670   38.5360   26.2260 C.ar   60  PHE60      -0.0200
     56  CD1       28.4400   37.8510   25.8830 C.ar   60  PHE60      -0.0042
     57  CD2       26.5010   38.0320   27.2950 C.ar   60  PHE60      -0.0042
     58  CE1       28.8080   36.7170   26.5690 C.ar   60  PHE60      -0.0003
     59  CE2       26.8900   36.8860   27.9640 C.ar   60  PHE60      -0.0003
     60  CZ        28.0590   36.2350   27.5760 C.ar   60  PHE60      -0.0000
     61  N         27.3040   39.0570   22.4800 N.am   61  GLY61      -0.1940
     62  CA        28.2230   38.2540   21.6860 C.3    61  GLY61       0.2014
     63  C         29.6320   38.5550   22.0590 C.2    61  GLY61       0.2640
     64  O         29.9370   39.6280   22.6120 O.2    61  GLY61      -0.2714
     65  N         30.5180   37.6110   21.7560 N.am   62  SER62      -0.1935
     66  CA        31.9240   37.7610   22.1090 C.3    62  SER62       0.2055
     67  C         32.8150   37.2700   21.0080 C.2    62  SER62       0.2643
     68  O         32.4070   36.3730   20.2620 O.2    62  SER62      -0.2714
     69  CB        32.2690   37.0130   23.3910 C.3    62  SER62       0.2130
     70  OG        32.2580   35.6300   23.2050 O.3    62  SER62      -0.2179
     71  N         34.0510   37.7520   21.0460 N.am   63  TYR63      -0.1959
     72  CA        35.1040   37.1670   20.2660 C.3    63  TYR63       0.1771
     73  C         36.3980   37.3700   20.9990 C.2    63  TYR63       0.2619
     74  O         36.7950   38.5170   21.2710 O.2    63  TYR63      -0.2715
     75  CB        35.1330   37.7270   18.8190 C.3    63  TYR63       0.0574
     76  CG        35.8880   36.8120   17.8770 C.ar   63  TYR63      -0.0198
     77  CD1       35.2910   35.7080   17.3270 C.ar   63  TYR63      -0.0009
     78  CD2       37.1970   37.0700   17.5180 C.ar   63  TYR63      -0.0009
     79  CE1       35.9830   34.8430   16.4700 C.ar   63  TYR63       0.0417
     80  CE2       37.8930   36.2320   16.6480 C.ar   63  TYR63       0.0417
     81  CZ        37.2760   35.1240   16.1450 C.ar   63  TYR63       0.1957
     82  OH        37.9710   34.3110   15.2580 O.3    63  TYR63      -0.2866
     83  N         36.9850   36.2410   21.4720 N.am   64  VAL64      -0.1963
     84  CA        38.0400   36.2710   22.4090 C.3    64  VAL64       0.1727
     85  C         39.1130   35.2860   21.9970 C.2    64  VAL64       0.2617
     86  O         38.8890   34.4490   21.1320 O.2    64  VAL64      -0.2715
     87  CB        37.5730   35.9820   23.8890 C.3    64  VAL64       0.0290
     88  CG1       36.3870   36.8470   24.2640 C.3    64  VAL64       0.0023
     89  CG2       37.2720   34.4670   24.0610 C.3    64  VAL64       0.0023
     90  N         40.2730   35.3640   22.6090 N.am   65  THR65      -0.1937
     91  CA        41.3510   34.3790   22.4160 C.3    65  THR65       0.2028
     92  C         41.7100   33.7610   23.7370 C.2    65  THR65       0.2642
     93  O         41.9930   34.4810   24.6870 O.2    65  THR65      -0.2714
     94  CB        42.5810   35.0050   21.7830 C.3    65  THR65       0.1808
     95  OG1       42.2450   35.6030   20.5280 O.3    65  THR65      -0.2208
     96  CG2       43.7410   33.9770   21.5420 C.3    65  THR65       0.0379
     97  N         41.6280   32.4520   23.8440 N.am   66  HIS66      -0.1973
     98  CA        41.9030   31.7920   25.0930 C.3    66  HIS66       0.1656
     99  C         43.0960   30.8590   25.0320 C.2    66  HIS66       0.2291
    100  O         43.4910   30.3780   23.9760 O.2    66  HIS66      -0.2864
    101  CB        40.6910   31.0020   25.5740 C.3    66  HIS66       0.0771
    102  CG        40.3000   29.8690   24.6760 C.ar   66  HIS66       0.0820
    103  ND1       40.7890   28.6000   24.8540 N.ar   66  HIS66      -0.2267
    104  CD2       39.5640   29.8180   23.5430 C.ar   66  HIS66       0.1154
    105  CE1       40.3220   27.8180   23.8860 C.ar   66  HIS66       0.1986
    106  NE2       39.5440   28.5260   23.0960 N.ar   66  HIS66      -0.2212
    107  N         38.6240   27.4400   28.4240 N.3    71  PHE71      -0.1241
    108  CA        37.4910   28.1720   27.8980 C.3    71  PHE71       0.1605
    109  C         36.2250   27.3940   28.2230 C.2    71  PHE71       0.2264
    110  O         36.1190   26.1980   27.9200 O.2    71  PHE71      -0.2867
    111  CB        37.6180   28.3090   26.3310 C.3    71  PHE71       0.0534
    112  CG        36.4450   29.0230   25.6910 C.ar   71  PHE71      -0.0203
    113  CD1       36.5140   30.3770   25.4200 C.ar   71  PHE71      -0.0042
    114  CD2       35.3270   28.2990   25.2930 C.ar   71  PHE71      -0.0042
    115  CE1       35.4850   30.9940   24.7690 C.ar   71  PHE71      -0.0003
    116  CE2       34.2530   28.9410   24.6720 C.ar   71  PHE71      -0.0003
    117  CZ        34.3450   30.3080   24.4220 C.ar   71  PHE71      -0.0000
    118  N         31.7370   28.2150   27.9630 N.3    73  TYR73      -0.1241
    119  CA        30.6150   29.0480   27.7150 C.3    73  TYR73       0.1605
    120  C         29.3660   28.2120   28.0230 C.2    73  TYR73       0.2264
    121  O         29.1520   27.1550   27.4250 O.2    73  TYR73      -0.2867
    122  CB        30.5910   29.5660   26.2700 C.3    73  TYR73       0.0534
    123  CG        29.3780   30.3700   25.8900 C.ar   73  TYR73      -0.0201
    124  CD1       29.0410   31.5660   26.5450 C.ar   73  TYR73      -0.0009
    125  CD2       28.5410   29.9470   24.8720 C.ar   73  TYR73      -0.0009
    126  CE1       27.9420   32.2930   26.1690 C.ar   73  TYR73       0.0417
    127  CE2       27.3940   30.6770   24.5110 C.ar   73  TYR73       0.0417
    128  CZ        27.0910   31.8230   25.2010 C.ar   73  TYR73       0.1957
    129  OH        26.0170   32.5930   24.8470 O.3    73  TYR73      -0.2866
    130  N         25.1500   28.1710   30.1350 N.3    75  TYR75      -0.1241
    131  CA        24.0180   28.8450   30.7610 C.3    75  TYR75       0.1605
    132  C         23.7540   28.2280   32.1150 C.2    75  TYR75       0.2264
    133  O         23.8840   27.0140   32.3090 O.2    75  TYR75      -0.2867
    134  CB        22.7380   28.7230   29.9360 C.3    75  TYR75       0.0534
    135  CG        22.5670   29.7330   28.8600 C.ar   75  TYR75      -0.0201
    136  CD1       23.2920   29.6910   27.7070 C.ar   75  TYR75      -0.0009
    137  CD2       21.6730   30.7910   29.0450 C.ar   75  TYR75      -0.0009
    138  CE1       23.0640   30.6490   26.6390 C.ar   75  TYR75       0.0417
    139  CE2       21.4760   31.7550   28.0730 C.ar   75  TYR75       0.0417
    140  CZ        22.1600   31.7000   26.8880 C.ar   75  TYR75       0.1957
    141  OH        21.9120   32.6700   25.8640 O.3    75  TYR75      -0.2866
    142  N         23.7120   33.5320   30.5290 N.3    80  ALA80      -0.1245
    143  CA        24.9230   32.9950   29.8470 C.3    80  ALA80       0.1562
    144  C         26.1850   33.4560   30.5890 C.2    80  ALA80       0.2260
    145  O         26.2490   34.5940   31.0420 O.2    80  ALA80      -0.2867
    146  CB        24.9730   33.4540   28.4330 C.3    80  ALA80       0.0290
    147  N         30.4190   33.2850   30.1830 N.3    82  LEU82      -0.1245
    148  CA        31.6560   33.0600   29.4440 C.3    82  LEU82       0.1561
    149  C         32.8300   33.2170   30.4120 C.2    82  LEU82       0.2260
    150  O         32.9190   34.2390   31.0800 O.2    82  LEU82      -0.2867
    151  CB        31.8180   34.1010   28.3000 C.3    82  LEU82       0.0270
    152  CG        33.1400   34.1430   27.6010 C.3    82  LEU82       0.0019
    153  CD1       33.5150   32.8800   26.8560 C.3    82  LEU82       0.0001
    154  CD2       33.1730   35.3500   26.5830 C.3    82  LEU82       0.0001
@<TRIPOS>BOND
     1    82    81    1
     2    81    79   ar
     3    81    80   ar
     4    79    77   ar
     5    80    78   ar
     6    77    76   ar
     7    78    76   ar
     8    76    75    1
     9    75    72    1
    10    68    67    2
    11    72    73    1
    12    72    71    1
    13    95    94    1
    14    73    74    2
    15    73    83   am
    16    67    71   am
    17    67    66    1
    18    17    15   am
    19    86    85    2
    20    83    84    1
    21    96    94    1
    22    62    63    1
    23    62    61    1
    24    65    63   am
    25    65    66    1
    26    94    91    1
    27    85    84    1
    28    85    90   am
    29    63    64    2
    30    66    69    1
    31    15    16    2
    32    15    14    1
    33    84    87    1
    34    91    90    1
    35    91    92    1
    36    61    52   am
    37    49    47   am
    38   106   104   ar
    39   106   105   ar
    40    70    69    1
    41    14    11    1
    42     4     3    2
    43    52    53    2
    44    52    51    1
    45    48    47    2
    46   104   102   ar
    47    92    97   am
    48    92    93    2
    49    47    46    1
    50    97    98    1
    51   105   103   ar
    52    87    89    1
    53    87    88    1
    54   100    99    2
    55    30    28   ar
    56    11    10    1
    57    11    12    1
    58    51    50    1
    59    51    54    1
    60     3    10   am
    61     3     2    1
    62     9     8    1
    63   117   116   ar
    64   117   115   ar
    65    21    20    2
    66    28    27    1
    67    28    29   ar
    68   127   125   ar
    69   127   128   ar
    70    27    24    1
    71   116   114   ar
    72   102   103   ar
    73   102   101    1
    74    50    44   am
    75   115   113   ar
    76     7     8    1
    77     7     6    1
    78   129   128    1
    79   125   123   ar
    80     5     2    1
    81     5     6    1
    82    99    98    1
    83    98   101    1
    84    18    12   am
    85    18    19    1
    86     2     1    1
    87   128   126   ar
    88    12    13    2
    89    46    43    1
    90   114   112   ar
    91    44    43    1
    92    44    45    2
    93    20    23   am
    94    20    19    1
    95   113   112   ar
    96    54    55    1
    97    24    23    1
    98    24    25    1
    99    43    42    1
   100   112   111    1
   101   141   140    1
   102    56    55   ar
   103    56    58   ar
   104   123   122    1
   105   123   124   ar
   106    19    22    1
   107   126   124   ar
   108    55    57   ar
   109   122   119    1
   110   111   108    1
   111    58    60   ar
   112   154   152    1
   113    34    33    2
   114   138   140   ar
   115   138   136   ar
   116   153   152    1
   117   140   139   ar
   118    25    26    2
   119    42    33   am
   120    57    59   ar
   121    33    32    1
   122   121   120    2
   123    60    59   ar
   124   152   151    1
   125   136   135   ar
   126   119   118    1
   127   119   120    1
   128   108   109    1
   129   108   107    1
   130   110   109    2
   131   139   137   ar
   132   151   148    1
   133   146   143    1
   134   135   137   ar
   135   135   134    1
   136    32    35    1
   137    32    31    1
   138   148   147    1
   139   148   149    1
   140    35    36    1
   141   143   142    1
   142   143   144    1
   143   134   131    1
   144   130   131    1
   145   149   150    2
   146   144   145    2
   147   131   132    1
   148    36    37    1
   149    37    38    1
   150   132   133    2
   151    40    39    1
   152    38    39    2
   153    39    41    1
