@<TRIPOS>MOLECULE
tmp/2xqqB00.pdb
 124 122 0 0 0
SMALL
GASTEIGER

@<TRIPOS>ATOM
      1  N         25.6170   19.5090   14.2310 N.3     9  LYS9       -0.1231
      2  CA        26.5000   19.0530   13.1760 C.3     9  LYS9        0.1693
      3  C         26.0870   19.5730   11.8260 C.2     9  LYS9        0.2592
      4  O         26.9260   19.8170   10.9560 O.2     9  LYS9       -0.2718
      5  CB        26.5280   17.5570   13.1540 C.3     9  LYS9        0.0285
      6  CG        27.0470   16.9110   14.4040 C.3     9  LYS9        0.0035
      7  CD        28.4610   17.1010   14.5800 C.3     9  LYS9        0.0206
      8  CE        28.9890   16.3640   15.8210 C.3     9  LYS9        0.1093
      9  NZ        30.4620   16.3750   15.9930 N.3     9  LYS9       -0.1314
     10  N         24.7970   19.7350   11.5710 N.am   10  ASN10      -0.1974
     11  CA        24.3040   20.1570   10.2780 C.3    10  ASN10       0.1688
     12  C         22.9360   20.7080   10.4580 C.2    10  ASN10       0.2292
     13  O         22.1700   20.1070   11.1100 O.2    10  ASN10      -0.2864
     14  CB        24.3840   18.9920    9.2790 C.3    10  ASN10       0.1181
     15  CG        24.2460   19.4310    7.8650 C.2    10  ASN10       0.2629
     16  OD1       24.0090   20.5800    7.5790 O.2    10  ASN10      -0.2716
     17  ND2       24.3300   18.4460    6.9460 N.am   10  ASN10      -0.0877
     18  N         22.7490    5.9870   18.2520 N.3    60  ARG60      -0.1231
     19  CA        24.1780    6.0650   18.3950 C.3    60  ARG60       0.1694
     20  C         24.9090    5.6220   17.1390 C.2    60  ARG60       0.2592
     21  O         26.0720    5.9690   16.9730 O.2    60  ARG60      -0.2718
     22  CB        24.7010    5.2830   19.5850 C.3    60  ARG60       0.0321
     23  CG        24.1690    5.8210   20.9070 C.3    60  ARG60       0.0489
     24  CD        24.4790    4.7990   22.0600 C.3    60  ARG60       0.2205
     25  NE        23.7220    5.1400   23.2440 N.pl3  60  ARG60      -0.0865
     26  CZ        24.1600    5.9670   24.1350 C.cat  60  ARG60       0.5346
     27  NH1       25.3930    6.4620   24.0170 N.pl3  60  ARG60       0.1354
     28  NH2       23.3630    6.2650   25.1600 N.pl3  60  ARG60       0.1354
     29  N         24.2730    4.8770   16.2430 N.am   61  ASN61      -0.1960
     30  CA        24.9290    4.3790   15.0540 C.3    61  ASN61       0.1819
     31  C         23.9730    4.2740   13.8850 C.2    61  ASN61       0.2621
     32  O         23.1540    3.3780   13.8330 O.2    61  ASN61      -0.2715
     33  CB        25.6300    2.9900   15.2670 C.3    61  ASN61       0.1195
     34  CG        26.2900    2.5320   13.9900 C.2    61  ASN61       0.2630
     35  OD1       25.7210    1.7560   13.2410 O.2    61  ASN61      -0.2716
     36  ND2       27.4150    3.1370   13.6730 N.am   61  ASN61      -0.0877
     37  N         24.0660    5.2400   12.9860 N.am   62  PHE62      -0.1960
     38  CA        23.2640    5.2230   11.7610 C.3    62  PHE62       0.1771
     39  C         23.8170    6.2310   10.7590 C.2    62  PHE62       0.2620
     40  O         24.4350    7.2350   11.1340 O.2    62  PHE62      -0.2715
     41  CB        21.7750    5.4970   12.0100 C.3    62  PHE62       0.0574
     42  CG        21.4200    6.9220   12.4530 C.ar   62  PHE62      -0.0200
     43  CD1       21.0300    7.8950   11.5470 C.ar   62  PHE62      -0.0042
     44  CD2       21.4790    7.2960   13.7750 C.ar   62  PHE62      -0.0042
     45  CE1       20.6750    9.1400   11.9490 C.ar   62  PHE62      -0.0003
     46  CE2       21.1240    8.5330   14.1840 C.ar   62  PHE62      -0.0003
     47  CZ        20.7030    9.4700   13.2510 C.ar   62  PHE62      -0.0000
     48  N         23.5350    5.9390    9.5050 N.am   63  GLY63      -0.1940
     49  CA        23.6690    6.8890    8.4350 C.3    63  GLY63       0.2014
     50  C         22.3490    7.1200    7.7700 C.2    63  GLY63       0.2640
     51  O         21.4360    6.2700    7.9000 O.2    63  GLY63      -0.2714
     52  N         22.2040    8.2190    7.0680 N.am   64  SER64      -0.1935
     53  CA        20.9290    8.5540    6.4470 C.3    64  SER64       0.2055
     54  C         21.1210    9.2160    5.1140 C.2    64  SER64       0.2643
     55  O         22.1930    9.8170    4.8820 O.2    64  SER64      -0.2714
     56  CB        20.1170    9.4910    7.3470 C.3    64  SER64       0.2130
     57  OG        20.6460   10.8240    7.3400 O.3    64  SER64      -0.2179
     58  N         20.1160    9.1750    4.2920 N.am   65  TYR65      -0.1959
     59  CA        20.0670    9.9630    3.0660 C.3    65  TYR65       0.1771
     60  C         18.6230   10.3010    2.8490 C.2    65  TYR65       0.2619
     61  O         17.7930    9.4060    2.6630 O.2    65  TYR65      -0.2715
     62  CB        20.7080    9.2310    1.8990 C.3    65  TYR65       0.0574
     63  CG        21.1430   10.1310    0.8180 C.ar   65  TYR65      -0.0198
     64  CD1       22.3670   10.7680    0.8950 C.ar   65  TYR65      -0.0009
     65  CD2       20.3650   10.4110   -0.3200 C.ar   65  TYR65      -0.0009
     66  CE1       22.8460   11.5950   -0.1020 C.ar   65  TYR65       0.0417
     67  CE2       20.8250   11.2530   -1.3080 C.ar   65  TYR65       0.0417
     68  CZ        22.0950   11.7940   -1.2320 C.ar   65  TYR65       0.1957
     69  OH        22.5290   12.6190   -2.2550 O.3    65  TYR65      -0.2866
     70  N         18.3080   11.5920    2.9890 N.am   66  VAL66      -0.1977
     71  CA        16.9410   12.0880    3.0280 C.3    66  VAL66       0.1596
     72  C         16.8170   13.2770    2.1520 C.2    66  VAL66       0.2287
     73  O         17.7770   13.9080    1.7700 O.2    66  VAL66      -0.2864
     74  CB        16.4340   12.3890    4.4730 C.3    66  VAL66       0.0276
     75  CG1       16.8190   11.1980    5.3910 C.3    66  VAL66       0.0022
     76  CG2       17.0930   13.7180    5.0110 C.3    66  VAL66       0.0022
     77  N         15.4860   21.1910    8.5170 N.3    73  PHE73      -0.1241
     78  CA        16.4100   20.0750    8.7270 C.3    73  PHE73       0.1605
     79  C         17.3710   20.4020    9.8910 C.2    73  PHE73       0.2264
     80  O         17.9520   21.4920    9.8770 O.2    73  PHE73      -0.2867
     81  CB        17.2240   19.8640    7.4540 C.3    73  PHE73       0.0534
     82  CG        18.2990   18.7990    7.5210 C.ar   73  PHE73      -0.0203
     83  CD1       18.0540   17.5100    7.1220 C.ar   73  PHE73      -0.0042
     84  CD2       19.5340   19.0640    8.0200 C.ar   73  PHE73      -0.0042
     85  CE1       18.9790   16.5270    7.0810 C.ar   73  PHE73      -0.0003
     86  CE2       20.5200   17.9920    8.0950 C.ar   73  PHE73      -0.0003
     87  CZ        20.1730   16.7460    7.6480 C.ar   73  PHE73      -0.0000
     88  N         20.4880   18.1250   12.2920 N.3    75  TYR75      -0.1241
     89  CA        21.2160   16.9400   12.6880 C.3    75  TYR75       0.1605
     90  C         22.2020   17.3370   13.8040 C.2    75  TYR75       0.2264
     91  O         23.0300   18.2140   13.5870 O.2    75  TYR75      -0.2867
     92  CB        21.9170   16.3340   11.4930 C.3    75  TYR75       0.0534
     93  CG        22.7850   15.1270   11.8390 C.ar   75  TYR75      -0.0201
     94  CD1       22.2250   13.9520   12.3330 C.ar   75  TYR75      -0.0009
     95  CD2       24.1720   15.1750   11.6880 C.ar   75  TYR75      -0.0009
     96  CE1       23.0370   12.8970   12.6660 C.ar   75  TYR75       0.0417
     97  CE2       24.9340   14.1200   12.0090 C.ar   75  TYR75       0.0417
     98  CZ        24.3800   12.9900   12.5510 C.ar   75  TYR75       0.1957
     99  OH        25.1490   11.8810   12.8420 O.3    75  TYR75      -0.2866
    100  N         23.9390   16.1580   17.9600 N.3    77  TYR77      -0.1241
    101  CA        24.1710   15.2680   19.0650 C.3    77  TYR77       0.1605
    102  C         23.6660   15.8830   20.3540 C.2    77  TYR77       0.2264
    103  O         23.8240   17.0720   20.5720 O.2    77  TYR77      -0.2867
    104  CB        25.6470   14.9110   19.2280 C.3    77  TYR77       0.0534
    105  CG        26.1180   13.7950   18.3590 C.ar   77  TYR77      -0.0201
    106  CD1       26.3690   13.9960   17.0390 C.ar   77  TYR77      -0.0009
    107  CD2       26.2700   12.4870   18.8550 C.ar   77  TYR77      -0.0009
    108  CE1       26.8520   12.8920   16.1780 C.ar   77  TYR77       0.0417
    109  CE2       26.7370   11.4800   18.1210 C.ar   77  TYR77       0.0417
    110  CZ        27.0310   11.6640   16.8190 C.ar   77  TYR77       0.1957
    111  OH        27.5120   10.5500   16.0710 O.3    77  TYR77      -0.2866
    112  N         22.8580   10.8400   18.4920 N.3    82  ALA82      -0.1245
    113  CA        22.6000   11.6520   17.3540 C.3    82  ALA82       0.1562
    114  C         21.1100   11.7150   17.0890 C.2    82  ALA82       0.2260
    115  O         20.4010   10.6980   17.2230 O.2    82  ALA82      -0.2867
    116  CB        23.3430   11.1650   16.1350 C.3    82  ALA82       0.0290
    117  N         18.3620   13.2050   14.1330 N.3    84  LEU84      -0.1245
    118  CA        18.0050   13.7460   12.8150 C.3    84  LEU84       0.1561
    119  C         16.5330   14.1290   12.8370 C.2    84  LEU84       0.2260
    120  O         15.7230   13.2860   13.2060 O.2    84  LEU84      -0.2867
    121  CB        18.2870   12.7080   11.7460 C.3    84  LEU84       0.0270
    122  CG        17.8240   13.0050   10.3500 C.3    84  LEU84       0.0019
    123  CD1       18.4650   14.2420    9.7630 C.3    84  LEU84       0.0001
    124  CD2       18.0130   11.7590    9.4540 C.3    84  LEU84       0.0001
@<TRIPOS>BOND
     1    69    68    1
     2    67    68   ar
     3    67    65   ar
     4    68    66   ar
     5    65    63   ar
     6    66    64   ar
     7    63    64   ar
     8    63    62    1
     9    73    72    2
    10    62    59    1
    11    72    71    1
    12    61    60    2
    13    60    70   am
    14    60    59    1
    15    70    71    1
    16    71    74    1
    17    59    58    1
    18    58    54   am
    19    74    76    1
    20    74    75    1
    21    55    54    2
    22    54    53    1
    23    53    52    1
    24    53    56    1
    25    17    15   am
    26    52    50   am
    27    85    83   ar
    28    85    87   ar
    29    83    82   ar
    30    57    56    1
    31    81    82    1
    32    81    78    1
    33    82    84   ar
    34    16    15    2
    35    87    86   ar
    36    50    51    2
    37    50    49    1
    38    15    14    1
    39    84    86   ar
    40    49    48    1
    41    77    78    1
    42    78    79    1
    43    14    11    1
    44   124   122    1
    45    48    39   am
    46   123   122    1
    47    80    79    2
    48    11    12    1
    49    11    10    1
    50   122   121    1
    51    12    13    2
    52    39    40    2
    53    39    38    1
    54     4     3    2
    55    92    93    1
    56    92    89    1
    57    43    45   ar
    58    43    42   ar
    59    10     3   am
    60    95    93   ar
    61    95    97   ar
    62   121   118    1
    63    38    41    1
    64    38    37    1
    65     3     2    1
    66    93    94   ar
    67    45    47   ar
    68    97    98   ar
    69    41    42    1
    70    88    89    1
    71    94    96   ar
    72    42    44   ar
    73    98    96   ar
    74    98    99    1
    75    89    90    1
    76   118   119    1
    77   118   117    1
    78   119   120    2
    79    37    31   am
    80     5     2    1
    81     5     6    1
    82     2     1    1
    83    35    34    2
    84    47    46   ar
    85    91    90    2
    86    36    34   am
    87    44    46   ar
    88    32    31    2
    89    31    30    1
    90    34    33    1
    91     6     7    1
    92     7     8    1
    93    30    33    1
    94    30    29    1
    95     8     9    1
    96   111   110    1
    97   116   113    1
    98   108   110   ar
    99   108   106   ar
   100    29    20   am
   101   110   109   ar
   102    21    20    2
   103   106   105   ar
   104   114   115    2
   105   114   113    1
   106    20    19    1
   107   113   112    1
   108   100   101    1
   109   109   107   ar
   110    18    19    1
   111   105   107   ar
   112   105   104    1
   113    19    22    1
   114   101   104    1
   115   101   102    1
   116    22    23    1
   117   102   103    2
   118    23    24    1
   119    24    25    1
   120    25    26    2
   121    27    26    1
   122    26    28    1
