@<TRIPOS>MOLECULE
tmp/2xqrE01.pdb
 161 159 0 0 0
SMALL
GASTEIGER

@<TRIPOS>ATOM
      1  N         64.8110  -33.5420   82.2310 N.3   238  LYS238     -0.1231
      2  CA        66.2200  -33.9420   82.3550 C.3   238  LYS238      0.1693
      3  C         66.8770  -34.2700   81.0050 C.2   238  LYS238      0.2592
      4  O         67.7160  -35.1680   80.9270 O.2   238  LYS238     -0.2718
      5  CB        66.3910  -35.1420   83.3070 C.3   238  LYS238      0.0285
      6  CG        65.5160  -35.1510   84.5520 C.3   238  LYS238      0.0035
      7  CD        65.6880  -33.9120   85.4030 C.3   238  LYS238      0.0206
      8  CE        64.6560  -33.8830   86.5150 C.3   238  LYS238      0.1093
      9  NZ        63.2650  -34.1020   86.0220 N.3   238  LYS238     -0.1314
     10  N         66.5160  -33.5470   79.9480 N.am  239  HIS239     -0.1976
     11  CA        67.1140  -33.7790   78.6280 C.3   239  HIS239      0.1656
     12  C         67.5930  -32.4760   78.0030 C.2   239  HIS239      0.2291
     13  O         67.2640  -31.3950   78.4830 O.2   239  HIS239     -0.2864
     14  CB        66.1170  -34.4760   77.6960 C.3   239  HIS239      0.0771
     15  CG        65.5580  -35.7450   78.2540 C.ar  239  HIS239      0.0820
     16  ND1       64.2050  -35.9880   78.3320 N.ar  239  HIS239     -0.2267
     17  CD2       66.1660  -36.8300   78.7900 C.ar  239  HIS239      0.1154
     18  CE1       64.0030  -37.1740   78.8810 C.ar  239  HIS239      0.1986
     19  NE2       65.1770  -37.7050   79.1680 N.ar  239  HIS239     -0.2212
     20  N         71.0120  -40.8550   77.9140 N.3   273  LYS273     -0.1231
     21  CA        71.3820  -40.1300   79.1210 C.3   273  LYS273      0.1693
     22  C         72.4400  -39.0840   78.8020 C.2   273  LYS273      0.2592
     23  O         73.5780  -39.4270   78.4940 O.2   273  LYS273     -0.2718
     24  CB        71.9070  -41.1110   80.1740 C.3   273  LYS273      0.0285
     25  CG        72.0260  -40.5080   81.5560 C.3   273  LYS273      0.0035
     26  CD        70.6480  -40.3250   82.2010 C.3   273  LYS273      0.0206
     27  CE        70.2220  -41.5740   82.9470 C.3   273  LYS273      0.1093
     28  NZ        71.1310  -41.8450   84.0860 N.3   273  LYS273     -0.1314
     29  N         72.0620  -37.8110   78.9000 N.am  274  TYR274     -0.1962
     30  CA        72.8580  -36.7190   78.3430 C.3   274  TYR274      0.1771
     31  C         72.2660  -35.3750   78.7710 C.2   274  TYR274      0.2619
     32  O         71.1010  -35.0960   78.4830 O.2   274  TYR274     -0.2715
     33  CB        72.8360  -36.8360   76.8150 C.3   274  TYR274      0.0574
     34  CG        73.8830  -36.0400   76.0810 C.ar  274  TYR274     -0.0198
     35  CD1       75.1300  -36.5870   75.8020 C.ar  274  TYR274     -0.0009
     36  CD2       73.6150  -34.7610   75.6290 C.ar  274  TYR274     -0.0009
     37  CE1       76.0900  -35.8670   75.1080 C.ar  274  TYR274      0.0417
     38  CE2       74.5680  -34.0330   74.9410 C.ar  274  TYR274      0.0417
     39  CZ        75.7990  -34.5930   74.6800 C.ar  274  TYR274      0.1957
     40  OH        76.7390  -33.8680   73.9990 O.3   274  TYR274     -0.2866
     41  N         73.0560  -34.5440   79.4530 N.am  275  TYR275     -0.1974
     42  CA        72.5380  -33.2830   80.0110 C.3   275  TYR275      0.1639
     43  C         73.5780  -32.1720   80.0860 C.2   275  TYR275      0.2290
     44  O         74.7770  -32.4290   80.0650 O.2   275  TYR275     -0.2864
     45  CB        71.9590  -33.5170   81.4170 C.3   275  TYR275      0.0560
     46  CG        70.9560  -32.4590   81.8370 C.ar  275  TYR275     -0.0198
     47  CD1       69.6650  -32.4700   81.3300 C.ar  275  TYR275     -0.0009
     48  CD2       71.3040  -31.4410   82.7260 C.ar  275  TYR275     -0.0009
     49  CE1       68.7390  -31.5040   81.6940 C.ar  275  TYR275      0.0417
     50  CE2       70.3790  -30.4610   83.0980 C.ar  275  TYR275      0.0417
     51  CZ        69.0970  -30.5040   82.5780 C.ar  275  TYR275      0.1957
     52  OH        68.1690  -29.5490   82.9180 O.3   275  TYR275     -0.2866
     53  N         77.3000  -34.0200   79.6800 N.3   293  TRP293     -0.1241
     54  CA        77.3720  -34.6830   80.9830 C.3   293  TRP293      0.1605
     55  C         76.3810  -35.8410   81.0560 C.2   293  TRP293      0.2264
     56  O         75.1770  -35.6430   80.8980 O.2   293  TRP293     -0.2867
     57  CB        77.0990  -33.6810   82.1210 C.3   293  TRP293      0.0550
     58  CG        76.7300  -34.3280   83.4420 C.ar  293  TRP293      0.0003
     59  CD1       77.3890  -35.3470   84.0630 C.ar  293  TRP293      0.0946
     60  CD2       75.6180  -33.9940   84.2880 C.ar  293  TRP293      0.0152
     61  NE1       76.7560  -35.6760   85.2400 N.ar  293  TRP293     -0.2442
     62  CE2       75.6690  -34.8590   85.4050 C.ar  293  TRP293      0.0810
     63  CE3       74.5870  -33.0490   84.2130 C.ar  293  TRP293      0.0012
     64  CZ2       74.7320  -34.8050   86.4430 C.ar  293  TRP293      0.0191
     65  CZ3       73.6450  -32.9980   85.2460 C.ar  293  TRP293      0.0001
     66  CH2       73.7270  -33.8750   86.3440 C.ar  293  TRP293      0.0015
     67  N         75.1340  -38.5660   83.7510 N.3   295  ASN295     -0.1225
     68  CA        75.1360  -38.9250   85.1760 C.3   295  ASN295      0.1785
     69  C         75.0370  -40.4340   85.3390 C.2   295  ASN295      0.2597
     70  O         74.9610  -41.1610   84.3510 O.2   295  ASN295     -0.2718
     71  CB        74.0010  -38.2110   85.9470 C.3   295  ASN295      0.1169
     72  CG        72.6230  -38.7600   85.6190 C.2   295  ASN295      0.2627
     73  OD1       72.4180  -39.3190   84.5400 O.2   295  ASN295     -0.2716
     74  ND2       71.6680  -38.6040   86.5450 N.am  295  ASN295     -0.0877
     75  N         75.0350  -40.8990   86.5850 N.am  296  GLU296     -0.1965
     76  CA        74.9920  -42.3330   86.8600 C.3   296  GLU296      0.1733
     77  C         73.5760  -42.8600   86.7390 C.2   296  GLU296      0.2617
     78  O         72.6270  -42.1480   87.0500 O.2   296  GLU296     -0.2715
     79  CB        75.5310  -42.6220   88.2620 C.3   296  GLU296      0.0429
     80  CG        76.9810  -42.2210   88.4500 C.3   296  GLU296      0.1163
     81  CD        77.9210  -43.0000   87.5500 C.2   296  GLU296      0.3649
     82  OE1       77.7900  -44.2400   87.4670 O.co2 296  GLU296     -0.2457
     83  OE2       78.7940  -42.3670   86.9220 O.co2 296  GLU296     -0.2457
     84  N         73.4420  -44.1010   86.2740 N.am  297  SER297     -0.1936
     85  CA        72.1590  -44.8080   86.2830 C.3   297  SER297      0.2055
     86  C         72.1130  -45.8560   87.4050 C.2   297  SER297      0.2643
     87  O         71.1440  -46.6030   87.5300 O.2   297  SER297     -0.2714
     88  CB        71.8890  -45.4570   84.9230 C.3   297  SER297      0.2130
     89  OG        71.5190  -44.4750   83.9720 O.3   297  SER297     -0.2179
     90  N         73.1690  -45.9010   88.2110 N.am  298  SER298     -0.1949
     91  CA        73.1990  -46.7180   89.4190 C.3   298  SER298      0.1924
     92  C         72.5440  -45.9440   90.5590 C.2   298  SER298      0.2314
     93  O         72.2970  -44.7470   90.4390 O.2   298  SER298     -0.2863
     94  CB        74.6430  -47.0500   89.7790 C.3   298  SER298      0.2116
     95  OG        75.4300  -45.8720   89.8020 O.3   298  SER298     -0.2180
     96  N         60.8140  -43.9620   71.9370 N.3   392  GLN392     -0.1231
     97  CA        61.2130  -44.6050   73.1960 C.3   392  GLN392      0.1698
     98  C         60.1840  -45.6270   73.6690 C.2   392  GLN392      0.2592
     99  O         60.5450  -46.7300   74.0850 O.2   392  GLN392     -0.2718
    100  CB        61.4340  -43.5660   74.3010 C.3   392  GLN392      0.0381
    101  CG        61.6630  -44.1720   75.6810 C.3   392  GLN392      0.0905
    102  CD        62.2850  -43.1950   76.6560 C.2   392  GLN392      0.2608
    103  OE1       61.9640  -42.0080   76.6550 O.2   392  GLN392     -0.2717
    104  NE2       63.1800  -43.6940   77.5000 N.am  392  GLN392     -0.0878
    105  N         58.9090  -45.2470   73.6230 N.am  393  LEU393     -0.1980
    106  CA        57.8210  -46.1400   74.0360 C.3   393  LEU393      0.1596
    107  C         57.6960  -47.3580   73.1240 C.2   393  LEU393      0.2287
    108  O         57.2940  -48.4290   73.5770 O.2   393  LEU393     -0.2864
    109  CB        56.4810  -45.3920   74.0920 C.3   393  LEU393      0.0297
    110  CG        56.3280  -44.3650   75.2210 C.3   393  LEU393      0.0022
    111  CD1       55.0360  -43.5700   75.0380 C.3   393  LEU393      0.0001
    112  CD2       56.3700  -45.0350   76.5980 C.3   393  LEU393      0.0001
    113  N         60.4580  -49.6280   74.3620 N.3   396  SER396     -0.1202
    114  CA        60.0670  -50.1430   75.6730 C.3   396  SER396      0.2020
    115  C         59.0450  -51.2710   75.5920 C.2   396  SER396      0.2618
    116  O         59.0780  -52.1950   76.4000 O.2   396  SER396     -0.2717
    117  CB        59.4990  -49.0180   76.5410 C.3   396  SER396      0.2103
    118  OG        60.4630  -48.0040   76.7550 O.3   396  SER396     -0.2182
    119  N         58.1390  -51.1930   74.6230 N.am  397  LYS397     -0.1979
    120  CA        57.0360  -52.1570   74.5130 C.3   397  LYS397      0.1596
    121  C         57.2960  -53.2960   73.5180 C.2   397  LYS397      0.2287
    122  O         56.7130  -54.3710   73.6510 O.2   397  LYS397     -0.2864
    123  CB        55.7420  -51.4150   74.1840 C.3   397  LYS397      0.0298
    124  CG        55.2210  -50.6180   75.3760 C.3   397  LYS397      0.0038
    125  CD        54.3170  -49.4740   74.9610 C.3   397  LYS397      0.0206
    126  CE        53.8230  -48.6940   76.1880 C.3   397  LYS397      0.1093
    127  NZ        52.6880  -47.7620   75.8760 N.3   397  LYS397     -0.1314
    128  N         68.9780  -48.1500   87.2250 N.3   457  ASP457     -0.1239
    129  CA        67.9820  -47.5800   86.3230 C.3   457  ASP457      0.1674
    130  C         68.1700  -48.2160   84.9500 C.2   457  ASP457      0.2266
    131  O         69.1680  -47.9560   84.2760 O.2   457  ASP457     -0.2867
    132  CB        68.1780  -46.0650   86.2380 C.3   457  ASP457      0.1410
    133  CG        67.1890  -45.3880   85.3190 C.2   457  ASP457      0.3668
    134  OD1       66.2180  -46.0400   84.8880 O.co2 457  ASP457     -0.2456
    135  OD2       67.3840  -44.1840   85.0370 O.co2 457  ASP457     -0.2456
    136  N         66.1680  -48.0100   82.1960 N.3   459  THR459     -0.1203
    137  CA        65.2710  -47.3890   81.2260 C.3   459  THR459      0.1994
    138  C         65.7990  -47.5750   79.8010 C.2   459  THR459      0.2619
    139  O         66.9780  -47.3370   79.5200 O.2   459  THR459     -0.2717
    140  CB        65.0860  -45.8810   81.5170 C.3   459  THR459      0.1784
    141  OG1       64.4450  -45.7140   82.7870 O.3   459  THR459     -0.2211
    142  CG2       64.2410  -45.2030   80.4440 C.3   459  THR459      0.0376
    143  N         64.9160  -48.0050   78.9080 N.am  460  THR460     -0.1938
    144  CA        65.2720  -48.2000   77.5100 C.3   460  THR460      0.2028
    145  C         65.1150  -46.8880   76.7460 C.2   460  THR460      0.2642
    146  O         64.2330  -46.0890   77.0460 O.2   460  THR460     -0.2714
    147  CB        64.4220  -49.3190   76.8860 C.3   460  THR460      0.1808
    148  OG1       64.8320  -50.5730   77.4450 O.3   460  THR460     -0.2208
    149  CG2       64.5870  -49.3650   75.3760 C.3   460  THR460      0.0379
    150  N         65.9960  -46.6670   75.7760 N.am  461  TYR461     -0.1973
    151  CA        65.9910  -45.4460   74.9810 C.3   461  TYR461      0.1639
    152  C         65.6370  -45.7310   73.5290 C.2   461  TYR461      0.2290
    153  O         65.7150  -46.8720   73.0740 O.2   461  TYR461     -0.2864
    154  CB        67.3520  -44.7670   75.0560 C.3   461  TYR461      0.0560
    155  CG        67.7960  -44.4340   76.4680 C.ar  461  TYR461     -0.0198
    156  CD1       66.9590  -43.7230   77.3390 C.ar  461  TYR461     -0.0009
    157  CD2       69.0600  -44.8030   76.9260 C.ar  461  TYR461     -0.0009
    158  CE1       67.3680  -43.4060   78.6230 C.ar  461  TYR461      0.0417
    159  CE2       69.4760  -44.4930   78.2100 C.ar  461  TYR461      0.0417
    160  CZ        68.6280  -43.7950   79.0540 C.ar  461  TYR461      0.1957
    161  OH        69.0420  -43.4830   80.3260 O.3   461  TYR461     -0.2866
@<TRIPOS>BOND
     1    96    97    1
     2   153   152    2
     3   107   108    2
     4   107   106    1
     5    97    98    1
     6    97   100    1
     7   121   122    2
     8   121   120    1
     9   152   151    1
    10   105    98   am
    11   105   106    1
    12    98    99    2
    13    40    39    1
    14   106   109    1
    15   109   110    1
    16   123   120    1
    17   123   124    1
    18   100   101    1
    19   113   114    1
    20   120   119    1
    21   119   115   am
    22    39    38   ar
    23    39    37   ar
    24    38    36   ar
    25   125   124    1
    26   125   126    1
    27   151   154    1
    28   151   150    1
    29   111   110    1
    30   154   155    1
    31    37    35   ar
    32   110   112    1
    33   149   147    1
    34   115   114    1
    35   115   116    2
    36    36    34   ar
    37   114   117    1
    38   101   102    1
    39   150   145   am
    40    35    34   ar
    41   127   126    1
    42    34    33    1
    43   155   157   ar
    44   155   156   ar
    45   117   118    1
    46   103   102    2
    47   102   104   am
    48   145   146    2
    49   145   144    1
    50    33    30    1
    51   147   148    1
    52   147   144    1
    53   157   159   ar
    54   156   158   ar
    55   144   143    1
    56    14    15    1
    57    14    11    1
    58    20    21    1
    59    12    13    2
    60    12    11    1
    61   159   160   ar
    62    15    16   ar
    63    15    17   ar
    64    16    18   ar
    65    30    31    1
    66    30    29    1
    67    32    31    2
    68    23    22    2
    69   158   160   ar
    70    11    10    1
    71    31    41   am
    72    17    19   ar
    73    22    29   am
    74    22    21    1
    75    18    19   ar
    76   143   138   am
    77   160   161    1
    78    21    24    1
    79    41    42    1
    80   139   138    2
    81    53    54    1
    82   138   137    1
    83    10     3   am
    84    42    43    1
    85    42    45    1
    86    44    43    2
    87    24    25    1
    88   142   140    1
    89    56    55    2
    90     4     3    2
    91    54    55    1
    92    54    57    1
    93     3     2    1
    94   137   140    1
    95   137   136    1
    96    47    49   ar
    97    47    46   ar
    98    45    46    1
    99   140   141    1
   100    25    26    1
   101    49    51   ar
   102    46    48   ar
   103    57    58    1
   104    26    27    1
   105     1     2    1
   106     2     5    1
   107    51    52    1
   108    51    50   ar
   109    48    50   ar
   110    27    28    1
   111     5     6    1
   112    58    59   ar
   113    58    60   ar
   114    67    68    1
   115    89    88    1
   116    59    61   ar
   117    63    60   ar
   118    63    65   ar
   119   131   130    2
   120    60    62   ar
   121    70    69    2
   122    73    72    2
   123     6     7    1
   124   134   133   ar
   125    88    85    1
   126   130   129    1
   127   135   133   ar
   128    68    69    1
   129    68    71    1
   130    61    62   ar
   131    65    66   ar
   132   133   132    1
   133    69    75   am
   134     7     8    1
   135    62    64   ar
   136    72    71    1
   137    72    74   am
   138     9     8    1
   139   132   129    1
   140    84    85    1
   141    84    77   am
   142    85    86    1
   143   129   128    1
   144    66    64   ar
   145    75    76    1
   146    77    76    1
   147    77    78    2
   148    76    79    1
   149    83    81   ar
   150    86    87    2
   151    86    90   am
   152    82    81   ar
   153    81    80    1
   154    90    91    1
   155    79    80    1
   156    91    94    1
   157    91    92    1
   158    94    95    1
   159    93    92    2
