@<TRIPOS>MOLECULE
tmp/2xqrE00.pdb
 127 125 0 0 0
SMALL
GASTEIGER

@<TRIPOS>ATOM
      1  N         79.0970  -32.9750   87.6530 N.3    18  ASN18      -0.1225
      2  CA        78.0220  -32.7300   86.6840 C.3    18  ASN18       0.1785
      3  C         78.5100  -31.9060   85.4740 C.2    18  ASN18       0.2597
      4  O         79.4200  -32.3400   84.7790 O.2    18  ASN18      -0.2718
      5  CB        76.7090  -32.2130   87.3380 C.3    18  ASN18       0.1169
      6  CG        76.9050  -30.9920   88.2370 C.2    18  ASN18       0.2627
      7  OD1       77.7080  -31.0100   89.1740 O.2    18  ASN18      -0.2716
      8  ND2       76.1270  -29.9410   87.9810 N.am   18  ASN18      -0.0877
      9  N         77.9400  -30.7260   85.2460 N.am   19  ASP19      -0.1974
     10  CA        78.0900  -30.0020   83.9730 C.3    19  ASP19       0.1709
     11  C         79.5300  -29.7580   83.5220 C.2    19  ASP19       0.2293
     12  O         80.3940  -29.4550   84.3490 O.2    19  ASP19      -0.2864
     13  CB        77.4430  -28.6140   84.0510 C.3    19  ASP19       0.1436
     14  CG        76.0370  -28.6290   84.6170 C.2    19  ASP19       0.3671
     15  OD1       75.4990  -27.5180   84.7950 O.co2  19  ASP19      -0.2456
     16  OD2       75.4800  -29.7140   84.8840 O.co2  19  ASP19      -0.2456
     17  N         81.7740  -28.9420   86.8760 N.3    35  GLN35      -0.1245
     18  CA        81.1890  -28.7990   88.2070 C.3    35  GLN35       0.1566
     19  C         81.5740  -30.0100   89.0470 C.2    35  GLN35       0.2260
     20  O         81.2150  -31.1380   88.7090 O.2    35  GLN35      -0.2867
     21  CB        79.6640  -28.6960   88.1170 C.3    35  GLN35       0.0367
     22  CG        79.1500  -27.5040   87.3190 C.3    35  GLN35       0.0905
     23  CD        79.1560  -26.2160   88.1130 C.2    35  GLN35       0.2608
     24  OE1       78.2150  -25.9360   88.8510 O.2    35  GLN35      -0.2717
     25  NE2       80.2060  -25.4150   87.9560 N.am   35  GLN35      -0.0878
     26  N         75.7370  -34.3310   94.4600 N.3    43  TRP43      -0.1241
     27  CA        75.8150  -32.9010   94.1710 C.3    43  TRP43       0.1605
     28  C         75.9390  -32.0740   95.4520 C.2    43  TRP43       0.2264
     29  O         75.2780  -32.3580   96.4480 O.2    43  TRP43      -0.2867
     30  CB        74.5790  -32.4570   93.3890 C.3    43  TRP43       0.0550
     31  CG        74.6180  -31.0220   92.9640 C.ar   43  TRP43       0.0003
     32  CD1       75.1890  -30.5170   91.8350 C.ar   43  TRP43       0.0946
     33  CD2       74.0560  -29.9070   93.6620 C.ar   43  TRP43       0.0152
     34  NE1       75.0190  -29.1570   91.7850 N.ar   43  TRP43      -0.2442
     35  CE2       74.3250  -28.7550   92.8940 C.ar   43  TRP43       0.0810
     36  CE3       73.3520  -29.7700   94.8650 C.ar   43  TRP43       0.0012
     37  CZ2       73.9150  -27.4820   93.2850 C.ar   43  TRP43       0.0191
     38  CZ3       72.9420  -28.5030   95.2540 C.ar   43  TRP43       0.0001
     39  CH2       73.2250  -27.3760   94.4650 C.ar   43  TRP43       0.0015
     40  N         79.8150  -27.2110   95.1500 N.3    46  ILE46      -0.1245
     41  CA        80.3100  -27.2360   93.7760 C.3    46  ILE46       0.1561
     42  C         81.3750  -26.1720   93.4990 C.2    46  ILE46       0.2260
     43  O         81.1730  -24.9890   93.7660 O.2    46  ILE46      -0.2867
     44  CB        79.1640  -27.1140   92.7410 C.3    46  ILE46       0.0252
     45  CG1       78.8240  -28.4830   92.1560 C.3    46  ILE46       0.0019
     46  CG2       79.5730  -26.2150   91.5830 C.3    46  ILE46       0.0019
     47  CD1       78.1350  -29.3950   93.0890 C.3    46  ILE46       0.0001
     48  N         78.8010  -22.0170   90.1600 N.3    78  TRP78      -0.1227
     49  CA        77.9240  -22.7910   89.2880 C.3    78  TRP78       0.1737
     50  C         78.3220  -22.5930   87.8200 C.2    78  TRP78       0.2596
     51  O         79.3420  -21.9620   87.5400 O.2    78  TRP78      -0.2718
     52  CB        76.4620  -22.4300   89.5770 C.3    78  TRP78       0.0564
     53  CG        75.9530  -23.0160   90.8790 C.ar   78  TRP78       0.0003
     54  CD1       76.7080  -23.4810   91.9310 C.ar   78  TRP78       0.0946
     55  CD2       74.5850  -23.1720   91.2760 C.ar   78  TRP78       0.0152
     56  NE1       75.8920  -23.9240   92.9410 N.ar   78  TRP78      -0.2442
     57  CE2       74.5860  -23.7460   92.5680 C.ar   78  TRP78       0.0810
     58  CE3       73.3600  -22.8870   90.6670 C.ar   78  TRP78       0.0012
     59  CZ2       73.4060  -24.0430   93.2570 C.ar   78  TRP78       0.0191
     60  CZ3       72.1910  -23.1840   91.3510 C.ar   78  TRP78       0.0001
     61  CH2       72.2220  -23.7550   92.6320 C.ar   78  TRP78       0.0015
     62  N         77.5410  -23.1480   86.8930 N.am   79  SER79      -0.1952
     63  CA        77.9710  -23.2720   85.4890 C.3    79  SER79       0.1924
     64  C         78.0980  -21.9570   84.7180 C.2    79  SER79       0.2314
     65  O         77.6040  -20.9050   85.1300 O.2    79  SER79      -0.2863
     66  CB        77.0600  -24.2400   84.7260 C.3    79  SER79       0.2116
     67  OG        77.3350  -25.5840   85.0880 O.3    79  SER79      -0.2180
     68  N         70.6620  -18.4590   85.8890 N.3   144  ARG144     -0.1231
     69  CA        72.0020  -19.0400   85.8280 C.3   144  ARG144      0.1694
     70  C         72.4380  -19.5090   84.4310 C.2   144  ARG144      0.2592
     71  O         71.6570  -19.4970   83.4820 O.2   144  ARG144     -0.2718
     72  CB        72.0860  -20.2110   86.8160 C.3   144  ARG144      0.0321
     73  CG        71.0190  -21.2820   86.6160 C.3   144  ARG144      0.0489
     74  CD        71.1310  -22.3590   87.6830 C.3   144  ARG144      0.2205
     75  NE        70.0970  -23.3880   87.5650 N.pl3 144  ARG144     -0.0865
     76  CZ        68.8400  -23.2600   87.9820 C.cat 144  ARG144      0.5346
     77  NH1       68.4180  -22.1330   88.5430 N.pl3 144  ARG144      0.1354
     78  NH2       67.9900  -24.2670   87.8290 N.pl3 144  ARG144      0.1354
     79  N         73.7050  -19.9140   84.3420 N.am  145  ASP145     -0.1974
     80  CA        74.2990  -20.5490   83.1580 C.3   145  ASP145      0.1709
     81  C         74.4890  -19.6010   81.9590 C.2   145  ASP145      0.2293
     82  O         73.8180  -19.7450   80.9350 O.2   145  ASP145     -0.2864
     83  CB        73.4980  -21.7950   82.7550 C.3   145  ASP145      0.1436
     84  CG        73.3010  -22.7700   83.9100 C.2   145  ASP145      0.3671
     85  OD1       74.1040  -22.7390   84.8660 O.co2 145  ASP145     -0.2456
     86  OD2       72.3380  -23.5720   83.8620 O.co2 145  ASP145     -0.2456
     87  N         67.8090  -24.4050   81.7430 N.3   199  GLU199     -0.1231
     88  CA        69.1840  -24.5280   82.2110 C.3   199  GLU199      0.1699
     89  C         70.1310  -24.5660   81.0110 C.2   199  GLU199      0.2592
     90  O         69.7160  -24.8970   79.9000 O.2   199  GLU199     -0.2718
     91  CB        69.3570  -25.7840   83.0770 C.3   199  GLU199      0.0402
     92  CG        68.5580  -25.7600   84.3750 C.3   199  GLU199      0.1161
     93  CD        69.0930  -26.7300   85.4280 C.2   199  GLU199      0.3649
     94  OE1       69.6130  -26.2570   86.4590 O.co2 199  GLU199     -0.2457
     95  OE2       69.0020  -27.9620   85.2350 O.co2 199  GLU199     -0.2457
     96  N         71.3920  -24.2100   81.2490 N.am  200  CYS200     -0.1970
     97  CA        72.4750  -24.3670   80.2740 C.3   200  CYS200      0.1712
     98  C         72.0680  -24.0350   78.8400 C.2   200  CYS200      0.2296
     99  O         72.0970  -24.9040   77.9680 O.2   200  CYS200     -0.2864
    100  CB        73.0310  -25.7920   80.3270 C.3   200  CYS200      0.0983
    101  SG        73.7460  -26.2370   81.9080 S.3   200  CYS200     -0.0798
    102  N         73.0560  -34.5440   79.4530 N.3   275  TYR275     -0.1241
    103  CA        72.5380  -33.2830   80.0110 C.3   275  TYR275      0.1605
    104  C         73.5780  -32.1720   80.0860 C.2   275  TYR275      0.2264
    105  O         74.7770  -32.4290   80.0650 O.2   275  TYR275     -0.2867
    106  CB        71.9590  -33.5170   81.4170 C.3   275  TYR275      0.0534
    107  CG        70.9560  -32.4590   81.8370 C.ar  275  TYR275     -0.0201
    108  CD1       69.6650  -32.4700   81.3300 C.ar  275  TYR275     -0.0009
    109  CD2       71.3040  -31.4410   82.7260 C.ar  275  TYR275     -0.0009
    110  CE1       68.7390  -31.5040   81.6940 C.ar  275  TYR275      0.0417
    111  CE2       70.3790  -30.4610   83.0980 C.ar  275  TYR275      0.0417
    112  CZ        69.0970  -30.5040   82.5780 C.ar  275  TYR275      0.1957
    113  OH        68.1690  -29.5490   82.9180 O.3   275  TYR275     -0.2866
    114  N         77.3000  -34.0200   79.6800 N.3   293  TRP293     -0.1241
    115  CA        77.3720  -34.6830   80.9830 C.3   293  TRP293      0.1605
    116  C         76.3810  -35.8410   81.0560 C.2   293  TRP293      0.2264
    117  O         75.1770  -35.6430   80.8980 O.2   293  TRP293     -0.2867
    118  CB        77.0990  -33.6810   82.1210 C.3   293  TRP293      0.0550
    119  CG        76.7300  -34.3280   83.4420 C.ar  293  TRP293      0.0003
    120  CD1       77.3890  -35.3470   84.0630 C.ar  293  TRP293      0.0946
    121  CD2       75.6180  -33.9940   84.2880 C.ar  293  TRP293      0.0152
    122  NE1       76.7560  -35.6760   85.2400 N.ar  293  TRP293     -0.2442
    123  CE2       75.6690  -34.8590   85.4050 C.ar  293  TRP293      0.0810
    124  CE3       74.5870  -33.0490   84.2130 C.ar  293  TRP293      0.0012
    125  CZ2       74.7320  -34.8050   86.4430 C.ar  293  TRP293      0.0191
    126  CZ3       73.6450  -32.9980   85.2460 C.ar  293  TRP293      0.0001
    127  CH2       73.7270  -33.8750   86.3440 C.ar  293  TRP293      0.0015
@<TRIPOS>BOND
     1    99    98    2
     2    98    97    1
     3   102   103    1
     4   114   115    1
     5    90    89    2
     6   103   104    1
     7   103   106    1
     8   105   104    2
     9    97   100    1
    10    97    96    1
    11   100   101    1
    12   117   116    2
    13    82    81    2
    14   115   116    1
    15   115   118    1
    16    89    96   am
    17    89    88    1
    18   108   110   ar
    19   108   107   ar
    20   106   107    1
    21   110   112   ar
    22    87    88    1
    23   107   109   ar
    24    81    80    1
    25   118   119    1
    26    88    91    1
    27   112   113    1
    28   112   111   ar
    29   109   111   ar
    30    83    80    1
    31    83    84    1
    32    91    92    1
    33    80    79    1
    34   119   120   ar
    35   119   121   ar
    36    71    70    2
    37    11    10    1
    38    11    12    2
    39    86    84   ar
    40    84    85   ar
    41    10    13    1
    42    10     9    1
    43    13    14    1
    44   120   122   ar
    45   124   121   ar
    46   124   126   ar
    47   121   123   ar
    48    79    70   am
    49    92    93    1
    50    70    69    1
    51    14    15   ar
    52    14    16   ar
    53    64    65    2
    54    64    63    1
    55    66    67    1
    56    66    63    1
    57     4     3    2
    58    95    93   ar
    59   122   123   ar
    60     9     3   am
    61   126   127   ar
    62   123   125   ar
    63    93    94   ar
    64     3     2    1
    65    63    62    1
    66    69    68    1
    67    69    72    1
    68   127   125   ar
    69    73    72    1
    70    73    74    1
    71     2     5    1
    72     2     1    1
    73    17    18    1
    74    62    50   am
    75    22    23    1
    76    22    21    1
    77     5     6    1
    78    51    50    2
    79    75    74    1
    80    75    76    2
    81    50    49    1
    82    78    76    1
    83    25    23   am
    84     8     6   am
    85    76    77    1
    86    23    24    2
    87    21    18    1
    88    18    19    1
    89     6     7    2
    90    20    19    2
    91    49    52    1
    92    49    48    1
    93    52    53    1
    94    58    55   ar
    95    58    60   ar
    96    53    55   ar
    97    53    54   ar
    98    55    57   ar
    99    60    61   ar
   100    46    44    1
   101    34    32   ar
   102    34    35   ar
   103    32    31   ar
   104    54    56   ar
   105    45    44    1
   106    45    47    1
   107    57    56   ar
   108    57    59   ar
   109    61    59   ar
   110    44    41    1
   111    35    37   ar
   112    35    33   ar
   113    31    30    1
   114    31    33   ar
   115    37    39   ar
   116    30    27    1
   117    42    43    2
   118    42    41    1
   119    33    36   ar
   120    41    40    1
   121    27    26    1
   122    27    28    1
   123    39    38   ar
   124    36    38   ar
   125    28    29    2
