@<TRIPOS>MOLECULE
tmp/2xqyA01.pdb
 84 83 0 0 0
SMALL
GASTEIGER

@<TRIPOS>ATOM
      1  N        -66.6440   25.7220  -51.2200 N.3   393  GLN393     -0.1231
      2  CA       -66.9590   25.4350  -49.8170 C.3   393  GLN393      0.1698
      3  C        -65.9750   26.1310  -48.8740 C.2   393  GLN393      0.2592
      4  O        -64.8120   26.3300  -49.2330 O.2   393  GLN393     -0.2718
      5  CB       -66.9330   23.9160  -49.5600 C.3   393  GLN393      0.0381
      6  CG       -68.1950   23.1780  -50.0000 C.3   393  GLN393      0.0905
      7  CD       -68.0330   21.6790  -49.9550 C.2   393  GLN393      0.2608
      8  OE1      -67.8330   21.0780  -48.8930 O.2   393  GLN393     -0.2717
      9  NE2      -68.1420   21.0390  -51.1100 N.am  393  GLN393     -0.0878
     10  N        -66.4490   26.4980  -47.6660 N.am  394  HIS394     -0.1976
     11  CA       -65.6180   27.0570  -46.5950 C.3   394  HIS394      0.1656
     12  C        -65.0760   25.9500  -45.6800 C.2   394  HIS394      0.2291
     13  O        -65.5010   24.8000  -45.7990 O.2   394  HIS394     -0.2864
     14  CB       -66.4060   28.0950  -45.7830 C.3   394  HIS394      0.0771
     15  CG       -66.5690   29.4060  -46.4830 C.ar  394  HIS394      0.0820
     16  ND1      -65.5440   30.3350  -46.5210 N.ar  394  HIS394     -0.2267
     17  CD2      -67.6400   29.9060  -47.1400 C.ar  394  HIS394      0.1154
     18  CE1      -66.0210   31.3640  -47.2030 C.ar  394  HIS394      0.1986
     19  NE2      -67.2770   31.1510  -47.5970 N.ar  394  HIS394     -0.2212
     20  N        -64.9520   24.1170  -42.1950 N.3   396  PRO396     -0.2116
     21  CA       -65.5350   23.9350  -40.8540 C.3   396  PRO396      0.1372
     22  C        -64.6310   23.2000  -39.8560 C.2   396  PRO396      0.2244
     23  O        -63.9020   22.2820  -40.2440 O.2   396  PRO396     -0.2868
     24  CB       -66.8220   23.1550  -41.1380 C.3   396  PRO396      0.0268
     25  CG       -66.5650   22.4280  -42.4370 C.3   396  PRO396      0.0207
     26  CD       -65.3360   23.0070  -43.0920 C.3   396  PRO396      0.0892
     27  N        -59.1450   16.1690  -39.1740 N.3   405  VAL405     -0.1231
     28  CA       -60.0210   15.9900  -40.3440 C.3   405  VAL405      0.1692
     29  C        -59.3250   16.2590  -41.6800 C.2   405  VAL405      0.2592
     30  O        -59.5770   15.5480  -42.6540 O.2   405  VAL405     -0.2718
     31  CB       -61.4050   16.6920  -40.2430 C.3   405  VAL405      0.0266
     32  CG1      -62.3340   15.9420  -39.2960 C.3   405  VAL405      0.0020
     33  CG2      -61.2810   18.1650  -39.8480 C.3   405  VAL405      0.0020
     34  N        -58.4550   17.2820  -41.7190 N.am  406  TYR406     -0.1976
     35  CA       -57.6990   17.6660  -42.9090 C.3   406  TYR406      0.1639
     36  C        -56.3280   16.9850  -43.0160 C.2   406  TYR406      0.2290
     37  O        -55.5500   17.3430  -43.8980 O.2   406  TYR406     -0.2864
     38  CB       -57.5780   19.1940  -43.0050 C.3   406  TYR406      0.0560
     39  CG       -58.8810   19.8830  -43.3400 C.ar  406  TYR406     -0.0198
     40  CD1      -59.6960   20.4040  -42.3400 C.ar  406  TYR406     -0.0009
     41  CD2      -59.2960   20.0260  -44.6600 C.ar  406  TYR406     -0.0009
     42  CE1      -60.8950   21.0480  -42.6450 C.ar  406  TYR406      0.0417
     43  CE2      -60.4930   20.6670  -44.9770 C.ar  406  TYR406      0.0417
     44  CZ       -61.2870   21.1810  -43.9670 C.ar  406  TYR406      0.1957
     45  OH       -62.4630   21.8130  -44.2890 O.3   406  TYR406     -0.2866
     46  N        -54.6660   15.4170  -46.4460 N.3   409  CYS409     -0.1235
     47  CA       -55.1370   16.3120  -47.5040 C.3   409  CYS409      0.1677
     48  C        -53.9890   17.1090  -48.0860 C.2   409  CYS409      0.2270
     49  O        -53.0260   17.4080  -47.3780 O.2   409  CYS409     -0.2867
     50  CB       -56.2420   17.2420  -47.0070 C.3   409  CYS409      0.0956
     51  SG       -57.8310   16.4310  -46.7200 S.3   409  CYS409     -0.0801
     52  N        -58.5980   15.7590  -51.1900 N.3   456  PHE456     -0.1228
     53  CA       -58.8300   14.7500  -50.1610 C.3   456  PHE456      0.1721
     54  C        -58.3310   13.3940  -50.6500 C.2   456  PHE456      0.2437
     55  O        -58.1780   13.2250  -51.8570 O.2   456  PHE456     -0.2733
     56  CB       -60.3420   14.6730  -49.8550 C.3   456  PHE456      0.0547
     57  CG       -60.8850   15.8540  -49.0940 C.ar  456  PHE456     -0.0202
     58  CD1      -61.0730   15.7850  -47.7200 C.ar  456  PHE456     -0.0042
     59  CD2      -61.1940   17.0420  -49.7480 C.ar  456  PHE456     -0.0042
     60  CE1      -61.5480   16.8870  -47.0080 C.ar  456  PHE456     -0.0003
     61  CE2      -61.6750   18.1420  -49.0380 C.ar  456  PHE456     -0.0003
     62  CZ       -61.8550   18.0550  -47.6730 C.ar  456  PHE456     -0.0000
     63  N        -58.0540   12.4050  -49.7750 N.am  457  PRO457     -0.2718
     64  CA       -57.9580   11.0150  -50.2660 C.3   457  PRO457      0.1535
     65  C        -59.2860   10.4620  -50.8410 C.2   457  PRO457      0.2598
     66  O        -59.6460    9.3130  -50.5820 O.2   457  PRO457     -0.2715
     67  CB       -57.4360   10.2400  -49.0490 C.3   457  PRO457      0.0310
     68  CG       -56.9040   11.2820  -48.1040 C.3   457  PRO457      0.0237
     69  CD       -57.7340   12.4940  -48.3370 C.3   457  PRO457      0.0939
     70  N        -60.0290   11.3180  -51.6070 N.am  458  ASN458     -0.1973
     71  CA       -61.2250   11.0320  -52.4160 C.3   458  ASN458      0.1688
     72  C        -61.4960   12.0890  -53.5400 C.2   458  ASN458      0.2292
     73  O        -61.1540   11.8380  -54.6970 O.2   458  ASN458     -0.2864
     74  CB       -62.4780   10.6490  -51.5580 C.3   458  ASN458      0.1181
     75  CG       -63.1350   11.6960  -50.6630 C.2   458  ASN458      0.2629
     76  OD1      -62.8960   12.9010  -50.7600 O.2   458  ASN458     -0.2716
     77  ND2      -64.0320   11.2400  -49.7870 N.am  458  ASN458     -0.0877
     78  N        -62.2980   20.1220  -53.4110 N.3   461  VAL461     -0.1245
     79  CA       -63.0700   21.3370  -53.1170 C.3   461  VAL461      0.1561
     80  C        -62.2630   22.6090  -53.4100 C.2   461  VAL461      0.2260
     81  O        -61.0510   22.6030  -53.2300 O.2   461  VAL461     -0.2867
     82  CB       -63.7650   21.3470  -51.7220 C.3   461  VAL461      0.0252
     83  CG1      -64.7230   20.1720  -51.5670 C.3   461  VAL461      0.0019
     84  CG2      -62.7630   21.3700  -50.5800 C.3   461  VAL461      0.0019
@<TRIPOS>BOND
     1    73    72    2
     2    72    71    1
     3    78    79    1
     4    80    81    2
     5    80    79    1
     6    79    82    1
     7    71    70    1
     8    71    74    1
     9    55    54    2
    10    82    83    1
    11    82    84    1
    12    70    65   am
    13    74    75    1
    14     1     2    1
    15    52    53    1
    16     9     7   am
    17    65    66    2
    18    65    64    1
    19    76    75    2
    20    75    77   am
    21    54    53    1
    22    54    63   am
    23    64    63    1
    24    64    67    1
    25    53    56    1
    26     6     7    1
    27     6     5    1
    28     7     8    2
    29    56    57    1
    30     2     5    1
    31     2     3    1
    32    63    69    1
    33    59    57   ar
    34    59    61   ar
    35     4     3    2
    36    57    58   ar
    37    67    68    1
    38    61    62   ar
    39     3    10   am
    40    69    68    1
    41    48    47    1
    42    48    49    2
    43    58    60   ar
    44    62    60   ar
    45    10    11    1
    46    19    18   ar
    47    19    17   ar
    48    47    50    1
    49    47    46    1
    50    18    16   ar
    51    17    15   ar
    52    50    51    1
    53    11    14    1
    54    11    12    1
    55    16    15   ar
    56    15    14    1
    57    13    12    2
    58    43    41   ar
    59    43    44   ar
    60    41    39   ar
    61    45    44    1
    62    44    42   ar
    63    37    36    2
    64    39    38    1
    65    39    40   ar
    66    26    25    1
    67    26    20    1
    68    36    35    1
    69    38    35    1
    70    35    34    1
    71    30    29    2
    72    42    40   ar
    73    25    24    1
    74    20    21    1
    75    34    29   am
    76    29    28    1
    77    24    21    1
    78    21    22    1
    79    28    31    1
    80    28    27    1
    81    23    22    2
    82    31    33    1
    83    31    32    1
