@<TRIPOS>MOLECULE
tmp/2xr7A00.pdb
 118 116 0 0 0
SMALL
GASTEIGER

@<TRIPOS>ATOM
      1  N         -5.3840   -2.3320   10.0260 N.3   246  LYS246     -0.1245
      2  CA        -5.2350   -0.9790   10.5870 C.3   246  LYS246      0.1561
      3  C         -4.8370    0.0250    9.4980 C.2   246  LYS246      0.2260
      4  O         -5.4200    1.1190    9.3750 O.2   246  LYS246     -0.2867
      5  CB        -4.1800   -0.9590   11.6910 C.3   246  LYS246      0.0271
      6  CG        -4.6540   -1.4530   13.0150 C.3   246  LYS246      0.0035
      7  CD        -3.5050   -1.5200   13.9880 C.3   246  LYS246      0.0206
      8  CE        -3.8000   -2.4690   15.1300 C.3   246  LYS246      0.1093
      9  NZ        -2.9520   -2.1450   16.2980 N.3   246  LYS246     -0.1314
     10  N        -10.2570    5.0070   17.7210 N.3   258  HIS258     -0.1226
     11  CA       -10.3410    3.6410   18.2440 C.3   258  HIS258      0.1752
     12  C        -10.2450    2.5450   17.1630 C.2   258  HIS258      0.2596
     13  O        -11.2660    2.0090   16.6950 O.2   258  HIS258     -0.2718
     14  CB       -11.6100    3.4670   19.0980 C.3   258  HIS258      0.0759
     15  CG       -11.5030    2.3690   20.1130 C.ar  258  HIS258      0.0818
     16  ND1      -11.3090    2.6110   21.4580 N.ar  258  HIS258     -0.2268
     17  CD2      -11.5380    1.0200   19.9750 C.ar  258  HIS258      0.1154
     18  CE1      -11.2400    1.4590   22.1050 C.ar  258  HIS258      0.1986
     19  NE2      -11.3770    0.4780   21.2290 N.ar  258  HIS258     -0.2212
     20  N         -9.0040    2.2200   16.7900 N.am  259  VAL259     -0.1966
     21  CA        -8.6960    1.2140   15.7610 C.3   259  VAL259      0.1727
     22  C         -7.6240    0.2840   16.3160 C.2   259  VAL259      0.2617
     23  O         -6.4640    0.3160   15.8800 O.2   259  VAL259     -0.2715
     24  CB        -8.1590    1.8800   14.4790 C.3   259  VAL259      0.0290
     25  CG1       -7.8570    0.8580   13.4130 C.3   259  VAL259      0.0023
     26  CG2       -9.1420    2.8940   13.9630 C.3   259  VAL259      0.0023
     27  N         -8.0040   -0.5230   17.2970 N.am  260  THR260     -0.1937
     28  CA        -7.0640   -1.4220   17.9260 C.3   260  THR260      0.2028
     29  C         -7.1710   -2.7890   17.2730 C.2   260  THR260      0.2643
     30  O         -8.1630   -3.0880   16.6120 O.2   260  THR260     -0.2714
     31  CB        -7.3150   -1.5110   19.4390 C.3   260  THR260      0.1808
     32  OG1       -8.5640   -2.1470   19.6740 O.3   260  THR260     -0.2208
     33  CG2       -7.3850   -0.1280   20.0480 C.3   260  THR260      0.0379
     34  N         -6.1420   -3.6100   17.4580 N.am  261  SER261     -0.1935
     35  CA        -6.0940   -4.9760   16.9130 C.3   261  SER261      0.2055
     36  C         -7.4110   -5.6910   17.0770 C.2   261  SER261      0.2643
     37  O         -7.9860   -6.1730   16.1050 O.2   261  SER261     -0.2714
     38  CB        -4.9940   -5.7720   17.5990 C.3   261  SER261      0.2130
     39  OG        -3.8820   -4.9230   17.8800 O.3   261  SER261     -0.2179
     40  N         -7.8880   -5.7170   18.3140 N.am  262  PHE262     -0.1959
     41  CA        -9.1750   -6.2600   18.6570 C.3   262  PHE262      0.1771
     42  C        -10.2480   -5.7960   17.7170 C.2   262  PHE262      0.2620
     43  O        -11.0120   -6.6090   17.1830 O.2   262  PHE262     -0.2715
     44  CB        -9.5690   -5.7910   20.0390 C.3   262  PHE262      0.0574
     45  CG       -10.9330   -6.2210   20.4440 C.ar  262  PHE262     -0.0200
     46  CD1      -11.1260   -7.4430   21.0830 C.ar  262  PHE262     -0.0042
     47  CD2      -12.0290   -5.4180   20.1870 C.ar  262  PHE262     -0.0042
     48  CE1      -12.4030   -7.8610   21.4610 C.ar  262  PHE262     -0.0003
     49  CE2      -13.3020   -5.8230   20.5510 C.ar  262  PHE262     -0.0003
     50  CZ       -13.4950   -7.0500   21.1910 C.ar  262  PHE262     -0.0000
     51  N        -10.3370   -4.4870   17.5240 N.am  263  THR263     -0.1951
     52  CA       -11.4620   -3.9830   16.7660 C.3   263  THR263      0.1897
     53  C        -11.3090   -4.2020   15.2800 C.2   263  THR263      0.2313
     54  O        -12.3050   -4.2250   14.5940 O.2   263  THR263     -0.2863
     55  CB       -11.7870   -2.5200   17.0250 C.3   263  THR263      0.1794
     56  OG1      -11.1150   -1.7300   16.0550 O.3   263  THR263     -0.2208
     57  CG2      -11.3450   -2.0990   18.4000 C.3   263  THR263      0.0378
     58  N        -19.8290   -7.7940   23.0420 N.3   293  CYS293     -0.1221
     59  CA       -18.6370   -8.2620   23.7370 C.3   293  CYS293      0.1808
     60  C        -18.6570   -7.7740   25.1620 C.2   293  CYS293      0.2601
     61  O        -19.3230   -6.7800   25.4750 O.2   293  CYS293     -0.2717
     62  CB       -17.4000   -7.6860   23.0830 C.3   293  CYS293      0.0970
     63  SG       -17.3670   -5.8710   23.2570 S.3   293  CYS293     -0.0800
     64  N        -17.8970   -8.4530   26.0140 N.am  294  ALA294     -0.1965
     65  CA       -17.8270   -8.0780   27.4140 C.3   294  ALA294      0.1728
     66  C        -16.5230   -7.3410   27.7340 C.2   294  ALA294      0.2616
     67  O        -15.4190   -7.8400   27.4770 O.2   294  ALA294     -0.2715
     68  CB       -17.9970   -9.2880   28.2990 C.3   294  ALA294      0.0334
     69  N        -16.6730   -6.1370   28.2830 N.am  295  ALA295     -0.1963
     70  CA       -15.5660   -5.3820   28.8390 C.3   295  ALA295      0.1728
     71  C        -15.0670   -6.0400   30.1240 C.2   295  ALA295      0.2616
     72  O        -15.5540   -7.0920   30.5340 O.2   295  ALA295     -0.2715
     73  CB       -16.0220   -3.9850   29.1380 C.3   295  ALA295      0.0334
     74  N        -14.0880   -5.4130   30.7550 N.am  296  ASP296     -0.1971
     75  CA       -13.6760   -5.7940   32.0760 C.3   296  ASP296      0.1709
     76  C        -13.5100   -4.4720   32.8010 C.2   296  ASP296      0.2293
     77  O        -12.7090   -3.6250   32.3800 O.2   296  ASP296     -0.2864
     78  CB       -12.3720   -6.5610   31.9870 C.3   296  ASP296      0.1436
     79  CG       -11.8400   -7.0110   33.3520 C.2   296  ASP296      0.3671
     80  OD1      -11.3310   -8.1630   33.4380 O.co2 296  ASP296     -0.2456
     81  OD2      -11.8860   -6.2180   34.3220 O.co2 296  ASP296     -0.2456
     82  N        -20.8730   -4.5220   25.5590 N.3   317  TYR317     -0.1241
     83  CA       -20.9980   -3.4690   24.5640 C.3   317  TYR317      0.1605
     84  C        -21.6530   -4.0790   23.3570 C.2   317  TYR317      0.2264
     85  O        -21.3390   -5.2150   22.9850 O.2   317  TYR317     -0.2867
     86  CB       -19.6350   -2.9430   24.1520 C.3   317  TYR317      0.0534
     87  CG       -18.8400   -2.3560   25.2820 C.ar  317  TYR317     -0.0201
     88  CD1      -19.4220   -1.4590   26.1670 C.ar  317  TYR317     -0.0009
     89  CD2      -17.4940   -2.6850   25.4640 C.ar  317  TYR317     -0.0009
     90  CE1      -18.6900   -0.9090   27.2130 C.ar  317  TYR317      0.0417
     91  CE2      -16.7550   -2.1350   26.5070 C.ar  317  TYR317      0.0417
     92  CZ       -17.3650   -1.2470   27.3770 C.ar  317  TYR317      0.1957
     93  OH       -16.6670   -0.6910   28.4190 O.3   317  TYR317     -0.2866
     94  N        -17.2810    0.9710   21.8610 N.3   343  ILE343     -0.1245
     95  CA       -16.3350    1.0620   22.9700 C.3   343  ILE343      0.1561
     96  C        -15.9950    2.5150   23.3380 C.2   343  ILE343      0.2260
     97  O        -16.1330    2.9150   24.4920 O.2   343  ILE343     -0.2867
     98  CB       -15.0270    0.3300   22.6430 C.3   343  ILE343      0.0252
     99  CG1      -15.3110   -1.0140   21.9740 C.3   343  ILE343      0.0019
    100  CG2      -14.1960    0.1490   23.9010 C.3   343  ILE343      0.0019
    101  CD1      -14.1190   -1.6050   21.2290 C.3   343  ILE343      0.0001
    102  N        -13.3030  -14.6720   24.5600 N.3   374  GLY374     -0.1210
    103  CA       -12.1080  -14.2270   25.2880 C.3   374  GLY374      0.1956
    104  C        -11.6680  -12.7710   25.1400 C.2   374  GLY374      0.2613
    105  O        -12.4940  -11.8500   25.1140 O.2   374  GLY374     -0.2717
    106  N        -10.3470  -12.5930   25.0550 N.am  375  SER375     -0.1938
    107  CA        -9.6760  -11.2940   24.9520 C.3   375  SER375      0.2040
    108  C         -8.2070  -11.5240   24.6120 C.2   375  SER375      0.2485
    109  O         -7.6060  -12.4820   25.1040 O.2   375  SER375     -0.2729
    110  CB        -9.7680  -10.5230   26.2740 C.3   375  SER375      0.2129
    111  OG        -8.7510   -9.5370   26.3810 O.3   375  SER375     -0.2179
    112  N         -7.6150  -10.6380   23.7900 N.am  376  PRO376     -0.2726
    113  CA        -6.1840  -10.7320   23.4870 C.3   376  PRO376      0.1402
    114  C         -5.3280  -10.7860   24.7630 C.2   376  PRO376      0.2269
    115  O         -4.3810  -11.5720   24.8370 O.2   376  PRO376     -0.2865
    116  CB        -5.8990   -9.4350   22.7040 C.3   376  PRO376      0.0296
    117  CG        -7.0270   -8.4970   23.0560 C.3   376  PRO376      0.0237
    118  CD        -8.2120   -9.4230   23.2040 C.3   376  PRO376      0.0939
@<TRIPOS>BOND
     1     4     3    2
     2     3     2    1
     3     1     2    1
     4     2     5    1
     5     5     6    1
     6     6     7    1
     7    25    24    1
     8    26    24    1
     9     7     8    1
    10    24    21    1
    11    54    53    2
    12     8     9    1
    13    53    52    1
    14    21    22    1
    15    21    20    1
    16    23    22    2
    17    56    55    1
    18    37    36    2
    19    22    27   am
    20    30    29    2
    21    13    12    2
    22    52    55    1
    23    52    51    1
    24    20    12   am
    25    35    36    1
    26    35    34    1
    27    35    38    1
    28    55    57    1
    29    36    40   am
    30    12    11    1
    31    43    42    2
    32    29    34   am
    33    29    28    1
    34    27    28    1
    35    51    42   am
    36    38    39    1
    37    42    41    1
    38    10    11    1
    39    28    31    1
    40    11    14    1
    41    40    41    1
    42    41    44    1
    43    14    15    1
    44    31    32    1
    45    31    33    1
    46    17    15   ar
    47    17    19   ar
    48    44    45    1
    49    15    16   ar
    50    47    45   ar
    51    47    49   ar
    52    45    46   ar
    53    49    50   ar
    54    46    48   ar
    55    50    48   ar
    56   101    99    1
    57    19    18   ar
    58    16    18   ar
    59    94    95    1
    60    99    98    1
    61    98    95    1
    62    98   100    1
    63   116   117    1
    64   116   113    1
    65    95    96    1
    66    85    84    2
    67    58    59    1
    68   117   118    1
    69    62    63    1
    70    62    59    1
    71   118   112    1
    72    96    97    2
    73    84    83    1
    74   113   112    1
    75   113   114    1
    76    59    60    1
    77   112   108   am
    78    86    83    1
    79    86    87    1
    80   102   103    1
    81    83    82    1
    82   108   107    1
    83   108   109    2
    84   114   115    2
    85   107   106    1
    86   107   110    1
    87   106   104   am
    88   105   104    2
    89   104   103    1
    90    60    61    2
    91    60    64   am
    92    87    89   ar
    93    87    88   ar
    94    89    91   ar
    95    64    65    1
    96    88    90   ar
    97   110   111    1
    98    91    92   ar
    99    90    92   ar
   100    92    93    1
   101    65    66    1
   102    65    68    1
   103    67    66    2
   104    66    69   am
   105    69    70    1
   106    70    73    1
   107    70    71    1
   108    71    72    2
   109    71    74   am
   110    74    75    1
   111    78    75    1
   112    78    79    1
   113    75    76    1
   114    77    76    2
   115    79    80   ar
   116    79    81   ar
