@<TRIPOS>MOLECULE
tmp/2xr9A00.pdb
 102 99 0 0 0
SMALL
GASTEIGER

@<TRIPOS>ATOM
      1  N          3.8530   49.5160   28.7640 N.3   165  LEU165     -0.1231
      2  CA         3.9580   48.7570   29.9840 C.3   165  LEU165      0.1693
      3  C          3.4300   49.5690   31.1730 C.2   165  LEU165      0.2592
      4  O          3.5070   50.7840   31.1930 O.2   165  LEU165     -0.2718
      5  CB         5.4160   48.4170   30.2530 C.3   165  LEU165      0.0284
      6  CG         6.1400   47.5160   29.2990 C.3   165  LEU165      0.0019
      7  CD1        7.7040   47.6050   29.5220 C.3   165  LEU165      0.0001
      8  CD2        5.6050   46.0560   29.4600 C.3   165  LEU165      0.0001
      9  N          2.8710   48.8650   32.1500 N.am  166  TYR166     -0.1976
     10  CA         2.5990   49.4260   33.4790 C.3   166  TYR166      0.1639
     11  C          3.8880   49.8810   34.1240 C.2   166  TYR166      0.2290
     12  O          4.9240   49.2440   33.9560 O.2   166  TYR166     -0.2864
     13  CB         1.9560   48.3630   34.3950 C.3   166  TYR166      0.0560
     14  CG         0.5850   47.8700   33.9260 C.ar  166  TYR166     -0.0198
     15  CD1       -0.4830   48.7500   33.7390 C.ar  166  TYR166     -0.0009
     16  CD2        0.3830   46.5200   33.6540 C.ar  166  TYR166     -0.0009
     17  CE1       -1.7170   48.2910   33.2950 C.ar  166  TYR166      0.0417
     18  CE2       -0.8290   46.0650   33.2030 C.ar  166  TYR166      0.0417
     19  CZ        -1.8800   46.9390   33.0490 C.ar  166  TYR166      0.1957
     20  OH        -3.0600   46.4170   32.6190 O.3   166  TYR166     -0.2866
     21  N          4.9460   49.3740   37.1760 N.3   168  GLU168     -0.1231
     22  CA         5.5830   48.2580   37.8810 C.3   168  GLU168      0.1699
     23  C          6.5100   47.4300   36.9870 C.2   168  GLU168      0.2592
     24  O          7.4630   46.8550   37.4910 O.2   168  GLU168     -0.2718
     25  CB         4.5650   47.3480   38.5840 C.3   168  GLU168      0.0402
     26  CG         3.6980   46.5210   37.6590 C.3   168  GLU168      0.1161
     27  CD         2.7110   45.5850   38.3750 C.2   168  GLU168      0.3649
     28  OE1        2.0680   44.8260   37.6350 O.co2 168  GLU168     -0.2457
     29  OE2        2.5360   45.5860   39.6310 O.co2 168  GLU168     -0.2457
     30  N          6.1900   47.3190   35.6860 N.am  169  SER169     -0.1952
     31  CA         6.9930   46.5240   34.7440 C.3   169  SER169      0.1924
     32  C          8.1010   47.3880   34.0680 C.2   169  SER169      0.2314
     33  O          9.2130   46.9110   33.8710 O.2   169  SER169     -0.2863
     34  CB         6.1200   45.8510   33.6850 C.3   169  SER169      0.2116
     35  OG         5.3090   44.7950   34.2060 O.3   169  SER169     -0.2180
     36  N         11.8950   47.8120   30.0650 N.3   201  GLY201     -0.1225
     37  CA        11.0860   47.6330   28.8720 C.3   201  GLY201      0.1811
     38  C         11.8560   48.0300   27.6230 C.2   201  GLY201      0.2280
     39  O         13.0980   48.0420   27.5940 O.2   201  GLY201     -0.2866
     40  N         -2.4380   47.9350   39.0360 N.3   374  HIS374     -0.1241
     41  CA        -1.2640   47.1700   38.6840 C.3   374  HIS374      0.1621
     42  C         -0.0060   47.8150   39.2990 C.2   374  HIS374      0.2264
     43  O          1.0010   47.9750   38.6380 O.2   374  HIS374     -0.2867
     44  CB        -1.1340   47.0290   37.1680 C.3   374  HIS374      0.0745
     45  CG        -2.2440   46.2690   36.5290 C.ar  374  HIS374      0.0817
     46  ND1       -2.3890   44.8920   36.6500 N.ar  374  HIS374     -0.2268
     47  CD2       -3.3060   46.7050   35.7980 C.ar  374  HIS374      0.1154
     48  CE1       -3.4820   44.5220   35.9970 C.ar  374  HIS374      0.1986
     49  NE2       -4.0680   45.6040   35.5000 N.ar  374  HIS374     -0.2212
     50  N          7.0520   42.7770   23.7270 N.3   453  PRO453     -0.2102
     51  CA         5.9340   42.3310   24.5890 C.3   453  PRO453      0.1504
     52  C          5.4610   43.4080   25.5460 C.2   453  PRO453      0.2576
     53  O          6.2690   44.1130   26.1960 O.2   453  PRO453     -0.2718
     54  CB         6.5040   41.1120   25.3370 C.3   453  PRO453      0.0282
     55  CG         7.6580   40.6100   24.4380 C.3   453  PRO453      0.0208
     56  CD         8.2120   41.8690   23.7860 C.3   453  PRO453      0.0893
     57  N          4.1580   43.6340   25.5940 N.am  454  ASN454     -0.1961
     58  CA         3.6870   44.7350   26.4150 C.3   454  ASN454      0.1819
     59  C          2.3170   44.4780   27.0330 C.2   454  ASN454      0.2621
     60  O          1.7920   43.3750   26.8920 O.2   454  ASN454     -0.2715
     61  CB         3.7910   46.0460   25.6500 C.3   454  ASN454      0.1195
     62  CG         2.7910   46.1570   24.5340 C.2   454  ASN454      0.2630
     63  OD1        1.6850   46.6940   24.7360 O.2   454  ASN454     -0.2716
     64  ND2        3.1660   45.6890   23.3520 N.am  454  ASN454     -0.0877
     65  N          1.8060   45.4320   27.8110 N.am  455  ASN455     -0.1972
     66  CA         0.5330   45.2560   28.5330 C.3   455  ASN455      0.1688
     67  C         -0.7080   45.7100   27.7830 C.2   455  ASN455      0.2292
     68  O         -1.8330   45.5130   28.2480 O.2   455  ASN455     -0.2864
     69  CB         0.6150   45.9210   29.8750 C.3   455  ASN455      0.1181
     70  CG         1.7480   45.3950   30.6630 C.2   455  ASN455      0.2629
     71  OD1        2.6090   46.1480   31.1710 O.2   455  ASN455     -0.2716
     72  ND2        1.7700   44.0740   30.7920 N.am  455  ASN455     -0.0877
     73  N          1.9020   39.6780   41.1190 N.3   667  ASP667     -0.1225
     74  CA         2.4210   39.9940   39.7730 C.3   667  ASP667      0.1805
     75  C          1.3060   40.1990   38.7390 C.2   667  ASP667      0.2598
     76  O          1.5820   40.4870   37.5730 O.2   667  ASP667     -0.2718
     77  CB         3.5100   38.9660   39.3350 C.3   667  ASP667      0.1424
     78  CG         2.9620   37.5570   39.0780 C.2   667  ASP667      0.3668
     79  OD1        1.7790   37.2940   39.3420 O.co2 667  ASP667     -0.2456
     80  OD2        3.7310   36.7030   38.5920 O.co2 667  ASP667     -0.2456
     81  N          0.0510   40.0980   39.1680 N.am  668  GLY668     -0.1942
     82  CA        -1.0810   40.2820   38.2740 C.3   668  GLY668      0.2014
     83  C         -1.3880   39.0520   37.4380 C.2   668  GLY668      0.2638
     84  O         -2.2450   39.1090   36.5630 O.2   668  GLY668     -0.2714
     85  N         -0.6510   37.9690   37.6820 N.am  669  LEU669     -0.1977
     86  CA        -0.7940   36.7370   36.9360 C.3   669  LEU669      0.1596
     87  C         -1.1440   35.5370   37.8310 C.2   669  LEU669      0.2287
     88  O         -0.7100   35.4530   38.9420 O.2   669  LEU669     -0.2864
     89  CB         0.5220   36.3930   36.2260 C.3   669  LEU669      0.0297
     90  CG         1.1850   37.4780   35.3550 C.3   669  LEU669      0.0022
     91  CD1        2.5290   36.9200   34.8340 C.3   669  LEU669      0.0001
     92  CD2        0.2530   37.9160   34.2180 C.3   669  LEU669      0.0001
     93  N         -5.7320   37.6210   32.9080 N.3   755  HIS755     -0.1241
     94  CA        -4.3490   37.4530   33.3250 C.3   755  HIS755      0.1621
     95  C         -4.2760   36.7500   34.6740 C.2   755  HIS755      0.2264
     96  O         -3.4100   35.9080   34.9100 O.2   755  HIS755     -0.2867
     97  CB        -3.6050   38.7710   33.5580 C.3   755  HIS755      0.0745
     98  CG        -3.4540   39.6360   32.3660 C.ar  755  HIS755      0.0817
     99  ND1       -3.0430   39.1630   31.1420 N.ar  755  HIS755     -0.2268
    100  CD2       -3.5720   40.9790   32.2390 C.ar  755  HIS755      0.1154
    101  CE1       -2.9820   40.1700   30.2910 C.ar  755  HIS755      0.1986
    102  NE2       -3.2990   41.2820   30.9360 N.ar  755  HIS755     -0.2212
@<TRIPOS>BOND
     1    64    62   am
     2    50    56    1
     3    50    51    1
     4    56    55    1
     5    55    54    1
     6    62    63    2
     7    62    61    1
     8    51    54    1
     9    51    52    1
    10    52    57   am
    11    52    53    2
    12    57    58    1
    13    61    58    1
    14    58    59    1
    15    60    59    2
    16    59    65   am
    17    39    38    2
    18    38    37    1
    19    67    68    2
    20    67    66    1
    21    65    66    1
    22    66    69    1
    23     1     2    1
    24    37    36    1
    25     6     8    1
    26     6     7    1
    27     6     5    1
    28    69    70    1
    29     2     5    1
    30     2     3    1
    31   101   102   ar
    32   101    99   ar
    33    70    72   am
    34    70    71    2
    35   102   100   ar
    36    99    98   ar
    37     3     4    2
    38     3     9   am
    39     9    10    1
    40   100    98   ar
    41    98    97    1
    42    20    19    1
    43    93    94    1
    44    19    18   ar
    45    19    17   ar
    46    18    16   ar
    47    17    15   ar
    48    94    97    1
    49    94    95    1
    50    10    11    1
    51    10    13    1
    52    16    14   ar
    53    34    35    1
    54    34    31    1
    55    15    14   ar
    56    33    32    2
    57    14    13    1
    58    12    11    2
    59    32    31    1
    60    92    90    1
    61    95    96    2
    62    31    30    1
    63    91    90    1
    64    90    89    1
    65    49    47   ar
    66    49    48   ar
    67    30    23   am
    68    47    45   ar
    69    48    46   ar
    70    89    86    1
    71    45    46   ar
    72    45    44    1
    73    84    83    2
    74    86    85    1
    75    86    87    1
    76    23    24    2
    77    23    22    1
    78    44    41    1
    79    21    22    1
    80    83    85   am
    81    83    82    1
    82    76    75    2
    83    28    27   ar
    84    26    27    1
    85    26    25    1
    86    87    88    2
    87    22    25    1
    88    82    81    1
    89    27    29   ar
    90    80    78   ar
    91    43    42    2
    92    41    40    1
    93    41    42    1
    94    75    81   am
    95    75    74    1
    96    78    77    1
    97    78    79   ar
    98    77    74    1
    99    74    73    1
