@<TRIPOS>MOLECULE
tmp/2xrfA00.pdb
 108 101 0 0 0
SMALL
GASTEIGER

@<TRIPOS>ATOM
      1  N         -2.3020    1.9410   16.8010 N.3   121  THR121     -0.1203
      2  CA        -1.0930    2.1780   16.0350 C.3   121  THR121      0.1994
      3  C         -0.1230    1.0550   16.3250 C.2   121  THR121      0.2619
      4  O         -0.3060    0.3080   17.2900 O.2   121  THR121     -0.2717
      5  CB        -0.5140    3.5790   16.3340 C.3   121  THR121      0.1784
      6  OG1       -0.0640    3.6280   17.6880 O.3   121  THR121     -0.2211
      7  CG2       -1.5260    4.6820   16.0910 C.3   121  THR121      0.0376
      8  N          0.9010    0.9320   15.4710 N.am  122  SER122     -0.1937
      9  CA         1.9270   -0.1040   15.5200 C.3   122  SER122      0.2055
     10  C          3.1300    0.3000   14.6660 C.2   122  SER122      0.2643
     11  O          3.0810    1.2940   13.9450 O.2   122  SER122     -0.2714
     12  CB         1.3410   -1.4230   15.0090 C.3   122  SER122      0.2130
     13  OG         0.8720   -1.3040   13.6730 O.3   122  SER122     -0.2179
     14  N          4.2070   -0.4640   14.7680 N.am  123  GLY123     -0.1954
     15  CA         5.3840   -0.2790   13.9250 C.3   123  GLY123      0.1869
     16  C          5.2900   -1.3020   12.8140 C.2   123  GLY123      0.2309
     17  O          4.9100   -2.4440   13.0740 O.2   123  GLY123     -0.2863
     18  N          8.5880   -1.1870   24.6010 N.3   193  PHE193     -0.1241
     19  CA         8.5520   -0.4230   23.3580 C.3   193  PHE193      0.1605
     20  C          9.9550   -0.2650   22.7400 C.2   193  PHE193      0.2264
     21  O         10.0900   -0.2360   21.5210 O.2   193  PHE193     -0.2867
     22  CB         7.9500    0.9660   23.6430 C.3   193  PHE193      0.0534
     23  CG         7.7870    1.8540   22.4260 C.ar  193  PHE193     -0.0203
     24  CD1        6.6840    1.7150   21.5830 C.ar  193  PHE193     -0.0042
     25  CD2        8.7350    2.8230   22.1200 C.ar  193  PHE193     -0.0042
     26  CE1        6.5360    2.5300   20.4600 C.ar  193  PHE193     -0.0003
     27  CE2        8.5800    3.6450   20.9990 C.ar  193  PHE193     -0.0003
     28  CZ         7.4810    3.4950   20.1780 C.ar  193  PHE193     -0.0000
     29  N         11.4150   -4.0720   21.2160 N.3   197  GLN197     -0.1245
     30  CA        11.0400   -4.0330   19.7860 C.3   197  GLN197      0.1566
     31  C         12.2850   -3.8350   18.9160 C.2   197  GLN197      0.2260
     32  O         12.1790   -3.5850   17.7090 O.2   197  GLN197     -0.2867
     33  CB         9.9820   -2.9370   19.5180 C.3   197  GLN197      0.0367
     34  CG         8.6330   -3.2960   20.1460 C.3   197  GLN197      0.0905
     35  CD         7.5180   -2.3120   19.8870 C.2   197  GLN197      0.2608
     36  OE1        7.6220   -1.4200   19.0400 O.2   197  GLN197     -0.2717
     37  NE2        6.4030   -2.4800   20.6010 N.am  197  GLN197     -0.0878
     38  N         14.5580   -1.4090   19.2790 N.3   199  ARG199     -0.1245
     39  CA        14.8600    0.0020   19.0250 C.3   199  ARG199      0.1563
     40  C         16.2560    0.3660   19.5300 C.2   199  ARG199      0.2260
     41  O         16.6820   -0.1180   20.5830 O.2   199  ARG199     -0.2867
     42  CB        13.8350    0.9090   19.6810 C.3   199  ARG199      0.0307
     43  CG        12.5520    1.0020   18.8920 C.3   199  ARG199      0.0489
     44  CD        11.6450    2.0750   19.4700 C.3   199  ARG199      0.2205
     45  NE        10.7700    2.6080   18.4340 N.pl3 199  ARG199     -0.0865
     46  CZ         9.6410    2.0350   18.0340 C.cat 199  ARG199      0.5346
     47  NH1        9.2060    0.9220   18.6190 N.pl3 199  ARG199      0.1354
     48  NH2        8.9130    2.5930   17.0820 N.pl3 199  ARG199      0.1354
     49  N          4.1770   -4.5550   14.7510 N.3   227  ILE227     -0.1231
     50  CA         4.5610   -4.7520   16.1390 C.3   227  ILE227      0.1692
     51  C          3.7900   -3.7900   17.0050 C.2   227  ILE227      0.2592
     52  O          3.8480   -2.5890   16.7790 O.2   227  ILE227     -0.2718
     53  CB         6.1120   -4.5610   16.3420 C.3   227  ILE227      0.0266
     54  CG1        6.9640   -5.2540   15.2490 C.3   227  ILE227      0.0019
     55  CG2        6.5580   -4.9940   17.7650 C.3   227  ILE227      0.0020
     56  CD1        8.4840   -4.7800   15.2300 C.3   227  ILE227      0.0001
     57  N          3.1370   -4.2930   18.0450 N.am  228  GLU228     -0.1966
     58  CA         2.4130   -3.4330   18.9820 C.3   228  GLU228      0.1733
     59  C          2.5320   -4.0200   20.4090 C.2   228  GLU228      0.2616
     60  O          3.4410   -4.8200   20.6660 O.2   228  GLU228     -0.2715
     61  CB         0.9610   -3.1590   18.5240 C.3   228  GLU228      0.0429
     62  CG         0.1330   -4.3810   18.1850 C.3   228  GLU228      0.1163
     63  CD        -0.4030   -5.1230   19.3950 C.2   228  GLU228      0.3649
     64  OE1       -1.3740   -4.6400   20.0250 O.co2 228  GLU228     -0.2457
     65  OE2        0.1730   -6.1820   19.7300 O.co2 228  GLU228     -0.2457
     66  N          1.6760   -3.6040   21.3520 N.am  229  MET229     -0.1977
     67  CA         1.8970   -4.0420   22.7350 C.3   229  MET229      0.1605
     68  C          0.6830   -4.6000   23.4760 C.2   229  MET229      0.2287
     69  O          0.7500   -4.6950   24.7050 O.2   229  MET229     -0.2864
     70  CB         2.4690   -2.8500   23.5240 C.3   229  MET229      0.0413
     71  CG         3.8350   -2.4100   23.0370 C.3   229  MET229      0.0598
     72  SD         4.5560   -1.0050   23.8990 S.3   229  MET229     -0.1393
     73  CE         5.0830   -1.8080   25.4360 C.3   229  MET229      0.0692
     74  N          2.9170    3.3820   11.7830 N.3   252  LEU252     -0.1231
     75  CA         3.3850    4.7740   11.8130 C.3   252  LEU252      0.1693
     76  C          4.7600    4.9590   11.1800 C.2   252  LEU252      0.2591
     77  O          5.1950    6.0900   10.9460 O.2   252  LEU252     -0.2718
     78  CB         3.4300    5.2540   13.2810 C.3   252  LEU252      0.0284
     79  CG         2.0710    5.3760   13.9950 C.3   252  LEU252      0.0019
     80  CD1        2.2250    6.0980   15.3140 C.3   252  LEU252      0.0001
     81  CD2        1.0390    6.0970   13.1320 C.3   252  LEU252      0.0001
     82  N          5.4480    3.8490   10.9230 N.am  253  LEU253     -0.1980
     83  CA         6.7940    3.8210   10.3820 C.3   253  LEU253      0.1596
     84  C          7.1350    2.3970    9.9840 C.2   253  LEU253      0.2287
     85  O          6.4660    1.4590   10.4260 O.2   253  LEU253     -0.2864
     86  CB         7.8180    4.3580   11.4580 C.3   253  LEU253      0.0297
     87  CG         8.2340    3.4490   12.6360 C.3   253  LEU253      0.0022
     88  CD1        9.3880    4.0690   13.4220 C.3   253  LEU253      0.0001
     89  CD2        7.0670    3.1680   13.6030 C.3   253  LEU253      0.0001
     90  N          9.9950   -0.2120   10.4990 N.3   255  ARG255     -0.1245
     91  CA        11.0820   -0.5080   11.4230 C.3   255  ARG255      0.1563
     92  C         12.3560   -0.9870   10.7200 C.2   255  ARG255      0.2260
     93  O         13.4280   -0.9010   11.3180 O.2   255  ARG255     -0.2867
     94  CB        10.6200   -1.5160   12.4790 C.3   255  ARG255      0.0307
     95  CG         9.5730   -0.9340   13.4430 C.3   255  ARG255      0.0489
     96  CD        10.1310    0.1940   14.3350 C.3   255  ARG255      0.2205
     97  NE        11.4780   -0.1060   14.8420 N.pl3 255  ARG255     -0.0865
     98  CZ        11.7490   -1.0480   15.7360 C.cat 255  ARG255      0.5346
     99  NH1       10.7770   -1.7880   16.2410 N.pl3 255  ARG255      0.1354
    100  NH2       13.0010   -1.2840   16.1000 N.pl3 255  ARG255      0.1354
    101  N          9.4870    7.8660   15.6570 N.3   261  ILE261     -0.1245
    102  CA         8.2900    8.2660   14.9220 C.3   261  ILE261      0.1561
    103  C          8.4400    9.7650   14.6630 C.2   261  ILE261      0.2260
    104  O          8.4490   10.5690   15.6030 O.2   261  ILE261     -0.2867
    105  CB         6.9600    7.8800   15.6430 C.3   261  ILE261      0.0252
    106  CG1        6.8990    6.3540   15.9310 C.3   261  ILE261      0.0019
    107  CG2        5.7370    8.3380   14.8190 C.3   261  ILE261      0.0019
    108  CD1        6.4420    5.9810   17.2970 C.3   261  ILE261      0.0001
@<TRIPOS>BOND
     1    84    83    1
     2    84    85    2
     3    83    82    1
     4    83    86    1
     5    90    91    1
     6    92    93    2
     7    92    91    1
     8    82    76   am
     9    77    76    2
    10    76    75    1
    11    91    94    1
    12    86    87    1
    13    74    75    1
    14    75    78    1
    15    94    95    1
    16    87    88    1
    17    87    89    1
    18    16    17    2
    19    16    15    1
    20    81    79    1
    21    78    79    1
    22    95    96    1
    23    13    12    1
    24    15    14    1
    25    11    10    2
    26    79    80    1
    27    96    97    1
    28   103   102    1
    29   103   104    2
    30    10    14   am
    31    10     9    1
    32    49    50    1
    33   107   105    1
    34    97    98    2
    35   102   105    1
    36   102   101    1
    37    12     9    1
    38    56    54    1
    39    54    53    1
    40     8     9    1
    41     8     3   am
    42   105   106    1
    43    98   100    1
    44    98    99    1
    45   106   108    1
    46     2     3    1
    47     2     5    1
    48     2     1    1
    49     7     5    1
    50    50    53    1
    51    50    51    1
    52     3     4    2
    53     5     6    1
    54    53    55    1
    55    52    51    2
    56    51    57   am
    57    48    46    1
    58    32    31    2
    59    46    45    2
    60    46    47    1
    61    57    58    1
    62    62    61    1
    63    62    63    1
    64    45    44    1
    65    61    58    1
    66    43    44    1
    67    43    42    1
    68    31    30    1
    69    58    59    1
    70    39    38    1
    71    39    40    1
    72    39    42    1
    73    36    35    2
    74    63    65   ar
    75    63    64   ar
    76    33    30    1
    77    33    34    1
    78    40    41    2
    79    30    29    1
    80    35    34    1
    81    35    37   am
    82    28    26   ar
    83    28    27   ar
    84    59    60    2
    85    59    66   am
    86    26    24   ar
    87    27    25   ar
    88    66    67    1
    89    21    20    2
    90    24    23   ar
    91    25    23   ar
    92    23    22    1
    93    67    68    1
    94    67    70    1
    95    20    19    1
    96    71    70    1
    97    71    72    1
    98    19    22    1
    99    19    18    1
   100    68    69    2
   101    72    73    1
