@<TRIPOS>MOLECULE
tmp/2xrgA00.pdb
 110 106 0 0 0
SMALL
GASTEIGER

@<TRIPOS>ATOM
      1  N        -30.6660    6.8550   -5.4350 N.3   165  LEU165     -0.1231
      2  CA       -29.9090    7.5240   -6.4980 C.3   165  LEU165      0.1693
      3  C        -28.5070    6.9180   -6.6810 C.2   165  LEU165      0.2592
      4  O        -28.0250    6.2000   -5.7980 O.2   165  LEU165     -0.2718
      5  CB       -29.7780    9.0290   -6.1800 C.3   165  LEU165      0.0284
      6  CG       -31.0670    9.8470   -6.0940 C.3   165  LEU165      0.0019
      7  CD1      -30.9710   10.8810   -4.9970 C.3   165  LEU165      0.0001
      8  CD2      -31.3870   10.5220   -7.4200 C.3   165  LEU165      0.0001
      9  N        -27.8530    7.2310   -7.8270 N.am  166  TYR166     -0.1976
     10  CA       -26.4830    6.8070   -8.1450 C.3   166  TYR166      0.1639
     11  C        -25.4950    7.6640   -7.3180 C.2   166  TYR166      0.2290
     12  O        -25.8550    8.7930   -6.9720 O.2   166  TYR166     -0.2864
     13  CB       -26.1870    6.9670   -9.6570 C.3   166  TYR166      0.0560
     14  CG       -27.0330    6.1040  -10.5710 C.ar  166  TYR166     -0.0198
     15  CD1      -26.9110    4.7160  -10.5650 C.ar  166  TYR166     -0.0009
     16  CD2      -27.9030    6.6760  -11.4940 C.ar  166  TYR166     -0.0009
     17  CE1      -27.6810    3.9160  -11.4100 C.ar  166  TYR166      0.0417
     18  CE2      -28.6730    5.8870  -12.3510 C.ar  166  TYR166      0.0417
     19  CZ       -28.5610    4.5070  -12.3020 C.ar  166  TYR166      0.1957
     20  OH       -29.3230    3.7220  -13.1330 O.3   166  TYR166     -0.2866
     21  N        -22.9760    9.4540   -8.1880 N.3   168  GLU168     -0.1182
     22  CA       -22.7110   10.6890   -8.9390 C.3   168  GLU168      0.1915
     23  C        -23.7940   11.7650   -8.7170 C.2   168  GLU168      0.2635
     24  O        -23.5230   12.9520   -8.9130 O.2   168  GLU168     -0.2714
     25  CB       -22.4730   10.4080  -10.4380 C.2   168  GLU168      0.0085
     26  CG       -23.6710    9.8650  -11.2070 C.2   168  GLU168      0.0835
     27  CD       -23.4720    9.6310  -12.6950 C.2   168  GLU168      0.3877
     28  OE1      -24.0750    8.6680  -13.2210 O.co2 168  GLU168     -0.2406
     29  OE2      -22.7420   10.4160  -13.3430 O.co2 168  GLU168     -0.2406
     30  N        -25.0080   11.3380   -8.3000 N.am  169  SER169     -0.1949
     31  CA       -26.1490   12.2090   -8.0120 C.3   169  SER169      0.1924
     32  C        -26.2530   12.5670   -6.5250 C.2   169  SER169      0.2314
     33  O        -26.4280   13.7440   -6.2060 O.2   169  SER169     -0.2863
     34  CB       -27.4490   11.5910   -8.5170 C.3   169  SER169      0.2116
     35  OG       -27.5990   11.8000   -9.9120 O.3   169  SER169     -0.2180
     36  N        -29.2710   15.0070   -2.0580 N.3   201  GLY201     -0.1225
     37  CA       -30.5520   14.3530   -2.3000 C.3   201  GLY201      0.1811
     38  C        -31.4940   14.4150   -1.1140 C.2   201  GLY201      0.2280
     39  O        -31.4010   15.3300   -0.2890 O.2   201  GLY201     -0.2866
     40  N        -22.4330    4.1300  -14.4680 N.3   372  HIS372     -0.1241
     41  CA       -23.0040    5.4370  -14.0970 C.3   372  HIS372      0.1621
     42  C        -22.0810    6.1360  -13.0880 C.2   372  HIS372      0.2264
     43  O        -22.4520    6.3050  -11.9220 O.2   372  HIS372     -0.2867
     44  CB       -24.4490    5.3010  -13.5660 C.3   372  HIS372      0.0745
     45  CG       -25.4500    4.8740  -14.5950 C.ar  372  HIS372      0.0817
     46  ND1      -26.0990    5.7970  -15.3970 N.ar  372  HIS372     -0.2268
     47  CD2      -25.9070    3.6370  -14.8970 C.ar  372  HIS372      0.1154
     48  CE1      -26.9160    5.0950  -16.1670 C.ar  372  HIS372      0.1986
     49  NE2      -26.8340    3.7920  -15.9040 N.ar  372  HIS372     -0.2212
     50  N        -20.4850   12.1350  -14.1430 N.3   375  ASN375     -0.1240
     51  CA       -21.0630   13.4630  -13.9160 C.3   375  ASN375      0.1653
     52  C        -21.0740   13.9310  -12.4530 C.2   375  ASN375      0.2266
     53  O        -22.0930   13.8170  -11.7650 O.2   375  ASN375     -0.2867
     54  CB       -22.4390   13.5930  -14.5870 C.3   375  ASN375      0.1155
     55  CG       -23.0070   14.9890  -14.5810 C.2   375  ASN375      0.2627
     56  OD1      -22.3630   15.9600  -15.0000 O.2   375  ASN375     -0.2716
     57  ND2      -24.2370   15.1130  -14.1140 N.am  375  ASN375     -0.0877
     58  N        -37.7830   12.5420   -6.3210 N.3   449  PRO449     -0.2102
     59  CA       -37.2020   12.0510   -7.5870 C.3   449  PRO449      0.1504
     60  C        -35.9260   11.2290   -7.4000 C.2   449  PRO449      0.2576
     61  O        -34.9120   11.7390   -6.9100 O.2   449  PRO449     -0.2718
     62  CB       -36.9620   13.3300   -8.3940 C.3   449  PRO449      0.0282
     63  CG       -37.9040   14.3230   -7.8180 C.3   449  PRO449      0.0208
     64  CD       -37.9610   14.0080   -6.3570 C.3   449  PRO449      0.0893
     65  N        -36.0150    9.9280   -7.7330 N.am  450  ASN450     -0.1961
     66  CA       -34.9190    8.9620   -7.6180 C.3   450  ASN450      0.1819
     67  C        -34.6260    8.2450   -8.9500 C.2   450  ASN450      0.2621
     68  O        -35.3490    8.4540   -9.9270 O.2   450  ASN450     -0.2715
     69  CB       -35.1750    7.9750   -6.4710 C.3   450  ASN450      0.1195
     70  CG       -36.4610    7.1990   -6.5830 C.2   450  ASN450      0.2630
     71  OD1      -36.5200    6.1310   -7.2020 O.2   450  ASN450     -0.2716
     72  ND2      -37.5080    7.7020   -5.9510 N.am  450  ASN450     -0.0877
     73  N        -33.5570    7.4220   -8.9910 N.am  451  ASN451     -0.1972
     74  CA       -33.1270    6.7020  -10.1960 C.3   451  ASN451      0.1688
     75  C        -33.7000    5.2780  -10.3650 C.2   451  ASN451      0.2292
     76  O        -33.1700    4.4810  -11.1440 O.2   451  ASN451     -0.2864
     77  CB       -31.5950    6.7250  -10.3250 C.3   451  ASN451      0.1181
     78  CG       -30.9930    8.1060  -10.4670 C.2   451  ASN451      0.2629
     79  OD1      -30.0370    8.4570   -9.7660 O.2   451  ASN451     -0.2716
     80  ND2      -31.5300    8.9180  -11.3780 N.am  451  ASN451     -0.0877
     81  N        -23.8010   13.3030  -18.8170 N.3   643  ASP643     -0.1225
     82  CA       -24.8290   13.3220  -17.7700 C.3   643  ASP643      0.1805
     83  C        -25.8180   12.1300  -17.8690 C.2   643  ASP643      0.2598
     84  O        -26.7310   12.0160  -17.0450 O.2   643  ASP643     -0.2718
     85  CB       -25.5590   14.6830  -17.7480 C.3   643  ASP643      0.1424
     86  CG       -26.4590   14.9860  -18.9360 C.2   643  ASP643      0.3668
     87  OD1      -26.2600   14.3770  -20.0110 O.co2 643  ASP643     -0.2456
     88  OD2      -27.3450   15.8520  -18.7980 O.co2 643  ASP643     -0.2456
     89  N        -25.6190   11.2720  -18.8770 N.am  644  GLY644     -0.1942
     90  CA       -26.4310   10.0840  -19.1420 C.3   644  GLY644      0.2014
     91  C        -27.8040   10.3460  -19.7360 C.2   644  GLY644      0.2638
     92  O        -28.6180    9.4210  -19.8470 O.2   644  GLY644     -0.2714
     93  N        -28.0670   11.6080  -20.1270 N.am  645  LEU645     -0.1977
     94  CA       -29.3420   12.0660  -20.6880 C.3   645  LEU645      0.1596
     95  C        -29.1440   12.6430  -22.0910 C.2   645  LEU645      0.2287
     96  O        -28.0790   13.1920  -22.3840 O.2   645  LEU645     -0.2864
     97  CB       -29.9920   13.1250  -19.7700 C.3   645  LEU645      0.0297
     98  CG       -29.9520   12.8870  -18.2570 C.3   645  LEU645      0.0022
     99  CD1      -30.0480   14.1910  -17.5060 C.3   645  LEU645      0.0001
    100  CD2      -31.0420   11.9370  -17.8160 C.3   645  LEU645      0.0001
    101  N        -32.9880    6.6340  -21.6090 N.3   731  HIS731     -0.1241
    102  CA       -32.5570    7.9300  -21.0750 C.3   731  HIS731      0.1621
    103  C        -31.6730    8.6880  -22.0620 C.2   731  HIS731      0.2264
    104  O        -31.7360    9.9170  -22.1100 O.2   731  HIS731     -0.2867
    105  CB       -31.8110    7.7720  -19.7350 C.3   731  HIS731      0.0745
    106  CG       -32.6220    7.1810  -18.6220 C.ar  731  HIS731      0.0817
    107  ND1      -33.9540    7.5210  -18.4280 N.ar  731  HIS731     -0.2268
    108  CD2      -32.2440    6.3260  -17.6440 C.ar  731  HIS731      0.1154
    109  CE1      -34.3460    6.8370  -17.3650 C.ar  731  HIS731      0.1986
    110  NE2      -33.3500    6.1100  -16.8550 N.ar  731  HIS731     -0.2212
@<TRIPOS>BOND
     1    96    95    2
     2   104   103    2
     3    95    94    1
     4   103   102    1
     5   101   102    1
     6   102   105    1
     7    94    93    1
     8    94    97    1
     9    93    91   am
    10    87    86   ar
    11    92    91    2
    12    97    98    1
    13    91    90    1
    14   105   106    1
    15    90    89    1
    16    86    88   ar
    17    86    85    1
    18    89    83   am
    19    81    82    1
    20   106   107   ar
    21   106   108   ar
    22   107   109   ar
    23    98   100    1
    24    98    99    1
    25    83    82    1
    26    83    84    2
    27    82    85    1
    28   108   110   ar
    29   109   110   ar
    30    48    49   ar
    31    48    46   ar
    32    49    47   ar
    33    46    45   ar
    34    56    55    2
    35    47    45   ar
    36    45    44    1
    37    54    55    1
    38    54    51    1
    39    55    57   am
    40    40    41    1
    41    50    51    1
    42    41    44    1
    43    41    42    1
    44    51    52    1
    45    29    27   ar
    46    28    27   ar
    47    20    19    1
    48    42    43    2
    49    27    26    1
    50    52    53    2
    51    18    19   ar
    52    18    16   ar
    53    19    17   ar
    54    16    14   ar
    55    17    15   ar
    56    80    78   am
    57    26    25    2
    58    76    75    2
    59    14    15   ar
    60    14    13    1
    61    78    77    1
    62    78    79    2
    63    25    22    1
    64    75    74    1
    65    77    74    1
    66    74    73    1
    67    68    67    2
    68    35    34    1
    69    13    10    1
    70    73    67   am
    71    67    66    1
    72    22    23    1
    73    22    21    1
    74    24    23    2
    75    23    30   am
    76    34    31    1
    77    62    63    1
    78    62    59    1
    79    30    31    1
    80    10     9    1
    81    10    11    1
    82    31    32    1
    83     9     3   am
    84    63    64    1
    85    65    66    1
    86    65    60   am
    87    66    69    1
    88    59    60    1
    89    59    58    1
    90     8     6    1
    91    60    61    2
    92    11    12    2
    93    71    70    2
    94     3     2    1
    95     3     4    2
    96    70    69    1
    97    70    72   am
    98    32    33    2
    99     2     5    1
   100     2     1    1
   101    64    58    1
   102     5     6    1
   103     6     7    1
   104    37    36    1
   105    37    38    1
   106    38    39    2
