@<TRIPOS>MOLECULE
tmp/2xrgA01.pdb
 233 229 0 0 0
SMALL
GASTEIGER

@<TRIPOS>ATOM
      1  N        -35.2330   -2.1820    9.3260 N.3   112  ILE112     -0.1245
      2  CA       -34.1840   -2.5000    8.3500 C.3   112  ILE112      0.1561
      3  C        -32.9550   -3.0860    9.0690 C.2   112  ILE112      0.2260
      4  O        -32.3090   -2.3920    9.8590 O.2   112  ILE112     -0.2867
      5  CB       -33.8390   -1.2810    7.4400 C.3   112  ILE112      0.0252
      6  CG1      -35.1010   -0.7080    6.7600 C.3   112  ILE112      0.0019
      7  CG2      -32.7700   -1.6440    6.3950 C.3   112  ILE112      0.0019
      8  CD1      -35.1250    0.8060    6.6340 C.3   112  ILE112      0.0001
      9  N        -29.4900   -4.1840    8.3550 N.3   114  SER114     -0.1217
     10  CA       -28.3740   -4.1000    7.4140 C.3   114  SER114      0.1889
     11  C        -27.0940   -4.7200    7.9630 C.2   114  SER114      0.2288
     12  O        -26.6770   -4.3910    9.0740 O.2   114  SER114     -0.2866
     13  CB       -28.1430   -2.6590    6.9640 C.3   114  SER114      0.2089
     14  OG       -27.8450   -1.8030    8.0530 O.3   114  SER114     -0.2183
     15  N        -22.9070   -5.6890    7.0570 N.3   116  ASP116     -0.1239
     16  CA       -21.7320   -5.3350    6.2610 C.3   116  ASP116      0.1674
     17  C        -20.9650   -6.5610    5.7530 C.2   116  ASP116      0.2266
     18  O        -20.6240   -7.4440    6.5400 O.2   116  ASP116     -0.2867
     19  CB       -20.8020   -4.4130    7.0680 C.3   116  ASP116      0.1410
     20  CG       -20.1040   -3.3360    6.2650 C.2   116  ASP116      0.3668
     21  OD1      -19.6350   -3.6370    5.1450 O.co2 116  ASP116     -0.2456
     22  OD2      -19.9750   -2.2070    6.7800 O.co2 116  ASP116     -0.2456
     23  N        -18.6050    0.5150    1.4140 N.3   154  THR154     -0.1203
     24  CA       -19.5990    0.7930    2.4610 C.3   154  THR154      0.1994
     25  C        -20.3950    2.0990    2.3040 C.2   154  THR154      0.2617
     26  O        -21.6190    2.0300    2.1960 O.2   154  THR154     -0.2717
     27  CB       -18.9780    0.6290    3.8590 C.3   154  THR154      0.1784
     28  OG1      -18.2000   -0.5760    3.9210 O.3   154  THR154     -0.2211
     29  CG2      -20.0180    0.6550    4.9770 C.3   154  THR154      0.0376
     30  N        -19.7090    3.2720    2.3390 N.am  155  PHE155     -0.1975
     31  CA       -20.3290    4.6030    2.2410 C.3   155  PHE155      0.1639
     32  C        -21.1650    4.8940    0.9860 C.2   155  PHE155      0.2290
     33  O        -22.2820    5.3910    1.1560 O.2   155  PHE155     -0.2864
     34  CB       -19.3500    5.7430    2.5630 C.3   155  PHE155      0.0560
     35  CG       -19.2980    6.1040    4.0280 C.ar  155  PHE155     -0.0200
     36  CD1      -20.2420    6.9570    4.5860 C.ar  155  PHE155     -0.0042
     37  CD2      -18.3040    5.5910    4.8510 C.ar  155  PHE155     -0.0042
     38  CE1      -20.1990    7.2830    5.9460 C.ar  155  PHE155     -0.0003
     39  CE2      -18.2610    5.9190    6.2100 C.ar  155  PHE155     -0.0003
     40  CZ       -19.2080    6.7630    6.7470 C.ar  155  PHE155     -0.0000
     41  N        -24.5440    2.1650    1.2300 N.3   158  LEU158     -0.1231
     42  CA       -25.5480    2.3720    2.2800 C.3   158  LEU158      0.1693
     43  C        -26.3810    3.6250    2.0040 C.2   158  LEU158      0.2592
     44  O        -27.6050    3.5800    2.1490 O.2   158  LEU158     -0.2718
     45  CB       -24.9190    2.4300    3.6880 C.3   158  LEU158      0.0284
     46  CG       -24.6720    1.0870    4.3990 C.3   158  LEU158      0.0019
     47  CD1      -23.7240    1.2560    5.5720 C.3   158  LEU158      0.0001
     48  CD2      -25.9760    0.4550    4.8850 C.3   158  LEU158      0.0001
     49  N        -25.7270    4.7200    1.5540 N.am  159  TYR159     -0.1976
     50  CA       -26.4170    5.9670    1.2230 C.3   159  TYR159      0.1639
     51  C        -27.2850    5.8470   -0.0400 C.2   159  TYR159      0.2290
     52  O        -28.2430    6.6110   -0.1900 O.2   159  TYR159     -0.2864
     53  CB       -25.4500    7.1640    1.1610 C.3   159  TYR159      0.0560
     54  CG       -26.1300    8.5010    1.3760 C.ar  159  TYR159     -0.0198
     55  CD1      -26.2880    9.4020    0.3270 C.ar  159  TYR159     -0.0009
     56  CD2      -26.6340    8.8590    2.6250 C.ar  159  TYR159     -0.0009
     57  CE1      -26.9200   10.6310    0.5170 C.ar  159  TYR159      0.0417
     58  CE2      -27.2820   10.0770    2.8230 C.ar  159  TYR159      0.0417
     59  CZ       -27.4180   10.9630    1.7670 C.ar  159  TYR159      0.1957
     60  OH       -28.0420   12.1730    1.9560 O.3   159  TYR159     -0.2866
     61  N        -29.0510    3.0210   -0.7320 N.3   161  LEU161     -0.1231
     62  CA       -30.2380    2.3460   -0.1930 C.3   161  LEU161      0.1693
     63  C        -31.2280    3.3340    0.4410 C.2   161  LEU161      0.2591
     64  O        -32.4360    3.1460    0.3140 O.2   161  LEU161     -0.2718
     65  CB       -29.8440    1.2580    0.8280 C.3   161  LEU161      0.0284
     66  CG       -29.1020    0.0250    0.2950 C.3   161  LEU161      0.0019
     67  CD1      -28.3390   -0.6650    1.4040 C.3   161  LEU161      0.0001
     68  CD2      -30.0540   -0.9550   -0.3740 C.3   161  LEU161      0.0001
     69  N        -30.7100    4.3950    1.0910 N.am  162  ALA162     -0.1980
     70  CA       -31.4970    5.4350    1.7590 C.3   162  ALA162      0.1597
     71  C        -32.0800    6.5120    0.8230 C.2   162  ALA162      0.2287
     72  O        -33.0930    7.1200    1.1740 O.2   162  ALA162     -0.2864
     73  CB       -30.6650    6.0890    2.8510 C.3   162  ALA162      0.0319
     74  N        -15.5140    6.3540   -0.0330 N.3   175  ASN175     -0.1240
     75  CA       -15.1290    6.4660    1.3820 C.3   175  ASN175      0.1653
     76  C        -14.1360    7.6210    1.5830 C.2   175  ASN175      0.2266
     77  O        -14.1760    8.2930    2.6160 O.2   175  ASN175     -0.2867
     78  CB       -14.5250    5.1460    1.8890 C.3   175  ASN175      0.1155
     79  CG       -15.4750    3.9660    1.9780 C.2   175  ASN175      0.2627
     80  OD1      -16.6370    4.0070    1.5560 O.2   175  ASN175     -0.2716
     81  ND2      -14.9850    2.8650    2.5230 N.am  175  ASN175     -0.0877
     82  N        -12.6830    8.7340    6.1540 N.3   188  LEU188     -0.1231
     83  CA       -13.3320    7.8080    7.0920 C.3   188  LEU188      0.1693
     84  C        -13.0590    8.2090    8.5400 C.2   188  LEU188      0.2591
     85  O        -13.9480    8.0920    9.3850 O.2   188  LEU188     -0.2718
     86  CB       -12.8590    6.3630    6.8490 C.3   188  LEU188      0.0284
     87  CG       -13.3130    5.7020    5.5470 C.3   188  LEU188      0.0019
     88  CD1      -12.3170    4.6500    5.0950 C.3   188  LEU188      0.0001
     89  CD2      -14.7060    5.1150    5.6810 C.3   188  LEU188      0.0001
     90  N        -11.8340    8.6890    8.8180 N.am  189  ARG189     -0.1980
     91  CA       -11.4310    9.1450   10.1430 C.3   189  ARG189      0.1597
     92  C        -11.1840   10.6510   10.1040 C.2   189  ARG189      0.2287
     93  O        -10.2490   11.1130    9.4440 O.2   189  ARG189     -0.2864
     94  CB       -10.1980    8.3700   10.6530 C.3   189  ARG189      0.0334
     95  CG       -10.4590    6.8890   10.9570 C.3   189  ARG189      0.0492
     96  CD       -11.1020    6.6560   12.3180 C.3   189  ARG189      0.2205
     97  NE       -11.6960    5.3210   12.4180 N.pl3 189  ARG189     -0.0865
     98  CZ       -12.8210    5.0430   13.0700 C.cat 189  ARG189      0.5346
     99  NH1      -13.4930    6.0060   13.6910 N.pl3 189  ARG189      0.1354
    100  NH2      -13.2870    3.8020   13.1020 N.pl3 189  ARG189      0.1354
    101  N        -23.3630   15.6050    1.8480 N.3   199  TRP199     -0.1241
    102  CA       -24.5560   14.7690    1.6870 C.3   199  TRP199      0.1605
    103  C        -25.6560   15.4840    0.9030 C.2   199  TRP199      0.2264
    104  O        -26.0960   16.5670    1.2970 O.2   199  TRP199     -0.2867
    105  CB       -25.0620   14.2730    3.0600 C.3   199  TRP199      0.0550
    106  CG       -23.9700   13.7760    3.9690 C.ar  199  TRP199      0.0003
    107  CD1      -23.1660   14.5320    4.7710 C.ar  199  TRP199      0.0946
    108  CD2      -23.5460   12.4170    4.1420 C.ar  199  TRP199      0.0152
    109  NE1      -22.2580   13.7310    5.4230 N.ar  199  TRP199     -0.2442
    110  CE2      -22.4750   12.4260    5.0640 C.ar  199  TRP199      0.0810
    111  CE3      -23.9730   11.1860    3.6130 C.ar  199  TRP199      0.0012
    112  CZ2      -21.8240   11.2530    5.4690 C.ar  199  TRP199      0.0191
    113  CZ3      -23.3210   10.0260    4.0070 C.ar  199  TRP199      0.0001
    114  CH2      -22.2650   10.0650    4.9290 C.ar  199  TRP199      0.0015
    115  N        -35.4040    9.0280    6.0240 N.3   205  TRP205     -0.1241
    116  CA       -35.8080    9.6620    7.2880 C.3   205  TRP205      0.1605
    117  C        -36.3480   11.0940    7.1490 C.2   205  TRP205      0.2264
    118  O        -37.1780   11.5090    7.9610 O.2   205  TRP205     -0.2867
    119  CB       -34.7220    9.5470    8.3740 C.3   205  TRP205      0.0550
    120  CG       -33.3930   10.1270    7.9960 C.ar  205  TRP205      0.0003
    121  CD1      -32.9890   11.4190    8.1520 C.ar  205  TRP205      0.0946
    122  CD2      -32.2770    9.4200    7.4370 C.ar  205  TRP205      0.0152
    123  NE1      -31.6990   11.5700    7.6980 N.ar  205  TRP205     -0.2442
    124  CE2      -31.2360   10.3580    7.2560 C.ar  205  TRP205      0.0810
    125  CE3      -32.0620    8.0860    7.0490 C.ar  205  TRP205      0.0012
    126  CZ2      -29.9940   10.0010    6.7180 C.ar  205  TRP205      0.0191
    127  CZ3      -30.8350    7.7360    6.5080 C.ar  205  TRP205      0.0001
    128  CH2      -29.8180    8.6860    6.3460 C.ar  205  TRP205      0.0015
    129  N        -31.1240    6.5470   12.6100 N.3   218  PHE218     -0.1227
    130  CA       -30.5110    5.5450   11.7330 C.3   218  PHE218      0.1736
    131  C        -29.0520    5.2550   12.0890 C.2   218  PHE218      0.2595
    132  O        -28.6310    4.0970   12.0470 O.2   218  PHE218     -0.2718
    133  CB       -30.6430    5.9800   10.2610 C.3   218  PHE218      0.0547
    134  CG       -31.9320    5.5730    9.5830 C.ar  218  PHE218     -0.0202
    135  CD1      -33.1590    6.0390   10.0420 C.ar  218  PHE218     -0.0042
    136  CD2      -31.9160    4.7580    8.4570 C.ar  218  PHE218     -0.0042
    137  CE1      -34.3480    5.6630    9.4130 C.ar  218  PHE218     -0.0003
    138  CE2      -33.1060    4.3880    7.8240 C.ar  218  PHE218     -0.0003
    139  CZ       -34.3140    4.8440    8.3050 C.ar  218  PHE218     -0.0000
    140  N        -28.2920    6.3060   12.4380 N.am  219  PHE219     -0.1962
    141  CA       -26.8790    6.2270   12.8060 C.3   219  PHE219      0.1771
    142  C        -26.7260    5.8550   14.2830 C.2   219  PHE219      0.2619
    143  O        -27.4370    6.3950   15.1320 O.2   219  PHE219     -0.2715
    144  CB       -26.1740    7.5660   12.5200 C.3   219  PHE219      0.0574
    145  CG       -26.1420    7.9980   11.0710 C.ar  219  PHE219     -0.0200
    146  CD1      -25.0050    7.8060   10.2980 C.ar  219  PHE219     -0.0042
    147  CD2      -27.2330    8.6410   10.4940 C.ar  219  PHE219     -0.0042
    148  CE1      -24.9650    8.2280    8.9650 C.ar  219  PHE219     -0.0003
    149  CE2      -27.1980    9.0510    9.1580 C.ar  219  PHE219     -0.0003
    150  CZ       -26.0630    8.8450    8.4030 C.ar  219  PHE219     -0.0000
    151  N        -25.8070    4.9220   14.5790 N.am  220  TRP220     -0.1974
    152  CA       -25.5100    4.4550   15.9370 C.3   220  TRP220      0.1640
    153  C        -24.0360    4.6870   16.2600 C.2   220  TRP220      0.2290
    154  O        -23.1840    4.5250   15.3810 O.2   220  TRP220     -0.2864
    155  CB       -25.8110    2.9530   16.0770 C.3   220  TRP220      0.0576
    156  CG       -27.2530    2.5720   15.9380 C.ar  220  TRP220      0.0006
    157  CD1      -27.8660    2.0750   14.8250 C.ar  220  TRP220      0.0946
    158  CD2      -28.2390    2.5620   16.9780 C.ar  220  TRP220      0.0152
    159  NE1      -29.1830    1.7860   15.0990 N.ar  220  TRP220     -0.2442
    160  CE2      -29.4390    2.0770   16.4140 C.ar  220  TRP220      0.0810
    161  CE3      -28.2290    2.9290   18.3360 C.ar  220  TRP220      0.0012
    162  CZ2      -30.6220    1.9590   17.1550 C.ar  220  TRP220      0.0191
    163  CZ3      -29.3990    2.8120   19.0690 C.ar  220  TRP220      0.0001
    164  CH2      -30.5780    2.3320   18.4810 C.ar  220  TRP220      0.0015
    165  N        -20.3900    3.7670   17.8300 N.3   222  VAL222     -0.1245
    166  CA       -19.5790    2.5400   17.9150 C.3   222  VAL222      0.1561
    167  C        -19.5800    1.8930   19.3140 C.2   222  VAL222      0.2260
    168  O        -19.6290    0.6650   19.4100 O.2   222  VAL222     -0.2867
    169  CB       -18.1390    2.7130   17.3530 C.3   222  VAL222      0.0252
    170  CG1      -17.5920    1.3850   16.8350 C.3   222  VAL222      0.0019
    171  CG2      -18.0830    3.7730   16.2530 C.3   222  VAL222      0.0019
    172  N        -34.0000    1.2930   12.2200 N.3   249  ALA249     -0.1231
    173  CA       -32.8530    0.7170   11.5050 C.3   249  ALA249      0.1694
    174  C        -31.7590    0.1760   12.4230 C.2   249  ALA249      0.2592
    175  O        -31.4320    0.8050   13.4320 O.2   249  ALA249     -0.2718
    176  CB       -32.2640    1.7320   10.5390 C.3   249  ALA249      0.0304
    177  N        -31.1810   -0.9870   12.0470 N.am  250  PHE250     -0.1962
    178  CA       -30.0950   -1.6700   12.7600 C.3   250  PHE250      0.1771
    179  C        -28.8990   -1.8980   11.8270 C.2   250  PHE250      0.2619
    180  O        -29.0810   -2.2710   10.6670 O.2   250  PHE250     -0.2715
    181  CB       -30.5800   -3.0070   13.3590 C.3   250  PHE250      0.0574
    182  CG       -29.5310   -3.7810   14.1270 C.ar  250  PHE250     -0.0200
    183  CD1      -29.2900   -3.5160   15.4700 C.ar  250  PHE250     -0.0042
    184  CD2      -28.7830   -4.7770   13.5070 C.ar  250  PHE250     -0.0042
    185  CE1      -28.3150   -4.2290   16.1780 C.ar  250  PHE250     -0.0003
    186  CE2      -27.8020   -5.4820   14.2120 C.ar  250  PHE250     -0.0003
    187  CZ       -27.5790   -5.2080   15.5440 C.ar  250  PHE250     -0.0000
    188  N        -27.6800   -1.7040   12.3550 N.am  251  TYR251     -0.1974
    189  CA       -26.4290   -1.8800   11.6180 C.3   251  TYR251      0.1639
    190  C        -25.4770   -2.8620   12.3240 C.2   251  TYR251      0.2290
    191  O        -25.4050   -2.8820   13.5550 O.2   251  TYR251     -0.2864
    192  CB       -25.7550   -0.5090   11.3740 C.3   251  TYR251      0.0560
    193  CG       -24.3750   -0.5870   10.7540 C.ar  251  TYR251     -0.0198
    194  CD1      -24.2120   -0.8430    9.3960 C.ar  251  TYR251     -0.0009
    195  CD2      -23.2320   -0.4160   11.5290 C.ar  251  TYR251     -0.0009
    196  CE1      -22.9450   -0.9400    8.8250 C.ar  251  TYR251      0.0417
    197  CE2      -21.9580   -0.5100   10.9690 C.ar  251  TYR251      0.0417
    198  CZ       -21.8190   -0.7720    9.6160 C.ar  251  TYR251      0.1957
    199  OH       -20.5660   -0.8560    9.0570 O.3   251  TYR251     -0.2866
    200  N        -21.3140   -4.4090   11.8530 N.3   253  GLU253     -0.1245
    201  CA       -19.9850   -4.2910   11.2370 C.3   253  GLU253      0.1567
    202  C        -19.4830   -5.6390   10.7110 C.2   253  GLU253      0.2260
    203  O        -18.5920   -5.6750    9.8600 O.2   253  GLU253     -0.2867
    204  CB       -18.9650   -3.6970   12.2290 C.3   253  GLU253      0.0388
    205  CG       -19.3240   -2.3210   12.7820 C.3   253  GLU253      0.1160
    206  CD       -20.2530   -2.2680   13.9860 C.2   253  GLU253      0.3649
    207  OE1      -20.6360   -1.1430   14.3830 O.co2 253  GLU253     -0.2457
    208  OE2      -20.6010   -3.3420   14.5320 O.co2 253  GLU253     -0.2457
    209  N        -18.0260   -8.4880    7.8440 N.3   256  ASP256     -0.1239
    210  CA       -17.0100   -7.7780    7.0520 C.3   256  ASP256      0.1674
    211  C        -15.6310   -7.7650    7.7260 C.2   256  ASP256      0.2266
    212  O        -14.6370   -8.0120    7.0450 O.2   256  ASP256     -0.2867
    213  CB       -17.4640   -6.3470    6.6990 C.3   256  ASP256      0.1410
    214  CG       -16.6150   -5.6630    5.6400 C.2   256  ASP256      0.3668
    215  OD1      -15.9230   -4.6840    5.9780 O.co2 256  ASP256     -0.2456
    216  OD2      -16.6570   -6.1000    4.4720 O.co2 256  ASP256     -0.2456
    217  N        -30.9030   -7.1030    4.6680 N.3   301  VAL301     -0.1245
    218  CA       -30.1590   -6.6420    3.4960 C.3   301  VAL301      0.1561
    219  C        -28.6440   -6.3880    3.7440 C.2   301  VAL301      0.2260
    220  O        -28.2300   -6.1850    4.8860 O.2   301  VAL301     -0.2867
    221  CB       -30.9220   -5.4360    2.8730 C.3   301  VAL301      0.0252
    222  CG1      -30.6300   -4.1250    3.6010 C.3   301  VAL301      0.0019
    223  CG2      -30.6780   -5.3160    1.3750 C.3   301  VAL301      0.0019
    224  N        -12.9450   -5.8000   -0.9720 N.3   401  HIS401     -0.1241
    225  CA       -14.0810   -5.4820   -1.8440 C.3   401  HIS401      0.1621
    226  C        -13.9370   -4.0670   -2.4390 C.2   401  HIS401      0.2264
    227  O        -13.1940   -3.2430   -1.9000 O.2   401  HIS401     -0.2867
    228  CB       -15.3870   -5.5770   -1.0350 C.3   401  HIS401      0.0745
    229  CG       -15.3590   -4.7660    0.2240 C.ar  401  HIS401      0.0817
    230  ND1      -15.6830   -3.4220    0.2210 N.ar  401  HIS401     -0.2268
    231  CD2      -14.9900   -5.1240    1.4760 C.ar  401  HIS401      0.1154
    232  CE1      -15.5110   -3.0090    1.4660 C.ar  401  HIS401      0.1986
    233  NE2      -15.1080   -4.0000    2.2600 N.ar  401  HIS401     -0.2212
@<TRIPOS>BOND
     1   226   227    2
     2   226   225    1
     3   225   228    1
     4   225   224    1
     5   228   229    1
     6    61    62    1
     7    68    66    1
     8    62    63    1
     9    62    65    1
    10    52    51    2
    11    51    50    1
    12    74    75    1
    13   230   229   ar
    14   230   232   ar
    15   229   231   ar
    16    66    65    1
    17    66    67    1
    18    64    63    2
    19    55    57   ar
    20    55    54   ar
    21    63    69   am
    22    57    59   ar
    23    71    72    2
    24    71    70    1
    25   103   104    2
    26   103   102    1
    27    32    33    2
    28    32    31    1
    29    69    70    1
    30    53    50    1
    31    53    54    1
    32    50    49    1
    33    41    42    1
    34   223   221    1
    35    54    56   ar
    36    75    76    1
    37    75    78    1
    38    23    24    1
    39   232   233   ar
    40   231   233   ar
    41    49    43   am
    42    80    79    2
    43    76    77    2
    44   102   101    1
    45   102   105    1
    46    70    73    1
    47    59    60    1
    48    59    58   ar
    49    78    79    1
    50    79    81   am
    51    43    44    2
    52    43    42    1
    53    26    25    2
    54    31    30    1
    55    31    34    1
    56    42    45    1
    57    25    30   am
    58    25    24    1
    59    24    27    1
    60    34    35    1
    61    56    58   ar
    62   221   218    1
    63   221   222    1
    64   105   106    1
    65   218   219    1
    66   218   217    1
    67   111   113   ar
    68   111   108   ar
    69    45    46    1
    70   219   220    2
    71    27    28    1
    72    27    29    1
    73   106   108   ar
    74   106   107   ar
    75   113   114   ar
    76    35    36   ar
    77    35    37   ar
    78   108   110   ar
    79    46    48    1
    80    46    47    1
    81   216   214   ar
    82    36    38   ar
    83   107   109   ar
    84    37    39   ar
    85   114   112   ar
    86   110   109   ar
    87   110   112   ar
    88    88    87    1
    89    21    20   ar
    90    87    89    1
    91    87    86    1
    92   214   215   ar
    93   214   213    1
    94    17    16    1
    95    17    18    2
    96    38    40   ar
    97   115   116    1
    98    82    83    1
    99    39    40   ar
   100    16    15    1
   101    16    19    1
   102    20    22   ar
   103    20    19    1
   104   128   127   ar
   105   128   126   ar
   106     7     5    1
   107   127   125   ar
   108     8     6    1
   109   213   210    1
   110   126   124   ar
   111     6     5    1
   112    86    83    1
   113    13    10    1
   114    13    14    1
   115   212   211    2
   116   125   122   ar
   117   210   211    1
   118   210   209    1
   119    83    84    1
   120   117   116    1
   121   117   118    2
   122   124   122   ar
   123   124   123   ar
   124   116   119    1
   125    10    11    1
   126    10     9    1
   127   122   120   ar
   128     5     2    1
   129   123   121   ar
   130   138   139   ar
   131   138   136   ar
   132    11    12    2
   133   120   121   ar
   134   120   119    1
   135   139   137   ar
   136     2     3    1
   137     2     1    1
   138   150   148   ar
   139   150   149   ar
   140   136   134   ar
   141    84    90   am
   142    84    85    2
   143    90    91    1
   144   196   194   ar
   145   196   198   ar
   146   148   146   ar
   147   199   198    1
   148     3     4    2
   149   149   147   ar
   150   194   193   ar
   151   137   135   ar
   152    93    92    2
   153   134   135   ar
   154   134   133    1
   155   198   197   ar
   156   203   202    2
   157    92    91    1
   158    91    94    1
   159   133   130    1
   160   146   145   ar
   161   147   145   ar
   162   176   173    1
   163    94    95    1
   164   180   179    2
   165   202   201    1
   166   193   192    1
   167   193   195   ar
   168    95    96    1
   169   197   195   ar
   170   145   144    1
   171   201   200    1
   172   201   204    1
   173   192   189    1
   174   173   172    1
   175   173   174    1
   176   189   190    1
   177   189   188    1
   178   130   131    1
   179   130   129    1
   180   179   188   am
   181   179   178    1
   182   177   174   am
   183   177   178    1
   184   132   131    2
   185   131   140   am
   186   204   205    1
   187    96    97    1
   188   190   191    2
   189    97    98    2
   190   174   175    2
   191   140   141    1
   192   144   141    1
   193   178   181    1
   194   205   206    1
   195   141   142    1
   196    98   100    1
   197    98    99    1
   198   181   182    1
   199   184   182   ar
   200   184   186   ar
   201   206   207   ar
   202   206   208   ar
   203   182   183   ar
   204   186   187   ar
   205   142   151   am
   206   142   143    2
   207   151   152    1
   208   157   159   ar
   209   157   156   ar
   210   159   160   ar
   211   154   153    2
   212   183   185   ar
   213   187   185   ar
   214   152   155    1
   215   152   153    1
   216   156   155    1
   217   156   158   ar
   218   171   169    1
   219   160   158   ar
   220   160   162   ar
   221   170   169    1
   222   158   161   ar
   223   162   164   ar
   224   169   166    1
   225   165   166    1
   226   166   167    1
   227   161   163   ar
   228   164   163   ar
   229   167   168    2
