@<TRIPOS>MOLECULE
tmp/2xrhA00.pdb
 94 86 0 0 0
SMALL
GASTEIGER

@<TRIPOS>ATOM
      1  N         -0.2280   11.9880   -8.5080 N.3    24  GLY24      -0.1225
      2  CA         0.3850   10.6370   -8.6230 C.3    24  GLY24       0.1811
      3  C          1.4550   10.3150   -7.6040 C.2    24  GLY24       0.2280
      4  O          1.8800    9.1530   -7.5020 O.2    24  GLY24      -0.2866
      5  N         -4.2660   11.2210    0.7730 N.3    31  ILE31      -0.1245
      6  CA        -5.0300   11.2630   -0.4660 C.3    31  ILE31       0.1561
      7  C         -6.4350   11.7990   -0.3050 C.2    31  ILE31       0.2260
      8  O         -6.9200   12.4800   -1.2000 O.2    31  ILE31      -0.2867
      9  CB        -4.9960    9.9200   -1.2970 C.3    31  ILE31       0.0252
     10  CG1       -5.0500   10.2210   -2.8130 C.3    31  ILE31       0.0019
     11  CG2       -6.0480    8.8960   -0.8470 C.3    31  ILE31       0.0019
     12  CD1       -3.7180   10.9210   -3.3530 C.3    31  ILE31       0.0001
     13  N         -6.0450   15.5210   -0.0650 N.3    34  TYR34      -0.1227
     14  CA        -5.6700   16.0410   -1.3760 C.3    34  TYR34       0.1736
     15  C         -6.8710   16.1170   -2.3010 C.2    34  TYR34       0.2596
     16  O         -7.0860   17.1240   -2.9740 O.2    34  TYR34      -0.2718
     17  CB        -4.6120   15.1270   -1.9700 C.3    34  TYR34       0.0548
     18  CG        -4.0960   15.5090   -3.3550 C.ar   34  TYR34      -0.0200
     19  CD1       -3.3430   16.6290   -3.5760 C.ar   34  TYR34      -0.0009
     20  CD2       -4.3210   14.6460   -4.4330 C.ar   34  TYR34      -0.0009
     21  CE1       -2.8580   16.9400   -4.8630 C.ar   34  TYR34       0.0417
     22  CE2       -3.8390   14.9270   -5.6840 C.ar   34  TYR34       0.0417
     23  CZ        -3.1170   16.0630   -5.9130 C.ar   34  TYR34       0.1957
     24  OH        -2.6360   16.3390   -7.1760 O.3    34  TYR34      -0.2866
     25  N         -7.6410   15.0590   -2.3570 N.am   35  THR35      -0.1953
     26  CA        -8.8040   14.9640   -3.2290 C.3    35  THR35       0.1897
     27  C         -9.8620   15.9840   -2.8260 C.2    35  THR35       0.2313
     28  O        -10.4080   16.6690   -3.6790 O.2    35  THR35      -0.2863
     29  CB        -9.3780   13.5490   -3.1690 C.3    35  THR35       0.1794
     30  OG1       -8.3720   12.6020   -3.5600 O.3    35  THR35      -0.2208
     31  CG2      -10.5980   13.3720   -4.0350 C.3    35  THR35       0.0378
     32  N         -8.6110   19.3570   -4.0950 N.3    38  LEU38      -0.1245
     33  CA        -8.7660   19.4710   -5.5520 C.3    38  LEU38       0.1561
     34  C        -10.2040   19.7490   -5.8970 C.2    38  LEU38       0.2260
     35  O        -10.4540   20.6220   -6.6980 O.2    38  LEU38      -0.2867
     36  CB        -8.2980   18.1830   -6.2290 C.3    38  LEU38       0.0270
     37  CG        -6.8150   17.8530   -6.3290 C.3    38  LEU38       0.0019
     38  CD1       -6.6760   16.5100   -7.0820 C.3    38  LEU38       0.0001
     39  CD2       -6.0120   18.9700   -6.9950 C.3    38  LEU38       0.0001
     40  N          0.4970    1.3290   -4.5690 N.3    76  ARG76      -0.1231
     41  CA        -0.0260    2.6580   -4.2400 C.3    76  ARG76       0.1694
     42  C         -1.5060    2.8130   -4.5960 C.2    76  ARG76       0.2591
     43  O         -2.2900    3.3460   -3.7830 O.2    76  ARG76      -0.2718
     44  CB         0.8130    3.7370   -4.9160 C.3    76  ARG76       0.0321
     45  CG         0.3830    5.0860   -4.5080 C.3    76  ARG76       0.0489
     46  CD         1.0250    6.1790   -5.2870 C.3    76  ARG76       0.2205
     47  NE         0.4730    7.5010   -4.9680 N.pl3  76  ARG76      -0.0865
     48  CZ        -0.5180    8.1230   -5.6050 C.cat  76  ARG76       0.5346
     49  NH1       -1.1850    7.6310   -6.6500 N.pl3  76  ARG76       0.1354
     50  NH2       -0.8340    9.3290   -5.2210 N.pl3  76  ARG76       0.1354
     51  N         -1.8970    2.3610   -5.7790 N.am   77  GLN77      -0.1979
     52  CA        -3.2520    2.5830   -6.2480 C.3    77  GLN77       0.1601
     53  C         -4.2400    1.8260   -5.3910 C.2    77  GLN77       0.2287
     54  O         -5.3490    2.3200   -5.1070 O.2    77  GLN77      -0.2864
     55  CB        -3.4010    2.2320   -7.7400 C.3    77  GLN77       0.0394
     56  CG        -2.7520    3.1560   -8.7490 C.3    77  GLN77       0.0908
     57  CD        -3.0600    4.6190   -8.4930 C.2    77  GLN77       0.2608
     58  OE1       -2.2410    5.2880   -7.9530 O.2    77  GLN77      -0.2717
     59  NE2       -4.2500    5.0700   -8.8530 N.am   77  GLN77      -0.0878
     60  N         -4.5990    3.7980   -2.2510 N.3    80  VAL80      -0.1245
     61  CA        -5.3640    4.9870   -2.5410 C.3    80  VAL80       0.1561
     62  C         -6.8520    4.6130   -2.5690 C.2    80  VAL80       0.2260
     63  O         -7.6710    5.2910   -1.9690 O.2    80  VAL80      -0.2867
     64  CB        -4.9120    5.6930   -3.8500 C.3    80  VAL80       0.0252
     65  CG1       -5.9830    6.6310   -4.3360 C.3    80  VAL80       0.0019
     66  CG2       -3.5690    6.4450   -3.6240 C.3    80  VAL80       0.0019
     67  N         -9.5990    6.1640   -0.0390 N.3    84  LEU84      -0.1245
     68  CA       -10.7240    6.9130   -0.5080 C.3    84  LEU84       0.1561
     69  C        -12.0210    6.3040    0.0280 C.2    84  LEU84       0.2260
     70  O        -12.9340    7.0530    0.4070 O.2    84  LEU84      -0.2867
     71  CB       -10.7780    6.9320   -2.0280 C.3    84  LEU84       0.0270
     72  CG        -9.7580    7.8670   -2.6570 C.3    84  LEU84       0.0019
     73  CD1       -9.6810    7.5820   -4.2200 C.3    84  LEU84       0.0001
     74  CD2      -10.0410    9.3060   -2.3570 C.3    84  LEU84       0.0001
     75  N        -12.5370    5.9400   -7.4510 N.3    92  MET92      -0.1245
     76  CA       -11.8550    6.2940   -8.6840 C.3    92  MET92       0.1570
     77  C        -12.6490    5.7630   -9.8660 C.2    92  MET92       0.2261
     78  O        -13.1370    4.6200   -9.8390 O.2    92  MET92      -0.2867
     79  CB       -10.4600    5.6520   -8.7400 C.3    92  MET92       0.0387
     80  CG        -9.4030    6.3240   -7.8800 C.3    92  MET92       0.0595
     81  SD        -7.7880    5.4840   -8.0600 S.3    92  MET92      -0.1393
     82  CE        -8.2340    4.0260   -7.1120 C.3    92  MET92       0.0692
     83  N         -5.9390    5.5930  -11.7200 N.3    97  GLY97      -0.1210
     84  CA        -6.1350    6.8850  -11.1010 C.3    97  GLY97       0.1956
     85  C         -6.0810    8.0840  -12.0220 C.2    97  GLY97       0.2611
     86  O         -6.6930    8.1100  -13.0990 O.2    97  GLY97      -0.2717
     87  N         -5.2970    9.0880  -11.6080 N.am   98  LEU98      -0.1979
     88  CA        -5.2600   10.3340  -12.2940 C.3    98  LEU98       0.1596
     89  C         -4.4810   10.2440  -13.5910 C.2    98  LEU98       0.2287
     90  O         -4.5580   11.1600  -14.3720 O.2    98  LEU98      -0.2864
     91  CB        -4.6730   11.4490  -11.4070 C.3    98  LEU98       0.0297
     92  CG        -5.6090   12.1540  -10.4280 C.3    98  LEU98       0.0022
     93  CD1       -4.8180   13.0290   -9.4540 C.3    98  LEU98       0.0001
     94  CD2       -6.7410   12.9090  -11.1580 C.3    98  LEU98       0.0001
@<TRIPOS>BOND
     1    90    89    2
     2    89    88    1
     3    86    85    2
     4    88    87    1
     5    88    91    1
     6    85    87   am
     7    85    84    1
     8    83    84    1
     9    91    92    1
    10    94    92    1
    11    92    93    1
    12    77    78    2
    13    77    76    1
    14    59    57   am
    15    56    57    1
    16    56    55    1
    17    79    76    1
    18    79    80    1
    19    76    75    1
    20     2     1    1
    21     2     3    1
    22    57    58    2
    23    81    80    1
    24    81    82    1
    25    55    52    1
    26     3     4    2
    27    24    23    1
    28    38    37    1
    29    39    37    1
    30    35    34    2
    31    49    48    1
    32    37    36    1
    33    52    51    1
    34    52    53    1
    35    36    33    1
    36    23    22   ar
    37    23    21   ar
    38    34    33    1
    39    51    42   am
    40    22    20   ar
    41    48    50    1
    42    48    47    2
    43    33    32    1
    44    53    54    2
    45    46    47    1
    46    46    45    1
    47    44    45    1
    48    44    41    1
    49    21    19   ar
    50    42    41    1
    51    42    43    2
    52    40    41    1
    53    20    18   ar
    54    65    64    1
    55    73    72    1
    56    31    29    1
    57    64    66    1
    58    64    61    1
    59    28    27    2
    60    19    18   ar
    61    30    29    1
    62    18    17    1
    63    12    10    1
    64    26    29    1
    65    26    27    1
    66    26    25    1
    67    16    15    2
    68    10     9    1
    69    72    74    1
    70    72    71    1
    71    62    61    1
    72    62    63    2
    73    61    60    1
    74    25    15   am
    75    15    14    1
    76    71    68    1
    77    17    14    1
    78    14    13    1
    79     9    11    1
    80     9     6    1
    81     8     7    2
    82    68    67    1
    83    68    69    1
    84     6     7    1
    85     6     5    1
    86    69    70    2
