@<TRIPOS>MOLECULE
tmp/2xrmA00.pdb
 129 124 0 0 0
SMALL
GASTEIGER

@<TRIPOS>ATOM
      1  N         -7.1160  -58.6550   -5.2650 N.3   153  VAL153     -0.1245
      2  CA        -7.9320  -59.5110   -4.4580 C.3   153  VAL153      0.1561
      3  C         -7.2790  -59.8550   -3.1140 C.2   153  VAL153      0.2260
      4  O         -7.9570  -59.8510   -2.0790 O.2   153  VAL153     -0.2867
      5  CB        -8.3730  -60.7190   -5.2930 C.3   153  VAL153      0.0252
      6  CG1       -8.8450  -61.8500   -4.4460 C.3   153  VAL153      0.0019
      7  CG2       -9.4660  -60.2600   -6.1920 C.3   153  VAL153      0.0019
      8  N        -12.1620  -55.6860   -4.2070 N.3   158  SER158     -0.1202
      9  CA       -13.0720  -56.5330   -4.9840 C.3   158  SER158      0.2020
     10  C        -13.0420  -56.0780   -6.4210 C.2   158  SER158      0.2618
     11  O        -13.0850  -54.8680   -6.7020 O.2   158  SER158     -0.2717
     12  CB       -14.5020  -56.5020   -4.4290 C.3   158  SER158      0.2103
     13  OG       -14.5240  -56.8780   -3.0570 O.3   158  SER158     -0.2182
     14  N        -12.9610  -57.0380   -7.3360 N.am  159  VAL159     -0.1979
     15  CA       -12.7900  -56.6900   -8.7270 C.3   159  VAL159      0.1595
     16  C        -14.0050  -57.1130   -9.5410 C.2   159  VAL159      0.2287
     17  O        -14.3110  -58.3070   -9.6630 O.2   159  VAL159     -0.2864
     18  CB       -11.4620  -57.2650   -9.3160 C.3   159  VAL159      0.0276
     19  CG1      -11.3010  -56.8210  -10.7750 C.3   159  VAL159      0.0022
     20  CG2      -10.2260  -56.8400   -8.4490 C.3   159  VAL159      0.0022
     21  N        -12.7960  -60.8140  -16.7800 N.3   180  ALA180     -0.1245
     22  CA       -13.9680  -61.5290  -16.2780 C.3   180  ALA180      0.1562
     23  C        -13.7680  -63.0130  -16.2220 C.2   180  ALA180      0.2260
     24  O        -14.4360  -63.7020  -15.4640 O.2   180  ALA180     -0.2867
     25  CB       -15.2120  -61.2230  -17.1320 C.3   180  ALA180      0.0290
     26  N        -11.1210  -64.7730  -15.3500 N.3   182  TYR182     -0.1227
     27  CA       -10.4100  -65.2400  -14.1400 C.3   182  TYR182      0.1736
     28  C        -11.3330  -65.4170  -12.9580 C.2   182  TYR182      0.2595
     29  O        -12.2380  -64.6080  -12.7150 O.2   182  TYR182     -0.2718
     30  CB        -9.3980  -64.2190  -13.6860 C.3   182  TYR182      0.0548
     31  CG        -8.2970  -63.9130  -14.6420 C.ar  182  TYR182     -0.0200
     32  CD1       -7.4270  -64.9090  -15.0660 C.ar  182  TYR182     -0.0009
     33  CD2       -8.0880  -62.6100  -15.0920 C.ar  182  TYR182     -0.0009
     34  CE1       -6.3770  -64.6250  -15.9350 C.ar  182  TYR182      0.0417
     35  CE2       -7.0250  -62.3090  -15.9650 C.ar  182  TYR182      0.0417
     36  CZ        -6.1700  -63.3290  -16.3800 C.ar  182  TYR182      0.1957
     37  OH        -5.1170  -63.0660  -17.2410 O.3   182  TYR182     -0.2866
     38  N        -11.0590  -66.4370  -12.1760 N.am  183  ASN183     -0.1960
     39  CA       -11.8930  -66.8180  -11.0600 C.3   183  ASN183      0.1819
     40  C        -12.0270  -65.7960   -9.9120 C.2   183  ASN183      0.2621
     41  O        -13.1210  -65.6500   -9.3210 O.2   183  ASN183     -0.2715
     42  CB       -11.3600  -68.1390  -10.5230 C.3   183  ASN183      0.1195
     43  CG       -12.1940  -68.6910   -9.4000 C.2   183  ASN183      0.2630
     44  OD1      -11.8050  -68.5800   -8.2560 O.2   183  ASN183     -0.2716
     45  ND2      -13.3370  -69.3080   -9.7160 N.am  183  ASN183     -0.0877
     46  N        -10.9200  -65.1140   -9.6100 N.am  184  GLU184     -0.1963
     47  CA       -10.7640  -64.1720   -8.5030 C.3   184  GLU184      0.1733
     48  C        -11.6170  -62.9130   -8.6630 C.2   184  GLU184      0.2616
     49  O        -11.7670  -62.1100   -7.7490 O.2   184  GLU184     -0.2715
     50  CB        -9.2970  -63.7380   -8.3950 C.3   184  GLU184      0.0429
     51  CG        -8.3360  -64.8410   -7.9530 C.3   184  GLU184      0.1163
     52  CD        -7.6770  -65.6010   -9.1330 C.2   184  GLU184      0.3649
     53  OE1       -8.0460  -65.3320  -10.3040 O.co2 184  GLU184     -0.2457
     54  OE2       -6.7830  -66.4650   -8.8670 O.co2 184  GLU184     -0.2457
     55  N        -12.1660  -62.7500   -9.8450 N.am  185  VAL185     -0.1963
     56  CA       -12.8670  -61.5430  -10.2360 C.3   185  VAL185      0.1727
     57  C        -14.3470  -61.7880  -10.0140 C.2   185  VAL185      0.2616
     58  O        -14.7750  -62.9410   -9.9090 O.2   185  VAL185     -0.2715
     59  CB       -12.5480  -61.3290  -11.7320 C.3   185  VAL185      0.0290
     60  CG1      -13.7500  -60.9150  -12.5290 C.3   185  VAL185      0.0023
     61  CG2      -11.3870  -60.3840  -11.8670 C.3   185  VAL185      0.0023
     62  N        -15.1380  -60.7260   -9.9440 N.am  186  ILE186     -0.1963
     63  CA       -16.5750  -60.9020   -9.9160 C.3   186  ILE186      0.1727
     64  C        -17.0510  -60.5800  -11.3150 C.2   186  ILE186      0.2616
     65  O        -17.0340  -59.4150  -11.7380 O.2   186  ILE186     -0.2715
     66  CB       -17.2580  -60.0370   -8.8000 C.3   186  ILE186      0.0290
     67  CG1      -17.0740  -60.7180   -7.4440 C.3   186  ILE186      0.0022
     68  CG2      -18.7760  -59.8360   -9.0360 C.3   186  ILE186      0.0023
     69  CD1      -16.9760  -59.7220   -6.2820 C.3   186  ILE186      0.0001
     70  N        -17.4660  -61.6220  -12.0370 N.am  187  ALA187     -0.1977
     71  CA       -17.7580  -61.5000  -13.4740 C.3   187  ALA187      0.1597
     72  C        -19.2580  -61.4140  -13.6510 C.2   187  ALA187      0.2287
     73  O        -20.0080  -62.2890  -13.1730 O.2   187  ALA187     -0.2864
     74  CB       -17.1980  -62.6710  -14.2240 C.3   187  ALA187      0.0319
     75  N        -17.8390  -71.0060  -17.2390 N.3   205  GLU205     -0.1231
     76  CA       -17.8800  -71.6430  -15.9250 C.3   205  GLU205      0.1699
     77  C        -17.4140  -70.6700  -14.8210 C.2   205  GLU205      0.2592
     78  O        -17.3040  -71.0370  -13.6610 O.2   205  GLU205     -0.2718
     79  CB       -17.0660  -72.9470  -15.9120 C.3   205  GLU205      0.0402
     80  CG       -17.6780  -74.1000  -16.7360 C.3   205  GLU205      0.1161
     81  CD       -16.8370  -75.4150  -16.7280 C.2   205  GLU205      0.3649
     82  OE1      -15.6540  -75.4160  -16.3060 O.co2 205  GLU205     -0.2457
     83  OE2      -17.3620  -76.4700  -17.1660 O.co2 205  GLU205     -0.2457
     84  N        -17.1880  -69.4200  -15.1860 N.am  206  GLU206     -0.1966
     85  CA       -16.6460  -68.4350  -14.2700 C.3   206  GLU206      0.1733
     86  C        -17.5490  -67.1870  -14.0860 C.2   206  GLU206      0.2616
     87  O        -17.0680  -66.0950  -13.7490 O.2   206  GLU206     -0.2715
     88  CB       -15.2480  -67.9760  -14.7600 C.3   206  GLU206      0.0429
     89  CG       -14.1140  -69.0100  -14.7270 C.3   206  GLU206      0.1163
     90  CD       -13.8170  -69.6200  -13.3540 C.2   206  GLU206      0.3649
     91  OE1      -14.1630  -69.0370  -12.3030 O.co2 206  GLU206     -0.2457
     92  OE2      -13.2020  -70.7040  -13.3140 O.co2 206  GLU206     -0.2457
     93  N        -18.8410  -67.3170  -14.3200 N.am  207  ILE207     -0.1963
     94  CA       -19.7080  -66.1480  -14.2350 C.3   207  ILE207      0.1727
     95  C        -20.2250  -66.1180  -12.7920 C.2   207  ILE207      0.2616
     96  O        -20.5720  -67.1650  -12.2470 O.2   207  ILE207     -0.2715
     97  CB       -20.8860  -66.2610  -15.2750 C.3   207  ILE207      0.0290
     98  CG1      -20.3620  -66.0790  -16.7130 C.3   207  ILE207      0.0022
     99  CG2      -22.0610  -65.3240  -14.9200 C.3   207  ILE207      0.0023
    100  CD1      -19.7400  -64.6880  -17.0030 C.3   207  ILE207      0.0001
    101  N        -20.2820  -64.9420  -12.1730 N.am  208  ASP208     -0.1971
    102  CA       -20.6880  -64.8970  -10.7630 C.3   208  ASP208      0.1709
    103  C        -22.1500  -64.5040  -10.6120 C.2   208  ASP208      0.2293
    104  O        -22.8770  -65.0480   -9.7700 O.2   208  ASP208     -0.2864
    105  CB       -19.7570  -64.0060   -9.9410 C.3   208  ASP208      0.1436
    106  CG       -18.2970  -64.5310   -9.9250 C.2   208  ASP208      0.3671
    107  OD1      -17.9640  -65.4490   -9.1040 O.co2 208  ASP208     -0.2456
    108  OD2      -17.4340  -64.0220  -10.7160 O.co2 208  ASP208     -0.2456
    109  N        -12.3910  -59.9870    1.6990 N.3   259  GLU259     -0.1245
    110  CA       -12.8380  -60.2590    0.3400 C.3   259  GLU259      0.1567
    111  C        -13.7970  -61.4260    0.2560 C.2   259  GLU259      0.2260
    112  O        -14.8280  -61.2940   -0.3750 O.2   259  GLU259     -0.2867
    113  CB       -11.6480  -60.5590   -0.5690 C.3   259  GLU259      0.0388
    114  CG       -11.1780  -59.3570   -1.2840 C.3   259  GLU259      0.1160
    115  CD       -12.3070  -58.6520   -1.9630 C.2   259  GLU259      0.3649
    116  OE1      -12.9790  -59.2800   -2.8260 O.co2 259  GLU259     -0.2457
    117  OE2      -12.5360  -57.4760   -1.6060 O.co2 259  GLU259     -0.2457
    118  N        -17.8190  -61.2780   -0.8600 N.3   263  TYR263     -0.1241
    119  CA       -18.3510  -62.0780   -1.9180 C.3   263  TYR263      0.1605
    120  C        -19.5740  -62.8980   -1.4090 C.2   263  TYR263      0.2264
    121  O        -20.6260  -62.8540   -2.0390 O.2   263  TYR263     -0.2867
    122  CB       -17.2630  -62.9980   -2.5170 C.3   263  TYR263      0.0534
    123  CG       -17.7780  -63.9120   -3.6430 C.ar  263  TYR263     -0.0201
    124  CD1      -18.1040  -63.3920   -4.9110 C.ar  263  TYR263     -0.0009
    125  CD2      -17.9610  -65.2580   -3.4360 C.ar  263  TYR263     -0.0009
    126  CE1      -18.5680  -64.2230   -5.9570 C.ar  263  TYR263      0.0417
    127  CE2      -18.4220  -66.1040   -4.4880 C.ar  263  TYR263      0.0417
    128  CZ       -18.7170  -65.5650   -5.7330 C.ar  263  TYR263      0.1957
    129  OH       -19.1940  -66.3800   -6.7480 O.3   263  TYR263     -0.2866
@<TRIPOS>BOND
     1    37    36    1
     2    75    76    1
     3    83    81   ar
     4    25    22    1
     5   100    98    1
     6    21    22    1
     7    80    81    1
     8    80    79    1
     9    81    82   ar
    10    98    97    1
    11    36    35   ar
    12    36    34   ar
    13    22    23    1
    14    23    24    2
    15    35    33   ar
    16    34    32   ar
    17    76    79    1
    18    76    77    1
    19    26    27    1
    20    97    99    1
    21    97    94    1
    22    84    77   am
    23    84    85    1
    24    33    31   ar
    25    32    31   ar
    26    77    78    2
    27    88    89    1
    28    88    85    1
    29    89    90    1
    30    31    30    1
    31    93    94    1
    32    93    86   am
    33    85    86    1
    34    94    95    1
    35    74    71    1
    36    27    30    1
    37    27    28    1
    38    86    87    2
    39    72    71    1
    40    72    73    2
    41    71    70    1
    42    90    92   ar
    43    90    91   ar
    44    28    29    2
    45    28    38   am
    46    95    96    2
    47    95   101   am
    48    60    59    1
    49    38    39    1
    50   101   102    1
    51    70    64   am
    52    61    59    1
    53    65    64    2
    54    59    56    1
    55    64    63    1
    56    39    42    1
    57    39    40    1
    58    19    18    1
    59   102   103    1
    60   102   105    1
    61   108   106   ar
    62   103   104    2
    63    42    43    1
    64    53    52   ar
    65    56    57    1
    66    56    55    1
    67    57    62   am
    68    57    58    2
    69    62    63    1
    70   105   106    1
    71   106   107   ar
    72    63    66    1
    73    40    46   am
    74    40    41    2
    75    55    48   am
    76    45    43   am
    77    17    16    2
    78    46    47    1
    79    16    15    1
    80    43    44    2
    81    18    15    1
    82    18    20    1
    83    52    54   ar
    84    52    51    1
    85    68    66    1
    86    66    67    1
    87    15    14    1
    88    48    47    1
    89    48    49    2
    90    47    50    1
    91    50    51    1
    92    67    69    1
    93    14    10   am
    94   129   128    1
    95    11    10    2
    96    10     9    1
    97     7     5    1
    98   126   128   ar
    99   126   124   ar
   100   128   127   ar
   101     5     2    1
   102     5     6    1
   103     1     2    1
   104     9    12    1
   105     9     8    1
   106   124   123   ar
   107   127   125   ar
   108     2     3    1
   109    12    13    1
   110   123   125   ar
   111   123   122    1
   112     3     4    2
   113   116   115   ar
   114   122   119    1
   115   121   120    2
   116   115   117   ar
   117   115   114    1
   118   119   120    1
   119   119   118    1
   120   114   113    1
   121   113   110    1
   122   112   111    2
   123   111   110    1
   124   110   109    1
