@<TRIPOS>MOLECULE
tmp/2xrqA00.pdb
 122 120 0 0 0
SMALL
GASTEIGER

@<TRIPOS>ATOM
      1  N          9.1710   26.1530    4.0170 N.3    11  GLU11      -0.1231
      2  CA         7.8420   25.6690    3.6350 C.3    11  GLU11       0.1699
      3  C          6.8840   25.6710    4.8270 C.2    11  GLU11       0.2592
      4  O          5.7320   25.2540    4.7040 O.2    11  GLU11      -0.2718
      5  CB         7.9140   24.2660    2.9990 C.3    11  GLU11       0.0402
      6  CG         8.4470   24.2450    1.5600 C.3    11  GLU11       0.1161
      7  CD         8.5540   22.8360    0.9840 C.2    11  GLU11       0.3649
      8  OE1        9.0580   21.9210    1.6640 O.co2  11  GLU11      -0.2457
      9  OE2        8.1410   22.6500   -0.1770 O.co2  11  GLU11      -0.2457
     10  N          7.3590   26.1500    5.9740 N.am   12  TYR12      -0.1962
     11  CA         6.5480   26.1970    7.1940 C.3    12  TYR12       0.1771
     12  C          6.4990   27.5900    7.8090 C.2    12  TYR12       0.2619
     13  O          7.3250   28.4560    7.4800 O.2    12  TYR12      -0.2715
     14  CB         7.0790   25.1990    8.2230 C.3    12  TYR12       0.0574
     15  CG         6.9580   23.7870    7.7370 C.ar   12  TYR12      -0.0198
     16  CD1        7.8970   23.2430    6.8610 C.ar   12  TYR12      -0.0009
     17  CD2        5.8820   23.0070    8.1110 C.ar   12  TYR12      -0.0009
     18  CE1        7.7620   21.9650    6.3760 C.ar   12  TYR12       0.0417
     19  CE2        5.7410   21.7270    7.6410 C.ar   12  TYR12       0.0417
     20  CZ         6.6800   21.2140    6.7690 C.ar   12  TYR12       0.1957
     21  OH         6.5340   19.9290    6.3170 O.3    12  TYR12      -0.2866
     22  N          5.5220   27.8000    8.6920 N.am   13  ARG13      -0.1963
     23  CA         5.4230   29.0360    9.4670 C.3    13  ARG13       0.1729
     24  C          6.0140   28.8220   10.8640 C.2    13  ARG13       0.2616
     25  O          6.0890   27.6740   11.3500 O.2    13  ARG13      -0.2715
     26  CB         3.9700   29.5170    9.5440 C.3    13  ARG13       0.0348
     27  CG         3.3200   29.7310    8.1810 C.3    13  ARG13       0.0492
     28  CD         2.1380   30.6440    8.2990 C.3    13  ARG13       0.2205
     29  NE         1.0320   30.0290    9.0370 N.pl3  13  ARG13      -0.0865
     30  CZ         0.1680   30.7090    9.7930 C.cat  13  ARG13       0.5346
     31  NH1        0.2870   32.0260    9.9360 N.pl3  13  ARG13       0.1354
     32  NH2       -0.8160   30.0730   10.4110 N.pl3  13  ARG13       0.1354
     33  N          6.4530   29.9190   11.4860 N.am   14  ASN14      -0.1972
     34  CA         7.0630   29.8920   12.8200 C.3    14  ASN14       0.1688
     35  C          8.3230   29.0110   12.8880 C.2    14  ASN14       0.2292
     36  O          8.5680   28.3310   13.8820 O.2    14  ASN14      -0.2864
     37  CB         6.0340   29.4590   13.8870 C.3    14  ASN14       0.1181
     38  CG         4.7580   30.3120   13.8650 C.2    14  ASN14       0.2629
     39  OD1        3.6470   29.7900   13.7900 O.2    14  ASN14      -0.2716
     40  ND2        4.9210   31.6240   13.9300 N.am   14  ASN14      -0.0877
     41  N          9.3270   17.4830   20.6820 N.3    51  GLU51      -0.1245
     42  CA         8.1010   17.5510   21.4530 C.3    51  GLU51       0.1567
     43  C          7.5130   16.1840   21.7640 C.2    51  GLU51       0.2260
     44  O          7.6760   15.2110   21.0090 O.2    51  GLU51      -0.2867
     45  CB         7.0520   18.3670   20.7030 C.3    51  GLU51       0.0388
     46  CG         7.3850   19.8260   20.5740 C.3    51  GLU51       0.1160
     47  CD         6.3250   20.5840   19.7890 C.2    51  GLU51       0.3649
     48  OE1        5.2500   20.8990   20.3610 O.co2  51  GLU51      -0.2457
     49  OE2        6.5640   20.8810   18.6080 O.co2  51  GLU51      -0.2457
     50  N         -1.6660   16.2030   19.5790 N.3    55  SER55      -0.1202
     51  CA        -2.6020   16.5360   18.4950 C.3    55  SER55       0.2020
     52  C         -2.0540   17.4840   17.4010 C.2    55  SER55       0.2619
     53  O         -2.6530   17.6180   16.3380 O.2    55  SER55      -0.2717
     54  CB        -3.9300   17.0370   19.0700 C.3    55  SER55       0.2103
     55  OG        -3.7330   18.2060   19.8330 O.3    55  SER55      -0.2182
     56  N         -0.9190   18.1360   17.6580 N.am   56  GLN56      -0.1965
     57  CA        -0.2790   18.9880   16.6560 C.3    56  GLN56       0.1733
     58  C          0.4810   18.1380   15.6110 C.2    56  GLN56       0.2616
     59  O          1.0560   18.6680   14.6580 O.2    56  GLN56      -0.2715
     60  CB         0.6650   20.0030   17.3280 C.3    56  GLN56       0.0408
     61  CG         1.9460   19.3980   17.9560 C.3    56  GLN56       0.0908
     62  CD         1.7570   18.8790   19.3890 C.2    56  GLN56       0.2608
     63  OE1        0.7020   18.3510   19.7400 O.2    56  GLN56      -0.2717
     64  NE2        2.7850   19.0410   20.2220 N.am   56  GLN56      -0.0878
     65  N          0.4930   16.8230   15.8120 N.am   57  HIS57      -0.1959
     66  CA         1.1780   15.9000   14.9200 C.3    57  HIS57       0.1787
     67  C          0.2010   15.0950   14.0800 C.2    57  HIS57       0.2620
     68  O         -0.8560   14.6730   14.5570 O.2    57  HIS57      -0.2715
     69  CB         2.0820   14.9540   15.7180 C.3    57  HIS57       0.0785
     70  CG         3.1720   15.6580   16.4700 C.ar   57  HIS57       0.0821
     71  ND1        3.2520   15.6430   17.8430 N.ar   57  HIS57      -0.2267
     72  CD2        4.1980   16.4370   16.0400 C.ar   57  HIS57       0.1154
     73  CE1        4.2910   16.3620   18.2320 C.ar   57  HIS57       0.1986
     74  NE2        4.8870   16.8510   17.1570 N.ar   57  HIS57      -0.2212
     75  N          0.5410   14.9050   12.8140 N.am   58  ILE58      -0.1977
     76  CA        -0.2500   14.0400   11.9490 C.3    58  ILE58       0.1596
     77  C          0.3430   12.6290   11.9760 C.2    58  ILE58       0.2287
     78  O          1.4530   12.4420   12.4900 O.2    58  ILE58      -0.2864
     79  CB        -0.4070   14.6370   10.5220 C.3    58  ILE58       0.0276
     80  CG1        0.9580   14.8320    9.8340 C.3    58  ILE58       0.0022
     81  CG2       -1.2080   15.9650   10.5880 C.3    58  ILE58       0.0022
     82  CD1        0.8400   15.2630    8.3430 C.3    58  ILE58       0.0001
     83  N          3.8690   11.6710   11.0070 N.3    61  GLN61      -0.1245
     84  CA         4.9460   12.1810   11.8410 C.3    61  GLN61       0.1566
     85  C          5.3630   11.2300   12.9810 C.2    61  GLN61       0.2260
     86  O          6.4500   11.3960   13.5350 O.2    61  GLN61      -0.2867
     87  CB         4.5670   13.5420   12.4180 C.3    61  GLN61       0.0367
     88  CG         4.8170   14.7100   11.4770 C.3    61  GLN61       0.0905
     89  CD         4.3390   16.0430   12.0610 C.2    61  GLN61       0.2608
     90  OE1        3.1510   16.2350   12.3080 O.2    61  GLN61      -0.2717
     91  NE2        5.2700   16.9690   12.2650 N.am   61  GLN61      -0.0878
     92  N         10.8300   25.0490   15.2800 N.3    88  TRP88      -0.1241
     93  CA         9.6470   25.8600   15.5000 C.3    88  TRP88       0.1605
     94  C          9.9350   26.7420   16.6910 C.2    88  TRP88       0.2264
     95  O         10.4160   26.2530   17.7270 O.2    88  TRP88      -0.2867
     96  CB         8.4350   24.9780   15.7920 C.3    88  TRP88       0.0550
     97  CG         7.8850   24.2470   14.5800 C.ar   88  TRP88       0.0003
     98  CD1        7.1260   24.7890   13.5740 C.ar   88  TRP88       0.0946
     99  CD2        8.0230   22.8470   14.2690 C.ar   88  TRP88       0.0152
    100  NE1        6.8040   23.8230   12.6550 N.ar   88  TRP88      -0.2442
    101  CE2        7.3360   22.6220   13.0510 C.ar   88  TRP88       0.0810
    102  CE3        8.6560   21.7670   14.9000 C.ar   88  TRP88       0.0012
    103  CZ2        7.2690   21.3570   12.4420 C.ar   88  TRP88       0.0191
    104  CZ3        8.5890   20.5010   14.3010 C.ar   88  TRP88       0.0001
    105  CH2        7.8960   20.3120   13.0800 C.ar   88  TRP88       0.0015
    106  N          7.6110   28.7930   18.2210 N.3    90  ASN90      -0.1225
    107  CA         6.4230   29.0090   19.0450 C.3    90  ASN90       0.1785
    108  C          6.2940   27.9660   20.1750 C.2    90  ASN90       0.2597
    109  O          5.2050   27.7750   20.7330 O.2    90  ASN90      -0.2718
    110  CB         5.1650   29.0170   18.1670 C.3    90  ASN90       0.1169
    111  CG         4.8930   27.6620   17.4970 C.2    90  ASN90       0.2627
    112  OD1        5.7600   26.7790   17.4340 O.2    90  ASN90      -0.2716
    113  ND2        3.6880   27.5040   16.9860 N.am   90  ASN90      -0.0877
    114  N          7.4080   27.2970   20.4880 N.am   91  LYS91      -0.1980
    115  CA         7.5000   26.3680   21.6130 C.3    91  LYS91       0.1596
    116  C          8.7300   26.6960   22.4830 C.2    91  LYS91       0.2287
    117  O          9.7180   27.2550   21.9880 O.2    91  LYS91      -0.2864
    118  CB         7.5780   24.9260   21.0930 C.3    91  LYS91       0.0298
    119  CG         6.3090   24.4030   20.4150 C.3    91  LYS91       0.0038
    120  CD         5.1370   24.2060   21.3990 C.3    91  LYS91       0.0206
    121  CE         3.7880   24.2570   20.6840 C.3    91  LYS91       0.1093
    122  NZ         3.7060   23.2910   19.5370 N.3    91  LYS91      -0.1314
@<TRIPOS>BOND
     1     9     7   ar
     2     7     6    1
     3     7     8   ar
     4     6     5    1
     5     5     2    1
     6     2     1    1
     7     2     3    1
     8     4     3    2
     9     3    10   am
    10    10    11    1
    11    21    20    1
    12    18    20   ar
    13    18    16   ar
    14    20    19   ar
    15    16    15   ar
    16    11    12    1
    17    11    14    1
    18    13    12    2
    19    19    17   ar
    20    15    17   ar
    21    15    14    1
    22    12    22   am
    23    27    28    1
    24    27    26    1
    25    28    29    1
    26    82    80    1
    27    22    23    1
    28    29    30    2
    29    23    26    1
    30    23    24    1
    31    30    31    1
    32    30    32    1
    33    80    79    1
    34    79    81    1
    35    79    76    1
    36    24    25    2
    37    24    33   am
    38    83    84    1
    39    88    89    1
    40    88    87    1
    41    33    34    1
    42    84    87    1
    43    84    85    1
    44    76    77    1
    45    76    75    1
    46    77    78    2
    47    89    91   am
    48    89    90    2
    49   103   101   ar
    50   103   105   ar
    51   100   101   ar
    52   100    98   ar
    53    75    67   am
    54    34    35    1
    55    34    37    1
    56    35    36    2
    57    85    86    2
    58   101    99   ar
    59   105   104   ar
    60    98    97   ar
    61    39    38    2
    62    38    37    1
    63    38    40   am
    64    67    68    2
    65    67    66    1
    66    99    97   ar
    67    99   102   ar
    68   104   102   ar
    69    97    96    1
    70    59    58    2
    71    66    69    1
    72    66    65    1
    73    92    93    1
    74    93    96    1
    75    93    94    1
    76    58    65   am
    77    58    57    1
    78    69    70    1
    79    72    70   ar
    80    72    74   ar
    81    53    52    2
    82    70    71   ar
    83    57    60    1
    84    57    56    1
    85    94    95    2
    86   113   111   am
    87    74    73   ar
    88    60    61    1
    89    52    56   am
    90    52    51    1
    91   112   111    2
    92   111   110    1
    93    71    73   ar
    94    61    62    1
    95   110   107    1
    96   106   107    1
    97    51    54    1
    98    51    50    1
    99    49    47   ar
   100   107   108    1
   101    54    55    1
   102    62    63    2
   103    62    64   am
   104   122   121    1
   105    47    48   ar
   106    47    46    1
   107   108   114   am
   108   108   109    2
   109   119   118    1
   110   119   120    1
   111   114   115    1
   112    46    45    1
   113    41    42    1
   114   121   120    1
   115    45    42    1
   116    44    43    2
   117   118   115    1
   118    42    43    1
   119   115   116    1
   120   117   116    2
