@<TRIPOS>MOLECULE
tmp/2xrsB00.pdb
 101 98 0 0 0
SMALL
GASTEIGER

@<TRIPOS>ATOM
      1  N          2.0610   27.9540  -15.3960 N.3    13  ARG13      -0.1231
      2  CA         1.2020   28.4180  -16.4890 C.3    13  ARG13       0.1694
      3  C          0.0680   27.4250  -16.7270 C.2    13  ARG13       0.2592
      4  O          0.1930   26.2390  -16.4110 O.2    13  ARG13      -0.2718
      5  CB         1.9900   28.6270  -17.7840 C.3    13  ARG13       0.0321
      6  CG         2.9100   29.8310  -17.7260 C.3    13  ARG13       0.0489
      7  CD         3.6760   30.0360  -19.0160 C.3    13  ARG13       0.2205
      8  NE         4.3680   31.3220  -18.9810 N.pl3  13  ARG13      -0.0865
      9  CZ         5.1710   31.7860  -19.9350 C.cat  13  ARG13       0.5346
     10  NH1        5.7530   32.9740  -19.7850 N.pl3  13  ARG13       0.1354
     11  NH2        5.4030   31.0710  -21.0300 N.pl3  13  ARG13       0.1354
     12  N         -1.0320   27.9240  -17.2810 N.am   14  ASN14      -0.1974
     13  CA        -2.1500   27.0700  -17.6810 C.3    14  ASN14       0.1688
     14  C         -2.7490   26.3090  -16.5050 C.2    14  ASN14       0.2292
     15  O         -3.1550   25.1660  -16.6650 O.2    14  ASN14      -0.2864
     16  CB        -1.7340   26.0420  -18.7670 C.3    14  ASN14       0.1181
     17  CG        -1.0870   26.6690  -19.9830 C.2    14  ASN14       0.2629
     18  OD1        0.0760   26.3890  -20.2770 O.2    14  ASN14      -0.2716
     19  ND2       -1.8290   27.4970  -20.7060 N.am   14  ASN14      -0.0877
     20  N         -3.1270   12.4900  -16.1960 N.3    51  GLU51      -0.1245
     21  CA        -2.7040   12.2280  -17.5780 C.3    51  GLU51       0.1567
     22  C         -1.8500   10.9670  -17.6750 C.2    51  GLU51       0.2260
     23  O         -1.1550   10.5760  -16.7200 O.2    51  GLU51      -0.2867
     24  CB        -1.8960   13.4020  -18.1370 C.3    51  GLU51       0.0388
     25  CG        -2.7020   14.6630  -18.4480 C.3    51  GLU51       0.1160
     26  CD        -1.8000   15.7840  -18.9330 C.2    51  GLU51       0.3649
     27  OE1       -1.4230   15.7860  -20.1210 O.co2  51  GLU51      -0.2457
     28  OE2       -1.4410   16.6620  -18.1250 O.co2  51  GLU51      -0.2457
     29  N          6.0240   13.0000  -22.5540 N.3    55  SER55      -0.1202
     30  CA         7.1730   13.9070  -22.6370 C.3    55  SER55       0.2020
     31  C          6.9480   15.2660  -21.9480 C.2    55  SER55       0.2619
     32  O          7.9100   16.0190  -21.7490 O.2    55  SER55      -0.2717
     33  CB         7.6600   14.0690  -24.0950 C.3    55  SER55       0.2103
     34  OG         6.5940   14.4690  -24.9310 O.3    55  SER55      -0.2182
     35  N          5.7020   15.5710  -21.5840 N.am   56  GLN56      -0.1965
     36  CA         5.3920   16.7740  -20.7910 C.3    56  GLN56       0.1733
     37  C          5.7380   16.5880  -19.3030 C.2    56  GLN56       0.2616
     38  O          5.6020   17.5260  -18.4940 O.2    56  GLN56      -0.2715
     39  CB         3.9180   17.1760  -20.9450 C.3    56  GLN56       0.0408
     40  CG         2.8920   16.2220  -20.2900 C.3    56  GLN56       0.0908
     41  CD         2.5020   15.0230  -21.1560 C.2    56  GLN56       0.2608
     42  OE1        3.3290   14.4580  -21.8900 O.2    56  GLN56      -0.2717
     43  NE2        1.2430   14.6010  -21.0410 N.am   56  GLN56      -0.0878
     44  N          6.1570   15.3690  -18.9460 N.am   57  HIS57      -0.1959
     45  CA         6.5680   15.0240  -17.5730 C.3    57  HIS57       0.1787
     46  C          8.0670   14.7880  -17.4710 C.2    57  HIS57       0.2620
     47  O          8.6450   14.1230  -18.3060 O.2    57  HIS57      -0.2715
     48  CB         5.8420   13.7660  -17.0710 C.3    57  HIS57       0.0785
     49  CG         4.3490   13.8760  -17.1150 C.ar   57  HIS57       0.0821
     50  ND1        3.5690   13.1480  -17.9870 N.ar   57  HIS57      -0.2267
     51  CD2        3.4960   14.6460  -16.3980 C.ar   57  HIS57       0.1154
     52  CE1        2.2970   13.4520  -17.7950 C.ar   57  HIS57       0.1986
     53  NE2        2.2250   14.3550  -16.8320 N.ar   57  HIS57      -0.2212
     54  N          8.6860   15.3460  -16.4410 N.am   58  ILE58      -0.1977
     55  CA        10.1040   15.0910  -16.1680 C.3    58  ILE58       0.1596
     56  C         10.2340   13.8410  -15.2880 C.2    58  ILE58       0.2287
     57  O          9.2440   13.3760  -14.7230 O.2    58  ILE58      -0.2864
     58  CB        10.8180   16.3360  -15.5420 C.3    58  ILE58       0.0276
     59  CG1       10.1430   16.7930  -14.2380 C.3    58  ILE58       0.0022
     60  CG2       10.8770   17.4780  -16.5510 C.3    58  ILE58       0.0022
     61  CD1       10.8480   18.0070  -13.5570 C.3    58  ILE58       0.0001
     62  N          8.6180   13.4700  -11.8970 N.3    61  GLN61      -0.1245
     63  CA         7.1650   13.3700  -11.8460 C.3    61  GLN61       0.1566
     64  C          6.6270   11.9410  -11.9580 C.2    61  GLN61       0.2260
     65  O          5.4630   11.7220  -11.6430 O.2    61  GLN61      -0.2867
     66  CB         6.4980   14.2610  -12.9050 C.3    61  GLN61       0.0367
     67  CG         6.5770   15.7630  -12.6340 C.3    61  GLN61       0.0905
     68  CD         5.9620   16.5790  -13.7760 C.2    61  GLN61       0.2608
     69  OE1        6.6130   16.8210  -14.8010 O.2    61  GLN61      -0.2717
     70  NE2        4.7020   16.9990  -13.6030 N.am   61  GLN61      -0.0878
     71  N         -4.2910   21.7220  -14.6730 N.3    88  TRP88      -0.1241
     72  CA        -3.9010   22.3290  -15.9180 C.3    88  TRP88       0.1605
     73  C         -5.1390   22.3870  -16.8020 C.2    88  TRP88       0.2264
     74  O         -5.7650   21.3600  -17.0590 O.2    88  TRP88      -0.2867
     75  CB        -2.8100   21.5140  -16.6090 C.3    88  TRP88       0.0550
     76  CG        -1.4650   21.6480  -15.9720 C.ar   88  TRP88       0.0003
     77  CD1       -0.6320   22.7230  -16.0320 C.ar   88  TRP88       0.0946
     78  CD2       -0.7970   20.6570  -15.1920 C.ar   88  TRP88       0.0152
     79  NE1        0.5260   22.4690  -15.3240 N.ar   88  TRP88      -0.2442
     80  CE2        0.4550   21.1940  -14.8150 C.ar   88  TRP88       0.0810
     81  CE3       -1.1210   19.3500  -14.7930 C.ar   88  TRP88       0.0012
     82  CZ2        1.3710   20.4780  -14.0400 C.ar   88  TRP88       0.0191
     83  CZ3       -0.2050   18.6370  -14.0260 C.ar   88  TRP88       0.0001
     84  CH2        1.0280   19.2030  -13.6550 C.ar   88  TRP88       0.0015
     85  N         -5.2350   23.4690  -19.9500 N.3    90  ASN90      -0.1225
     86  CA        -4.9520   23.2790  -21.3860 C.3    90  ASN90       0.1785
     87  C         -5.1140   21.8190  -21.8260 C.2    90  ASN90       0.2597
     88  O         -4.5740   21.4050  -22.8510 O.2    90  ASN90      -0.2718
     89  CB        -3.5630   23.8140  -21.7600 C.3    90  ASN90       0.1169
     90  CG        -2.4220   23.0410  -21.0980 C.2    90  ASN90       0.2627
     91  OD1       -2.5810   22.4080  -20.0370 O.2    90  ASN90      -0.2716
     92  ND2       -1.2480   23.0990  -21.7230 N.am   90  ASN90      -0.0877
     93  N         -5.8590   21.0510  -21.0380 N.am   91  LYS91      -0.1980
     94  CA        -6.1240   19.6360  -21.3270 C.3    91  LYS91       0.1596
     95  C         -7.5980   19.3590  -21.1010 C.2    91  LYS91       0.2287
     96  O         -8.2330   20.0320  -20.2780 O.2    91  LYS91      -0.2864
     97  CB        -5.2940   18.7100  -20.4260 C.3    91  LYS91       0.0298
     98  CG        -3.7620   18.7800  -20.6400 C.3    91  LYS91       0.0038
     99  CD        -3.3290   18.1550  -21.9720 C.3    91  LYS91       0.0206
    100  CE        -1.9130   18.5910  -22.3890 C.3    91  LYS91       0.1093
    101  NZ        -0.8640   18.2580  -21.3530 N.3    91  LYS91      -0.1314
@<TRIPOS>BOND
     1    34    33    1
     2    33    30    1
     3    88    87    2
     4    30    29    1
     5    30    31    1
     6   100    99    1
     7   100   101    1
     8    99    98    1
     9    31    32    2
    10    31    35   am
    11    42    41    2
    12    87    86    1
    13    87    93   am
    14    89    86    1
    15    89    90    1
    16    92    90   am
    17    35    36    1
    18    86    85    1
    19    94    95    1
    20    94    93    1
    21    94    97    1
    22    41    43   am
    23    41    40    1
    24    95    96    2
    25    90    91    2
    26    11     9    1
    27    39    36    1
    28    39    40    1
    29    36    37    1
    30    19    17   am
    31    98    97    1
    32    18    17    2
    33    27    26   ar
    34    17    16    1
    35     9    10    1
    36     9     8    2
    37    37    44   am
    38    37    38    2
    39     7     8    1
    40     7     6    1
    41    44    45    1
    42    26    25    1
    43    26    28   ar
    44    16    13    1
    45    25    24    1
    46    47    46    2
    47    24    21    1
    48    50    52   ar
    49    50    49   ar
    50    52    53   ar
    51     5     6    1
    52     5     2    1
    53    13    12    1
    54    13    14    1
    55    22    21    1
    56    22    23    2
    57    21    20    1
    58    45    46    1
    59    45    48    1
    60    46    54   am
    61    12     3   am
    62    49    48    1
    63    49    51   ar
    64    74    73    2
    65    53    51   ar
    66    73    72    1
    67     3     2    1
    68     3     4    2
    69    15    14    2
    70    75    76    1
    71    75    72    1
    72    60    58    1
    73     2     1    1
    74    54    55    1
    75    55    58    1
    76    55    56    1
    77    77    76   ar
    78    77    79   ar
    79    76    78   ar
    80    72    71    1
    81    58    59    1
    82    79    80   ar
    83    56    57    2
    84    78    80   ar
    85    78    81   ar
    86    80    82   ar
    87    69    68    2
    88    81    83   ar
    89    59    61    1
    90    82    84   ar
    91    83    84   ar
    92    68    70   am
    93    68    67    1
    94    66    67    1
    95    66    63    1
    96    64    63    1
    97    64    65    2
    98    62    63    1
