@<TRIPOS>MOLECULE
tmp/2xrsD00.pdb
 101 98 0 0 0
SMALL
GASTEIGER

@<TRIPOS>ATOM
      1  N         22.1690  -16.9270   14.7640 N.3    13  ARG13      -0.1231
      2  CA        22.9630  -16.5240   15.9260 C.3    13  ARG13       0.1694
      3  C         22.4800  -15.1470   16.3830 C.2    13  ARG13       0.2592
      4  O         21.9640  -14.3650   15.5760 O.2    13  ARG13      -0.2718
      5  CB        24.4510  -16.4260   15.5710 C.3    13  ARG13       0.0321
      6  CG        25.0950  -17.7170   15.1550 C.3    13  ARG13       0.0489
      7  CD        26.6020  -17.5070   15.0470 C.3    13  ARG13       0.2205
      8  NE        27.2430  -18.4380   14.1170 N.pl3  13  ARG13      -0.0865
      9  CZ        27.4350  -18.2080   12.8140 C.cat  13  ARG13       0.5346
     10  NH1       28.0420  -19.1250   12.0650 N.pl3  13  ARG13       0.1354
     11  NH2       27.0250  -17.0730   12.2480 N.pl3  13  ARG13       0.1354
     12  N         22.6800  -14.8620   17.6700 N.am   14  ASN14      -0.1974
     13  CA        22.3890  -13.5540   18.2580 C.3    14  ASN14       0.1688
     14  C         20.9210  -13.1800   18.1800 C.2    14  ASN14       0.2292
     15  O         20.6010  -12.0010   18.0190 O.2    14  ASN14      -0.2864
     16  CB        23.2420  -12.4300   17.6210 C.3    14  ASN14       0.1181
     17  CG        24.7140  -12.7540   17.5920 C.2    14  ASN14       0.2629
     18  OD1       25.3110  -12.9010   16.5230 O.2    14  ASN14      -0.2716
     19  ND2       25.3150  -12.8840   18.7690 N.am   14  ASN14      -0.0877
     20  N         16.4180   -2.0150   11.3800 N.3    51  GLU51      -0.1245
     21  CA        17.6940   -1.3630   11.1290 C.3    51  GLU51       0.1567
     22  C         17.7240   -0.6550    9.7700 C.2    51  GLU51       0.2260
     23  O         17.0000   -1.0260    8.8400 O.2    51  GLU51      -0.2867
     24  CB        18.8330   -2.3730   11.1480 C.3    51  GLU51       0.0388
     25  CG        19.1740   -2.9320   12.4960 C.3    51  GLU51       0.1160
     26  CD        20.2570   -3.9910   12.3760 C.2    51  GLU51       0.3649
     27  OE1       21.4500   -3.6180   12.2860 O.co2  51  GLU51      -0.2457
     28  OE2       19.9090   -5.1920   12.3600 O.co2  51  GLU51      -0.2457
     29  N         25.5200   -3.2700    5.0970 N.3    55  SER55      -0.1202
     30  CA        26.2780   -4.4190    4.5900 C.3    55  SER55       0.2020
     31  C         26.0300   -5.7310    5.3450 C.2    55  SER55       0.2619
     32  O         26.4590   -6.8000    4.8850 O.2    55  SER55      -0.2717
     33  CB        27.7670   -4.1080    4.5500 C.3    55  SER55       0.2103
     34  OG        28.2100   -3.6910    5.8240 O.3    55  SER55      -0.2182
     35  N         25.3360   -5.6490    6.4830 N.am   56  GLN56      -0.1965
     36  CA        24.9000   -6.8440    7.2210 C.3    56  GLN56       0.1733
     37  C         23.6440   -7.4710    6.5650 C.2    56  GLN56       0.2616
     38  O         23.0970   -8.4890    7.0510 O.2    56  GLN56      -0.2715
     39  CB        24.6310   -6.5030    8.7000 C.3    56  GLN56       0.0408
     40  CG        23.3800   -5.6450    8.9730 C.3    56  GLN56       0.0908
     41  CD        23.5960   -4.1340    8.8540 C.2    56  GLN56       0.2608
     42  OE1       24.3490   -3.6540    7.9970 O.2    56  GLN56      -0.2717
     43  NE2       22.8980   -3.3700    9.7040 N.am   56  GLN56      -0.0878
     44  N         23.1770   -6.8390    5.4810 N.am   57  HIS57      -0.1959
     45  CA        21.9920   -7.2950    4.7500 C.3    57  HIS57       0.1787
     46  C         22.3750   -7.7390    3.3570 C.2    57  HIS57       0.2620
     47  O         23.1420   -7.0580    2.6780 O.2    57  HIS57      -0.2715
     48  CB        20.9440   -6.1790    4.6510 C.3    57  HIS57       0.0785
     49  CG        20.4380   -5.6950    5.9800 C.ar   57  HIS57       0.0821
     50  ND1       20.6790   -4.4190    6.4430 N.ar   57  HIS57      -0.2267
     51  CD2       19.6970   -6.3070    6.9370 C.ar   57  HIS57       0.1154
     52  CE1       20.1120   -4.2630    7.6260 C.ar   57  HIS57       0.1986
     53  NE2       19.5130   -5.3970    7.9550 N.ar   57  HIS57      -0.2212
     54  N         21.8550   -8.8860    2.9360 N.am   58  ILE58      -0.1977
     55  CA        22.0260   -9.3570    1.5610 C.3    58  ILE58       0.1596
     56  C         20.9180   -8.7580    0.6740 C.2    58  ILE58       0.2287
     57  O         19.9130   -8.2280    1.1940 O.2    58  ILE58      -0.2864
     58  CB        22.0800  -10.9220    1.4770 C.3    58  ILE58       0.0276
     59  CG1       20.7940  -11.5530    2.0490 C.3    58  ILE58       0.0022
     60  CG2       23.3220  -11.4390    2.1890 C.3    58  ILE58       0.0022
     61  CD1       20.7840  -13.0950    2.0140 C.3    58  ILE58       0.0001
     62  N         17.2070   -9.3500    1.2000 N.3    61  GLN61      -0.1245
     63  CA        16.6140   -8.7010    2.3700 C.3    61  GLN61       0.1566
     64  C         16.1010   -7.2730    2.1150 C.2    61  GLN61       0.2260
     65  O         15.3180   -6.7520    2.9380 O.2    61  GLN61      -0.2867
     66  CB        17.5970   -8.6860    3.5560 C.3    61  GLN61       0.0367
     67  CG        17.8300  -10.0430    4.2310 C.3    61  GLN61       0.0905
     68  CD        18.8520   -9.9390    5.3600 C.2    61  GLN61       0.2608
     69  OE1       20.0630   -9.9080    5.0990 O.2    61  GLN61      -0.2717
     70  NE2       18.3740   -9.8640    6.6150 N.am   61  GLN61      -0.0878
     71  N         17.3600   -9.6440   16.7920 N.3    88  TRP88      -0.1241
     72  CA        18.7850   -9.7520   17.0200 C.3    88  TRP88       0.1605
     73  C         19.1230   -8.9250   18.2530 C.2    88  TRP88       0.2264
     74  O         18.8050   -7.7420   18.3410 O.2    88  TRP88      -0.2867
     75  CB        19.5790   -9.2650   15.8170 C.3    88  TRP88       0.0550
     76  CG        19.5460  -10.1810   14.6300 C.ar   88  TRP88       0.0003
     77  CD1       20.2310  -11.3470   14.4800 C.ar   88  TRP88       0.0946
     78  CD2       18.8140   -9.9810   13.4130 C.ar   88  TRP88       0.0152
     79  NE1       19.9600  -11.8990   13.2460 N.ar   88  TRP88      -0.2442
     80  CE2       19.1070  -11.0710   12.5660 C.ar   88  TRP88       0.0810
     81  CE3       17.9620   -8.9720   12.9470 C.ar   88  TRP88       0.0012
     82  CZ2       18.5610  -11.1940   11.2760 C.ar   88  TRP88       0.0191
     83  CZ3       17.4120   -9.0930   11.6560 C.ar   88  TRP88       0.0001
     84  CH2       17.7190  -10.2020   10.8420 C.ar   88  TRP88       0.0015
     85  N         22.1900   -8.3730   19.4250 N.3    90  ASN90      -0.1225
     86  CA        23.5070   -7.7290   19.3550 C.3    90  ASN90       0.1785
     87  C         23.4220   -6.3080   18.8020 C.2    90  ASN90       0.2597
     88  O         24.4070   -5.7630   18.3040 O.2    90  ASN90      -0.2718
     89  CB        24.4990   -8.5640   18.5460 C.3    90  ASN90       0.1169
     90  CG        24.0930   -8.7190   17.0790 C.2    90  ASN90       0.2627
     91  OD1       22.9280   -8.5600   16.7120 O.2    90  ASN90      -0.2716
     92  ND2       25.0600   -9.0410   16.2420 N.am   90  ASN90      -0.0877
     93  N         22.2390   -5.7160   18.9090 N.am   91  LYS91      -0.1980
     94  CA        21.9940   -4.3330   18.4760 C.3    91  LYS91       0.1596
     95  C         21.1610   -3.6420   19.5540 C.2    91  LYS91       0.2287
     96  O         20.3730   -4.3030   20.2350 O.2    91  LYS91      -0.2864
     97  CB        21.2260   -4.3030   17.1360 C.3    91  LYS91       0.0298
     98  CG        21.9610   -4.8800   15.9160 C.3    91  LYS91       0.0038
     99  CD        23.0900   -3.9670   15.4500 C.3    91  LYS91       0.0206
    100  CE        24.1200   -4.7270   14.5800 C.3    91  LYS91       0.1093
    101  NZ        23.4750   -5.3300   13.3460 N.3    91  LYS91      -0.1314
@<TRIPOS>BOND
     1    56    57    2
     2    56    55    1
     3    62    63    1
     4    58    55    1
     5    58    59    1
     6    58    60    1
     7    55    54    1
     8    61    59    1
     9    64    63    1
    10    64    65    2
    11    63    66    1
    12    47    46    2
    13    54    46   am
    14    46    45    1
    15    66    67    1
    16    67    68    1
    17    33    30    1
    18    33    34    1
    19    30    29    1
    20    30    31    1
    21    48    45    1
    22    48    49    1
    23    45    44    1
    24    32    31    2
    25    69    68    2
    26    31    35   am
    27    68    70   am
    28    44    37   am
    29    49    50   ar
    30    49    51   ar
    31    50    52   ar
    32    35    36    1
    33    37    38    2
    34    37    36    1
    35    51    53   ar
    36    36    39    1
    37    52    53   ar
    38    42    41    2
    39    39    40    1
    40    23    22    2
    41    41    40    1
    42    41    43   am
    43    22    21    1
    44    84    82   ar
    45    84    83   ar
    46    21    24    1
    47    21    20    1
    48    24    25    1
    49    82    80   ar
    50    83    81   ar
    51    10     9    1
    52    11     9    1
    53    27    26   ar
    54    28    26   ar
    55    26    25    1
    56    80    79   ar
    57    80    78   ar
    58     9     8    2
    59    81    78   ar
    60    79    77   ar
    61   101   100    1
    62    78    76   ar
    63     8     7    1
    64    77    76   ar
    65   100    99    1
    66    76    75    1
    67     1     2    1
    68     7     6    1
    69     6     5    1
    70    99    98    1
    71     5     2    1
    72     4     3    2
    73    75    72    1
    74    98    97    1
    75     2     3    1
    76    92    90   am
    77     3    12   am
    78    18    17    2
    79    91    90    2
    80    71    72    1
    81    72    73    1
    82    90    89    1
    83    97    94    1
    84    17    16    1
    85    17    19   am
    86    16    13    1
    87    12    13    1
    88    15    14    2
    89    14    13    1
    90    73    74    2
    91    88    87    2
    92    94    93    1
    93    94    95    1
    94    89    86    1
    95    87    93   am
    96    87    86    1
    97    86    85    1
    98    95    96    2
