@<TRIPOS>MOLECULE
tmp/2xruA00.pdb
 214 204 0 0 0
SMALL
GASTEIGER

@<TRIPOS>ATOM
      1  N         -6.0650   27.8630    4.5110 N.3    12  ARG12      -0.1245
      2  CA        -5.1920   28.0810    3.3670 C.3    12  ARG12       0.1563
      3  C         -3.8110   27.4990    3.6250 C.2    12  ARG12       0.2260
      4  O         -3.2420   27.6780    4.7060 O.2    12  ARG12      -0.2867
      5  CB        -5.0550   29.5770    3.0660 C.3    12  ARG12       0.0307
      6  CG        -4.1610   29.8820    1.8680 C.3    12  ARG12       0.0489
      7  CD        -4.3980   31.2710    1.3180 C.3    12  ARG12       0.2205
      8  NE        -3.6190   32.2460    2.0560 N.pl3  12  ARG12      -0.0865
      9  CZ        -2.3540   32.5540    1.7830 C.cat  12  ARG12       0.5346
     10  NH1       -1.7310   31.9560    0.7720 N.pl3  12  ARG12       0.1354
     11  NH2       -1.7010   33.4440    2.5390 N.pl3  12  ARG12       0.1354
     12  N          0.1250   27.6390    3.2410 N.3    14  LEU14      -0.1231
     13  CA         0.9980   28.7990    3.2320 C.3    14  LEU14       0.1693
     14  C          2.2890   28.4560    2.5190 C.2    14  LEU14       0.2593
     15  O          3.0160   29.3420    2.0750 O.2    14  LEU14      -0.2718
     16  CB         1.2970   29.2250    4.6610 C.3    14  LEU14       0.0284
     17  CG         0.0790   29.7590    5.3850 C.3    14  LEU14       0.0019
     18  CD1        0.3050   29.7950    6.8680 C.3    14  LEU14       0.0001
     19  CD2       -0.1930   31.1310    4.8520 C.3    14  LEU14       0.0001
     20  N          2.5660   27.1580    2.4260 N.am   15  GLY15      -0.1942
     21  CA         3.8090   26.6990    1.8390 C.3    15  GLY15       0.2014
     22  C          3.8390   25.1940    1.6740 C.2    15  GLY15       0.2639
     23  O          3.4100   24.4500    2.5640 O.2    15  GLY15      -0.2714
     24  N          4.3500   24.7560    0.5220 N.am   16  LYS16      -0.1963
     25  CA         4.4010   23.3400    0.1500 C.3    16  LYS16       0.1728
     26  C          5.8570   22.8810    0.0830 C.2    16  LYS16       0.2616
     27  O          6.5870   23.2420   -0.8380 O.2    16  LYS16      -0.2715
     28  CB         3.7440   23.1320   -1.2200 C.3    16  LYS16       0.0311
     29  CG         2.4650   23.9340   -1.4450 C.3    16  LYS16       0.0038
     30  CD         1.3030   23.3590   -0.6570 C.3    16  LYS16       0.0206
     31  CE         0.9580   21.9610   -1.1440 C.3    16  LYS16       0.1093
     32  NZ        -0.1610   21.3510   -0.3710 N.3    16  LYS16      -0.1314
     33  N          6.2760   22.0890    1.0620 N.am   17  GLY17      -0.1955
     34  CA         7.6620   21.6620    1.1150 C.3    17  GLY17       0.1869
     35  C          7.8300   20.2200    0.6890 C.2    17  GLY17       0.2309
     36  O          6.8450   19.5200    0.4490 O.2    17  GLY17      -0.2863
     37  N          9.3630   17.5830    2.5110 N.3    19  PHE19      -0.1227
     38  CA         8.9700   16.7280    3.6210 C.3    19  PHE19       0.1736
     39  C          7.5010   16.9260    3.9860 C.2    19  PHE19       0.2596
     40  O          6.7440   15.9610    4.1370 O.2    19  PHE19      -0.2718
     41  CB         9.8360   17.0290    4.8410 C.3    19  PHE19       0.0547
     42  CG        11.3040   16.8310    4.6060 C.ar   19  PHE19      -0.0202
     43  CD1       11.9330   17.4170    3.5200 C.ar   19  PHE19      -0.0042
     44  CD2       12.0600   16.0720    5.4810 C.ar   19  PHE19      -0.0042
     45  CE1       13.2870   17.2500    3.3130 C.ar   19  PHE19      -0.0003
     46  CE2       13.4140   15.9020    5.2800 C.ar   19  PHE19      -0.0003
     47  CZ        14.0280   16.4920    4.1940 C.ar   19  PHE19      -0.0000
     48  N          7.1010   18.1830    4.1330 N.am   20  GLY20      -0.1942
     49  CA         5.7120   18.4650    4.4240 C.3    20  GLY20       0.2014
     50  C          5.1690   19.6920    3.7240 C.2    20  GLY20       0.2639
     51  O          5.6920   20.1230    2.7000 O.2    20  GLY20      -0.2714
     52  N          4.0930   20.2360    4.2860 N.am   21  ASN21      -0.1958
     53  CA         3.5690   21.5380    3.9010 C.3    21  ASN21       0.1819
     54  C          3.2400   22.3030    5.1720 C.2    21  ASN21       0.2621
     55  O          3.4810   21.8210    6.2810 O.2    21  ASN21      -0.2715
     56  CB         2.3080   21.3720    3.0630 C.3    21  ASN21       0.1195
     57  CG         2.4130   20.2240    2.0900 C.2    21  ASN21       0.2630
     58  OD1        2.7380   20.4140    0.9180 O.2    21  ASN21      -0.2716
     59  ND2        2.1440   19.0180    2.5730 N.am   21  ASN21      -0.0877
     60  N          2.6850   23.4950    5.0110 N.am   22  VAL22      -0.1977
     61  CA         2.3610   24.3390    6.1560 C.3    22  VAL22       0.1596
     62  C          1.0950   25.1200    5.8810 C.2    22  VAL22       0.2287
     63  O          0.9120   25.6860    4.8080 O.2    22  VAL22      -0.2864
     64  CB         3.5260   25.3140    6.4830 C.3    22  VAL22       0.0276
     65  CG1        3.8260   26.2260    5.2940 C.3    22  VAL22       0.0022
     66  CG2        3.1920   26.1060    7.7170 C.3    22  VAL22       0.0022
     67  N          0.4110   29.0160   12.1780 N.3    35  ALA35      -0.1245
     68  CA         0.8410   28.2280   11.0340 C.3    35  ALA35       0.1562
     69  C          0.9990   26.7620   11.4610 C.2    35  ALA35       0.2260
     70  O          1.8300   26.4330   12.3130 O.2    35  ALA35      -0.2867
     71  CB         2.1500   28.7650   10.5080 C.3    35  ALA35       0.0290
     72  N          2.4390   23.5230   10.6010 N.3    37  LYS37      -0.1245
     73  CA         3.3760   22.8070    9.7530 C.3    37  LYS37       0.1561
     74  C          3.1870   21.3010    9.8870 C.2    37  LYS37       0.2260
     75  O          3.2190   20.7310   10.9870 O.2    37  LYS37      -0.2867
     76  CB         4.8030   23.1910   10.1130 C.3    37  LYS37       0.0271
     77  CG         5.7770   22.0500   10.0070 C.3    37  LYS37       0.0035
     78  CD         7.1700   22.5720    9.9910 C.3    37  LYS37       0.0206
     79  CE         7.3710   23.3290    8.7100 C.3    37  LYS37       0.1093
     80  NZ         8.4820   24.2750    8.8990 N.3    37  LYS37      -0.1314
     81  N          4.6910   17.9500    8.7260 N.3    39  LEU39      -0.1245
     82  CA         5.8010   17.1880    8.1740 C.3    39  LEU39       0.1561
     83  C          5.4100   15.7220    8.0730 C.2    39  LEU39       0.2260
     84  O          4.5000   15.2710    8.7650 O.2    39  LEU39      -0.2867
     85  CB         7.0240   17.3100    9.0790 C.3    39  LEU39       0.0270
     86  CG         7.6510   18.6800    9.3040 C.3    39  LEU39       0.0019
     87  CD1        8.7900   18.5150   10.3030 C.3    39  LEU39       0.0001
     88  CD2        8.1440   19.2680    7.9760 C.3    39  LEU39       0.0001
     89  N         10.6630   33.1890   15.0280 N.3    69  LEU69      -0.1245
     90  CA         9.3090   32.6300   15.0140 C.3    69  LEU69       0.1561
     91  C          9.1320   31.6170   16.1290 C.2    69  LEU69       0.2260
     92  O          9.9550   30.7320   16.3020 O.2    69  LEU69      -0.2867
     93  CB         9.0360   31.9480   13.6790 C.3    69  LEU69       0.0270
     94  CG         7.5950   31.9860   13.1950 C.3    69  LEU69       0.0019
     95  CD1        7.3100   33.3720   12.6700 C.3    69  LEU69       0.0001
     96  CD2        7.3760   30.9610   12.1140 C.3    69  LEU69       0.0001
     97  N          3.1810   26.2150   14.7510 N.3    85  LEU85      -0.1231
     98  CA         4.0920   27.3480   14.6320 C.3    85  LEU85       0.1693
     99  C          3.3720   28.6750   14.7770 C.2    85  LEU85       0.2592
    100  O          2.1450   28.7410   14.6470 O.2    85  LEU85      -0.2718
    101  CB         4.8080   27.3050   13.2860 C.3    85  LEU85       0.0284
    102  CG         5.9700   26.3160   13.2530 C.3    85  LEU85       0.0019
    103  CD1        6.6560   26.3330   11.8900 C.3    85  LEU85       0.0001
    104  CD2        6.9500   26.6870   14.3620 C.3    85  LEU85       0.0001
    105  N          4.1310   29.7330   15.0490 N.am   86  GLU86      -0.1966
    106  CA         3.5730   31.0870   14.9980 C.3    86  GLU86       0.1733
    107  C          3.1820   31.4840   13.5690 C.2    86  GLU86       0.2616
    108  O          3.6580   30.9110   12.5810 O.2    86  GLU86      -0.2715
    109  CB         4.5500   32.1160   15.5560 C.3    86  GLU86       0.0429
    110  CG         3.9230   33.4840   15.6840 C.3    86  GLU86       0.1163
    111  CD         4.9180   34.6390   15.5590 C.2    86  GLU86       0.3649
    112  OE1        5.8030   34.7750   16.4410 O.co2  86  GLU86      -0.2457
    113  OE2        4.8030   35.4190   14.5810 O.co2  86  GLU86      -0.2457
    114  N          2.2840   32.4530   13.4620 N.am   87  TYR87      -0.1960
    115  CA         1.8230   32.8770   12.1530 C.3    87  TYR87       0.1771
    116  C          2.4080   34.2400   11.7930 C.2    87  TYR87       0.2619
    117  O          2.4600   35.1590   12.6070 O.2    87  TYR87      -0.2715
    118  CB         0.2870   32.8910   12.1090 C.3    87  TYR87       0.0574
    119  CG        -0.2880   33.5070   10.8540 C.ar   87  TYR87      -0.0198
    120  CD1        0.0760   33.0500    9.5890 C.ar   87  TYR87      -0.0009
    121  CD2       -1.1730   34.5740   10.9320 C.ar   87  TYR87      -0.0009
    122  CE1       -0.4270   33.6510    8.4390 C.ar   87  TYR87       0.0417
    123  CE2       -1.6760   35.1740    9.7980 C.ar   87  TYR87       0.0417
    124  CZ        -1.3010   34.7170    8.5610 C.ar   87  TYR87       0.1957
    125  OH        -1.7870   35.3620    7.4500 O.3    87  TYR87      -0.2866
    126  N          2.8830   34.3440   10.5620 N.am   88  ALA88      -0.1964
    127  CA         3.5640   35.5360   10.1080 C.3    88  ALA88       0.1713
    128  C          2.8030   36.0330    8.8990 C.2    88  ALA88       0.2458
    129  O          2.9340   35.4890    7.8060 O.2    88  ALA88      -0.2730
    130  CB         5.0050   35.1990    9.7490 C.3    88  ALA88       0.0333
    131  N          1.9650   37.0610    9.1020 N.am   89  PRO89      -0.2716
    132  CA         0.9400   37.6010    8.2030 C.3    89  PRO89       0.1536
    133  C          1.4300   38.1750    6.8930 C.2    89  PRO89       0.2598
    134  O          0.6930   38.1930    5.9170 O.2    89  PRO89      -0.2715
    135  CB         0.2500   38.6620    9.0450 C.3    89  PRO89       0.0310
    136  CG         0.4530   38.2060   10.4270 C.3    89  PRO89       0.0237
    137  CD         1.8230   37.6160   10.4550 C.3    89  PRO89       0.0939
    138  N          2.6680   38.6480    6.8660 N.am   90  LEU90      -0.1964
    139  CA         3.1570   39.3690    5.6980 C.3    90  LEU90       0.1728
    140  C          4.0160   38.4980    4.8010 C.2    90  LEU90       0.2617
    141  O          4.5910   38.9730    3.8170 O.2    90  LEU90      -0.2715
    142  CB         3.9530   40.6070    6.1290 C.3    90  LEU90       0.0311
    143  CG         3.1380   41.7240    6.7770 C.3    90  LEU90       0.0022
    144  CD1        4.0470   42.7390    7.4070 C.3    90  LEU90       0.0001
    145  CD2        2.2700   42.3480    5.7290 C.3    90  LEU90       0.0001
    146  N          4.1040   37.2180    5.1390 N.am   91  GLY91      -0.1940
    147  CA         4.8500   36.2990    4.3010 C.3    91  GLY91       0.2014
    148  C          6.3500   36.4830    4.4120 C.2    91  GLY91       0.2639
    149  O          6.8530   36.9990    5.4200 O.2    91  GLY91      -0.2714
    150  N          7.0580   36.0700    3.3630 N.am   92  THR92      -0.1950
    151  CA         8.5010   35.8310    3.4360 C.3    92  THR92       0.1897
    152  C          9.2840   37.0300    2.9350 C.2    92  THR92       0.2313
    153  O          8.8130   37.7560    2.0740 O.2    92  THR92      -0.2863
    154  CB         8.9220   34.6180    2.5760 C.3    92  THR92       0.1794
    155  OG1        8.6490   34.9080    1.2030 O.3    92  THR92      -0.2208
    156  CG2        8.1760   33.3730    2.9810 C.3    92  THR92       0.0378
    157  N          9.2120   36.5700   -1.0130 N.3    95  ARG95      -0.1245
    158  CA         8.1840   37.1380   -1.8850 C.3    95  ARG95       0.1563
    159  C          8.3130   38.6540   -1.8910 C.2    95  ARG95       0.2260
    160  O          8.2170   39.2960   -2.9390 O.2    95  ARG95      -0.2867
    161  CB         6.7760   36.7370   -1.4110 C.3    95  ARG95       0.0307
    162  CG         6.2080   35.4870   -2.0930 C.3    95  ARG95       0.0489
    163  CD         5.0970   35.8100   -3.1070 C.3    95  ARG95       0.2205
    164  NE         3.7710   35.3980   -2.6330 N.pl3  95  ARG95      -0.0865
    165  CZ         2.6590   35.4230   -3.3670 C.cat  95  ARG95       0.5346
    166  NH1        2.6940   35.8390   -4.6270 N.pl3  95  ARG95       0.1354
    167  NH2        1.5040   35.0380   -2.8360 N.pl3  95  ARG95       0.1354
    168  N          8.7780   40.7090   -5.1180 N.3    99  LYS99      -0.1245
    169  CA         7.7500   41.7130   -5.2960 C.3    99  LYS99       0.1561
    170  C          8.4170   43.0450   -5.6650 C.2    99  LYS99       0.2260
    171  O          8.0420   43.6740   -6.6500 O.2    99  LYS99      -0.2867
    172  CB         6.9280   41.8370   -4.0020 C.3    99  LYS99       0.0271
    173  CG         5.4810   42.2940   -4.1910 C.3    99  LYS99       0.0035
    174  CD         4.5830   41.8490   -3.0340 C.3    99  LYS99       0.0206
    175  CE         3.1580   42.3940   -3.1820 C.3    99  LYS99       0.1093
    176  NZ         2.1780   41.7690   -2.2380 N.3    99  LYS99      -0.1314
    177  N         14.2890   32.9140    2.0830 N.3   135  GLU135     -0.1231
    178  CA        13.1880   31.9550    2.1890 C.3   135  GLU135      0.1699
    179  C         12.7900   31.6370    3.6390 C.2   135  GLU135      0.2592
    180  O         11.6510   31.2490    3.9000 O.2   135  GLU135     -0.2718
    181  CB        13.5610   30.6690    1.4760 C.3   135  GLU135      0.0402
    182  CG        13.7280   30.8540   -0.0010 C.3   135  GLU135      0.1161
    183  CD        14.1760   29.5880   -0.6810 C.2   135  GLU135      0.3649
    184  OE1       15.1930   29.0190   -0.2320 O.co2 135  GLU135     -0.2457
    185  OE2       13.5160   29.1610   -1.6560 O.co2 135  GLU135     -0.2457
    186  N         13.7310   31.8150    4.5720 N.am  136  ASN136     -0.1974
    187  CA        13.5250   31.4940    5.9830 C.3   136  ASN136      0.1688
    188  C         13.1910   32.6860    6.8550 C.2   136  ASN136      0.2292
    189  O         12.9770   32.5410    8.0550 O.2   136  ASN136     -0.2864
    190  CB        14.7590   30.8190    6.5510 C.3   136  ASN136      0.1181
    191  CG        15.0410   29.5180    5.8880 C.2   136  ASN136      0.2629
    192  OD1       14.1850   28.6350    5.8460 O.2   136  ASN136     -0.2716
    193  ND2       16.2440   29.3810    5.3500 N.am  136  ASN136     -0.0877
    194  N         10.4810   35.6590    7.8310 N.3   138  LEU138     -0.1245
    195  CA         9.0810   36.0170    7.7360 C.3   138  LEU138      0.1561
    196  C          8.7960   37.3830    8.3620 C.2   138  LEU138      0.2260
    197  O          9.5970   37.8990    9.1460 O.2   138  LEU138     -0.2867
    198  CB         8.2450   34.9390    8.4050 C.3   138  LEU138      0.0270
    199  CG         8.2880   33.6570    7.5980 C.3   138  LEU138      0.0019
    200  CD1        7.5280   32.5910    8.3230 C.3   138  LEU138      0.0001
    201  CD2        7.6910   33.9070    6.2360 C.3   138  LEU138      0.0001
    202  N         12.7620   31.7950   10.8320 N.3   148  ALA148     -0.1231
    203  CA        12.0350   30.5330   10.8470 C.3   148  ALA148      0.1694
    204  C         12.8810   29.3620   10.3600 C.2   148  ALA148      0.2592
    205  O         13.8250   29.5440    9.5970 O.2   148  ALA148     -0.2718
    206  CB        10.7920   30.6530    9.9910 C.3   148  ALA148      0.0304
    207  N         12.5200   28.1570   10.7960 N.am  149  ASP149     -0.1974
    208  CA        13.2700   26.9570   10.4610 C.3   149  ASP149      0.1709
    209  C         14.5950   27.0080   11.1740 C.2   149  ASP149      0.2293
    210  O         15.2990   28.0050   11.1110 O.2   149  ASP149     -0.2864
    211  CB        13.5040   26.8750    8.9480 C.3   149  ASP149      0.1436
    212  CG        12.4520   26.0520    8.2360 C.2   149  ASP149      0.3671
    213  OD1       11.7810   25.2400    8.9030 O.co2 149  ASP149     -0.2456
    214  OD2       12.2960   26.2090    7.0060 O.co2 149  ASP149     -0.2456
@<TRIPOS>BOND
     1   171   170    2
     2   170   169    1
     3   169   168    1
     4   169   172    1
     5   166   165    1
     6   173   172    1
     7   173   174    1
     8   165   167    1
     9   165   164    2
    10   175   174    1
    11   175   176    1
    12   163   164    1
    13   163   162    1
    14   160   159    2
    15   162   161    1
    16   159   158    1
    17   158   161    1
    18   158   157    1
    19   185   183   ar
    20    29    28    1
    21    29    30    1
    22    28    25    1
    23    31    30    1
    24    31    32    1
    25    27    26    2
    26   183   184   ar
    27   183   182    1
    28   182   181    1
    29    26    25    1
    30    26    33   am
    31    25    24    1
    32    36    35    2
    33    24    22   am
    34    35    34    1
    35    10     9    1
    36    58    57    2
    37    33    34    1
    38   155   154    1
    39     7     6    1
    40     7     8    1
    41   181   178    1
    42    22    21    1
    43    22    23    2
    44     9     8    2
    45     9    11    1
    46    21    20    1
    47     6     5    1
    48   153   152    2
    49    15    14    2
    50   177   178    1
    51    57    59   am
    52    57    56    1
    53   178   179    1
    54    20    14   am
    55    37    38    1
    56    14    13    1
    57   154   156    1
    58   154   151    1
    59    51    50    2
    60   152   151    1
    61    56    53    1
    62     5     2    1
    63    13    12    1
    64    13    16    1
    65    45    43   ar
    66    45    47   ar
    67   150   151    1
    68   150   148   am
    69     2     3    1
    70     2     1    1
    71    43    42   ar
    72    38    39    1
    73    38    41    1
    74     3     4    2
    75   179   180    2
    76   179   186   am
    77    50    52   am
    78    50    49    1
    79   141   140    2
    80    53    52    1
    81    53    54    1
    82    39    48   am
    83    39    40    2
    84    48    49    1
    85    47    46   ar
    86   147   148    1
    87   147   146    1
    88   148   149    2
    89   186   187    1
    90    42    41    1
    91    42    44   ar
    92    16    17    1
    93   140   146   am
    94   140   139    1
    95    63    62    2
    96    19    17    1
    97    60    54   am
    98    60    61    1
    99    54    55    2
   100    46    44   ar
   101    65    64    1
   102   193   191   am
   103    17    18    1
   104   139   142    1
   105   139   138    1
   106   145   143    1
   107   192   191    2
   108    62    61    1
   109   191   190    1
   110   134   133    2
   111   187   190    1
   112   187   188    1
   113   142   143    1
   114    61    64    1
   115   201   199    1
   116    64    66    1
   117   143   144    1
   118   188   189    2
   119   138   133   am
   120   133   132    1
   121   214   212   ar
   122   125   124    1
   123   199   200    1
   124   199   198    1
   125   195   194    1
   126   195   196    1
   127   195   198    1
   128   129   128    2
   129    88    86    1
   130    83    82    1
   131    83    84    2
   132    82    81    1
   133    82    85    1
   134   132   135    1
   135   132   131    1
   136   212   213   ar
   137   212   211    1
   138   196   197    2
   139   122   124   ar
   140   122   120   ar
   141   124   123   ar
   142    79    80    1
   143    79    78    1
   144   128   131   am
   145   128   127    1
   146   211   208    1
   147   135   136    1
   148    85    86    1
   149   131   137    1
   150    86    87    1
   151   120   119   ar
   152   205   204    2
   153   130   127    1
   154    73    74    1
   155    73    76    1
   156    73    72    1
   157   123   121   ar
   158    74    75    2
   159    78    77    1
   160   206   203    1
   161    77    76    1
   162   127   126    1
   163   204   207   am
   164   204   203    1
   165   136   137    1
   166   208   207    1
   167   208   209    1
   168    71    68    1
   169   126   116   am
   170   202   203    1
   171   119   121   ar
   172   119   118    1
   173    68    69    1
   174    68    67    1
   175   210   209    2
   176    69    70    2
   177   116   115    1
   178   116   117    2
   179   103   102    1
   180   118   115    1
   181    96    94    1
   182   115   114    1
   183   108   107    2
   184    95    94    1
   185    94    93    1
   186   102   101    1
   187   102   104    1
   188   101    98    1
   189   114   107   am
   190   107   106    1
   191    93    90    1
   192   113   111   ar
   193    98    97    1
   194    98    99    1
   195   100    99    2
   196    99   105   am
   197   106   105    1
   198   106   109    1
   199    90    89    1
   200    90    91    1
   201   109   110    1
   202   111   110    1
   203   111   112   ar
   204    91    92    2
