@<TRIPOS>MOLECULE
tmp/2xrwA00.pdb
 169 159 0 0 0
SMALL
GASTEIGER

@<TRIPOS>ATOM
      1  N         14.7420    6.0250   27.3130 N.3    32  ILE32      -0.1231
      2  CA        13.4220    5.5030   26.9900 C.3    32  ILE32       0.1692
      3  C         13.4200    4.7100   25.6920 C.2    32  ILE32       0.2593
      4  O         12.4380    4.0380   25.3820 O.2    32  ILE32      -0.2718
      5  CB        12.3250    6.6090   26.9030 C.3    32  ILE32       0.0266
      6  CG1       12.6400    7.6100   25.7850 C.3    32  ILE32       0.0019
      7  CG2       12.1270    7.2960   28.2470 C.3    32  ILE32       0.0020
      8  CD1       11.5780    8.6840   25.5990 C.3    32  ILE32       0.0001
      9  N         14.5110    4.7680   24.9290 N.am   33  GLY33      -0.1942
     10  CA        14.6070    4.0050   23.6990 C.3    33  GLY33       0.2014
     11  C         15.8830    4.2570   22.9220 C.2    33  GLY33       0.2640
     12  O         16.6570    5.1600   23.2300 O.2    33  GLY33      -0.2714
     13  N         16.0870    3.4520   21.8880 N.am   34  SER34      -0.1935
     14  CA        17.2560    3.5550   21.0470 C.3    34  SER34       0.2055
     15  C         16.8560    3.1080   19.6630 C.2    34  SER34       0.2644
     16  O         15.9420    2.3010   19.5050 O.2    34  SER34      -0.2714
     17  CB        18.3900    2.6690   21.5920 C.3    34  SER34       0.2130
     18  OG        17.9190    1.3590   21.8700 O.3    34  SER34      -0.2179
     19  N         17.5140    3.6800   18.6680 N.am   35  GLY35      -0.1939
     20  CA        17.3680    3.2840   17.2890 C.3    35  GLY35       0.2014
     21  C         18.7550    3.2570   16.6810 C.2    35  GLY35       0.2639
     22  O         19.7430    3.1750   17.4180 O.2    35  GLY35      -0.2714
     23  N         18.8280    3.3490   15.3590 N.am   36  ALA36      -0.1963
     24  CA        20.0980    3.2600   14.6400 C.3    36  ALA36       0.1728
     25  C         20.8370    4.5930   14.6890 C.2    36  ALA36       0.2616
     26  O         22.0590    4.6360   14.8350 O.2    36  ALA36      -0.2715
     27  CB        19.8520    2.8560   13.2000 C.3    36  ALA36       0.0334
     28  N         20.0640    5.6690   14.5670 N.am   37  GLN37      -0.1963
     29  CA        20.5740    7.0270   14.4460 C.3    37  GLN37       0.1733
     30  C         20.8760    7.5880   15.8290 C.2    37  GLN37       0.2616
     31  O         21.8920    8.2300   16.0480 O.2    37  GLN37      -0.2715
     32  CB        19.4910    7.8860   13.7730 C.3    37  GLN37       0.0408
     33  CG        19.9600    9.0140   12.8580 C.3    37  GLN37       0.0908
     34  CD        18.7830    9.6940   12.1440 C.2    37  GLN37       0.2608
     35  OE1       17.6200    9.3650   12.3970 O.2    37  GLN37      -0.2717
     36  NE2       19.0830   10.6410   11.2550 N.am   37  GLN37      -0.0878
     37  N         19.9900    7.3520   16.7740 N.am   38  GLY38      -0.1955
     38  CA        20.0730    8.0840   18.0090 C.3    38  GLY38       0.1869
     39  C         19.6410    7.3300   19.2400 C.2    38  GLY38       0.2309
     40  O         19.0230    6.2550   19.1890 O.2    38  GLY38      -0.2863
     41  N         17.5860    7.9530   22.8030 N.3    40  VAL40      -0.1245
     42  CA        16.5250    8.8080   23.2770 C.3    40  VAL40       0.1561
     43  C         16.2670    8.7090   24.7690 C.2    40  VAL40       0.2260
     44  O         16.0750    7.6290   25.3190 O.2    40  VAL40      -0.2867
     45  CB        15.2330    8.4830   22.5320 C.3    40  VAL40       0.0252
     46  CG1       14.1840    9.5130   22.8240 C.3    40  VAL40       0.0019
     47  CG2       15.4740    8.3730   21.0270 C.3    40  VAL40       0.0019
     48  N         10.9510   14.4810   25.3280 N.3    53  ALA53      -0.1245
     49  CA        11.9150   13.5070   24.8460 C.3    53  ALA53       0.1562
     50  C         13.0950   14.2000   24.1690 C.2    53  ALA53       0.2260
     51  O         12.9120   15.2090   23.5010 O.2    53  ALA53      -0.2867
     52  CB        11.2450   12.5490   23.8610 C.3    53  ALA53       0.0290
     53  N         16.4100   13.3230   21.7280 N.3    55  LYS55      -0.1245
     54  CA        17.1670   12.3940   20.8860 C.3    55  LYS55       0.1561
     55  C         18.5000   13.0150   20.5340 C.2    55  LYS55       0.2260
     56  O         18.5830   14.1990   20.1930 O.2    55  LYS55      -0.2867
     57  CB        16.3760   12.1250   19.6100 C.3    55  LYS55       0.0271
     58  CG        17.0910   11.1980   18.6520 C.3    55  LYS55       0.0035
     59  CD        16.1780   10.7340   17.5470 C.3    55  LYS55       0.0206
     60  CE        16.8840    9.6840   16.6930 C.3    55  LYS55       0.1093
     61  NZ        16.0320    9.1830   15.5660 N.3    55  LYS55      -0.1314
     62  N          5.1320   13.9190   15.0830 N.3    86  ILE86      -0.1245
     63  CA         5.7960   14.4210   16.2930 C.3    86  ILE86       0.1561
     64  C          6.2710   15.8520   16.0970 C.2    86  ILE86       0.2260
     65  O          6.7710   16.2260   15.0300 O.2    86  ILE86      -0.2867
     66  CB         6.9650   13.4720   16.7130 C.3    86  ILE86       0.0252
     67  CG1        7.2990   13.6100   18.2020 C.3    86  ILE86       0.0019
     68  CG2        8.2130   13.6990   15.8680 C.3    86  ILE86       0.0019
     69  CD1        6.2350   13.0230   19.1450 C.3    86  ILE86       0.0001
     70  N         11.5280   16.8700   21.6880 N.3   108  MET108     -0.1230
     71  CA        10.1850   16.5990   21.1740 C.3   108  MET108      0.1702
     72  C          9.2170   16.4110   22.3080 C.2   108  MET108      0.2592
     73  O          9.6020   16.1390   23.4400 O.2   108  MET108     -0.2718
     74  CB        10.1600   15.2670   20.4250 C.3   108  MET108      0.0401
     75  CG        11.0110   15.1660   19.1960 C.3   108  MET108      0.0596
     76  SD        11.2750   13.4400   18.7670 S.3   108  MET108     -0.1393
     77  CE        12.7550   13.1400   19.7360 C.3   108  MET108      0.0692
     78  N          7.9350   16.4950   21.9720 N.am  109  GLU109     -0.1966
     79  CA         6.9180   16.0350   22.8980 C.3   109  GLU109      0.1733
     80  C          7.1890   14.5790   23.2910 C.2   109  GLU109      0.2616
     81  O          7.6070   13.7620   22.4760 O.2   109  GLU109     -0.2715
     82  CB         5.5280   16.1760   22.2750 C.3   109  GLU109      0.0429
     83  CG         5.4410   16.1160   20.7370 C.3   109  GLU109      0.1163
     84  CD         4.4830   17.1670   20.0780 C.2   109  GLU109      0.3649
     85  OE1        4.9500   18.2860   20.2900 O.co2 109  GLU109     -0.2457
     86  OE2        3.4890   16.8370   19.4990 O.co2 109  GLU109     -0.2457
     87  N          6.9280   14.2710   24.5590 N.am  110  LEU110     -0.1963
     88  CA         7.1470   12.9280   25.0940 C.3   110  LEU110      0.1728
     89  C          5.8970   12.0940   24.9380 C.2   110  LEU110      0.2616
     90  O          4.8570   12.4180   25.5280 O.2   110  LEU110     -0.2715
     91  CB         7.5000   12.9620   26.5830 C.3   110  LEU110      0.0311
     92  CG         7.8430   11.6190   27.2580 C.3   110  LEU110      0.0022
     93  CD1        9.0260   10.9090   26.5800 C.3   110  LEU110      0.0001
     94  CD2        8.1290   11.8220   28.7320 C.3   110  LEU110      0.0001
     95  N          5.9910   11.0250   24.1820 N.am  111  MET111     -0.1963
     96  CA         4.9100   10.0670   24.0630 C.3   111  MET111      0.1736
     97  C          5.2180    8.8930   25.0030 C.2   111  MET111      0.2616
     98  O          6.2550    8.8710   25.6560 O.2   111  MET111     -0.2715
     99  CB         4.7490    9.6420   22.6130 C.3   111  MET111      0.0427
    100  CG         4.3820   10.8180   21.6800 C.3   111  MET111      0.0599
    101  SD         2.7230   11.4320   21.8990 S.3   111  MET111     -0.1393
    102  CE         1.8100   10.1760   21.0270 C.3   111  MET111      0.0692
    103  N          4.2650    7.9710   25.1390 N.am  112  ASP112     -0.1957
    104  CA         4.3950    6.9130   26.1470 C.3   112  ASP112      0.1840
    105  C          5.1160    5.6460   25.7120 C.2   112  ASP112      0.2622
    106  O          5.7500    4.9770   26.5420 O.2   112  ASP112     -0.2715
    107  CB         3.0330    6.5120   26.6980 C.3   112  ASP112      0.1450
    108  CG         2.3270    7.6540   27.3920 C.2   112  ASP112      0.3671
    109  OD1        3.0040    8.5690   27.9350 O.co2 112  ASP112     -0.2456
    110  OD2        1.0930    7.6360   27.4060 O.co2 112  ASP112     -0.2456
    111  N          5.0050    5.2760   24.4350 N.am  113  ALA113     -0.1963
    112  CA         5.5660    4.0190   23.9600 C.3   113  ALA113      0.1728
    113  C          5.6240    4.0300   22.4540 C.2   113  ALA113      0.2616
    114  O          4.9450    4.8450   21.8220 O.2   113  ALA113     -0.2715
    115  CB         4.6820    2.8700   24.3970 C.3   113  ALA113      0.0334
    116  N          6.4040    3.1210   21.8680 N.am  114  ASN114     -0.1972
    117  CA         6.2860    2.8830   20.4350 C.3   114  ASN114      0.1688
    118  C          5.2220    1.8180   20.1640 C.2   114  ASN114      0.2292
    119  O          4.6460    1.2230   21.0880 O.2   114  ASN114     -0.2864
    120  CB         7.6440    2.5720   19.7870 C.3   114  ASN114      0.1181
    121  CG         8.2340    1.2710   20.2440 C.2   114  ASN114      0.2629
    122  OD1        7.5380    0.2720   20.4090 O.2   114  ASN114     -0.2716
    123  ND2        9.5490    1.2530   20.3980 N.am  114  ASN114     -0.0877
    124  N          7.4020    1.9270   10.2580 N.3   153  LYS153     -0.1245
    125  CA         7.5350    0.6930   10.9960 C.3   153  LYS153      0.1561
    126  C          7.1260    0.9390   12.4370 C.2   153  LYS153      0.2260
    127  O          7.0440    2.0840   12.8920 O.2   153  LYS153     -0.2867
    128  CB         8.9900    0.1720   10.9040 C.3   153  LYS153      0.0271
    129  CG        10.0150    1.1580   11.3680 C.3   153  LYS153      0.0035
    130  CD        11.4490    0.7380   10.9990 C.3   153  LYS153      0.0206
    131  CE        12.4100    1.8080   11.4520 C.3   153  LYS153      0.1093
    132  NZ        13.8320    1.5180   11.0610 N.3   153  LYS153     -0.1314
    133  N          8.6270    0.8590   15.2640 N.3   155  SER155     -0.1202
    134  CA         9.5450    1.5980   16.1310 C.3   155  SER155      0.2020
    135  C          9.5500    3.0970   15.8480 C.2   155  SER155      0.2618
    136  O         10.0030    3.8670   16.7020 O.2   155  SER155     -0.2717
    137  CB        10.9700    1.0320   16.0690 C.3   155  SER155      0.2103
    138  OG        11.5680    1.3300   14.8290 O.3   155  SER155     -0.2182
    139  N          9.0430    3.5270   14.6950 N.am  156  ASN156     -0.1974
    140  CA         9.0060    4.9670   14.4390 C.3   156  ASN156      0.1688
    141  C          7.6250    5.5320   14.4920 C.2   156  ASN156      0.2292
    142  O          7.3580    6.6200   13.9750 O.2   156  ASN156     -0.2864
    143  CB         9.7650    5.3940   13.1710 C.3   156  ASN156      0.1181
    144  CG         9.2970    4.7400   11.9250 C.2   156  ASN156      0.2629
    145  OD1        8.1600    4.3500   11.7950 O.2   156  ASN156     -0.2716
    146  ND2       10.1960    4.6340   10.9560 N.am  156  ASN156     -0.0877
    147  N          4.7670    6.3100   17.5970 N.3   158  VAL158     -0.1245
    148  CA         4.5940    6.3440   19.0370 C.3   158  VAL158      0.1561
    149  C          3.1510    6.6450   19.3930 C.2   158  VAL158      0.2260
    150  O          2.3800    7.2220   18.6270 O.2   158  VAL158     -0.2867
    151  CB         5.5680    7.3460   19.7130 C.3   158  VAL158      0.0252
    152  CG1        6.9750    6.7560   19.7350 C.3   158  VAL158      0.0019
    153  CG2        5.5150    8.6840   19.0160 C.3   158  VAL158      0.0019
    154  N          7.1730    9.5060   14.0310 N.3   168  LEU168     -0.1231
    155  CA         8.3940   10.1380   14.5640 C.3   168  LEU168      0.1693
    156  C          9.2930   10.7860   13.5400 C.2   168  LEU168      0.2592
    157  O         10.1100   11.6540   13.8900 O.2   168  LEU168     -0.2718
    158  CB         9.2460    9.1240   15.3380 C.3   168  LEU168      0.0284
    159  CG         8.7490    8.7490   16.7250 C.3   168  LEU168      0.0019
    160  CD1        9.7050    7.7610   17.3460 C.3   168  LEU168      0.0001
    161  CD2        8.6130    9.9900   17.6180 C.3   168  LEU168      0.0001
    162  N          9.2420   10.3620   12.2950 N.am  169  ASP169     -0.1974
    163  CA        10.2250   10.8550   11.3240 C.3   169  ASP169      0.1709
    164  C          9.6690   10.8060    9.9050 C.2   169  ASP169      0.2293
    165  O          8.5080   10.4920    9.6790 O.2   169  ASP169     -0.2864
    166  CB        11.5660   10.1140   11.4630 C.3   169  ASP169      0.1436
    167  CG        11.4650    8.6470   11.1630 C.2   169  ASP169      0.3671
    168  OD1       10.7480    8.2670   10.2290 O.co2 169  ASP169     -0.2456
    169  OD2       12.1610    7.8480   11.8280 O.co2 169  ASP169     -0.2456
@<TRIPOS>BOND
     1   165   164    2
     2   164   163    1
     3   168   167   ar
     4   124   125    1
     5   128   125    1
     6   128   129    1
     7   146   144   am
     8   125   126    1
     9   130   129    1
    10   130   131    1
    11   132   131    1
    12   167   166    1
    13   167   169   ar
    14    36    34   am
    15   163   166    1
    16   163   162    1
    17   145   144    2
    18   144   143    1
    19    34    35    2
    20    34    33    1
    21   162   156   am
    22   126   127    2
    23    33    32    1
    24   143   140    1
    25    27    24    1
    26   156   157    2
    27   156   155    1
    28    32    29    1
    29   142   141    2
    30   154   155    1
    31   140   141    1
    32   140   139    1
    33    29    28    1
    34    29    30    1
    35   155   158    1
    36    28    25   am
    37    24    25    1
    38    24    23    1
    39    25    26    2
    40   139   135   am
    41   138   137    1
    42    65    64    2
    43    62    63    1
    44   133   134    1
    45   158   159    1
    46    23    21   am
    47    61    60    1
    48    30    31    2
    49    30    37   am
    50   135   134    1
    51   135   136    2
    52    68    66    1
    53   137   134    1
    54    64    63    1
    55    63    66    1
    56    21    20    1
    57    21    22    2
    58    60    59    1
    59    66    67    1
    60   159   160    1
    61   159   161    1
    62    37    38    1
    63    20    19    1
    64    59    58    1
    65   147   148    1
    66    38    39    1
    67    67    69    1
    68   150   149    2
    69    58    57    1
    70    19    15   am
    71    76    75    1
    72    76    77    1
    73   153   151    1
    74   148   149    1
    75   148   151    1
    76    40    39    2
    77    75    74    1
    78    86    84   ar
    79    16    15    2
    80    57    54    1
    81    15    14    1
    82   151   152    1
    83   120   121    1
    84   120   117    1
    85    84    85   ar
    86    84    83    1
    87   118   117    1
    88   118   119    2
    89    56    55    2
    90   121   123   am
    91   121   122    2
    92    74    71    1
    93   117   116    1
    94    55    54    1
    95    83    82    1
    96    54    53    1
    97    47    45    1
    98   102   101    1
    99    14    17    1
   100    14    13    1
   101    71    70    1
   102    71    72    1
   103    17    18    1
   104   100   101    1
   105   100    99    1
   106   114   113    2
   107   116   113   am
   108    13    11   am
   109    78    72   am
   110    78    79    1
   111    82    79    1
   112    72    73    2
   113   113   112    1
   114    81    80    2
   115    45    46    1
   116    45    42    1
   117    99    96    1
   118    41    42    1
   119    79    80    1
   120    11    12    2
   121    11    10    1
   122    42    43    1
   123    80    87   am
   124    51    50    2
   125    10     9    1
   126    52    49    1
   127   112   115    1
   128   112   111    1
   129    96    95    1
   130    96    97    1
   131    50    49    1
   132    95    89   am
   133   111   105   am
   134    87    88    1
   135    43    44    2
   136    49    48    1
   137     9     3   am
   138    89    88    1
   139    89    90    2
   140    97   103   am
   141    97    98    2
   142    88    91    1
   143   103   104    1
   144     4     3    2
   145     8     6    1
   146     3     2    1
   147   105   104    1
   148   105   106    2
   149     6     5    1
   150   104   107    1
   151    93    92    1
   152    91    92    1
   153   107   108    1
   154     5     2    1
   155     5     7    1
   156     2     1    1
   157    92    94    1
   158   108   110   ar
   159   108   109   ar
