@<TRIPOS>MOLECULE
tmp/2xrxM00.pdb
 157 150 0 0 0
SMALL
GASTEIGER

@<TRIPOS>ATOM
      1  N         30.1470   66.1030   20.0470 N.3   199  GLN199     -0.1231
      2  CA        28.8720   65.9890   19.3390 C.3   199  GLN199      0.1698
      3  C         27.8490   65.2050   20.1570 C.2   199  GLN199      0.2592
      4  O         26.6740   65.5780   20.2200 O.2   199  GLN199     -0.2718
      5  CB        29.0440   65.3670   17.9460 C.3   199  GLN199      0.0381
      6  CG        27.7320   65.2470   17.1780 C.3   199  GLN199      0.0905
      7  CD        27.8870   64.6750   15.7840 C.2   199  GLN199      0.2608
      8  OE1       28.4060   65.3340   14.8830 O.2   199  GLN199     -0.2717
      9  NE2       27.4060   63.4500   15.5910 N.am  199  GLN199     -0.0878
     10  N         28.3070   64.1280   20.7900 N.am  200  PHE200     -0.1976
     11  CA        27.4400   63.2840   21.6030 C.3   200  PHE200      0.1639
     12  C         27.2700   63.8520   23.0120 C.2   200  PHE200      0.2290
     13  O         26.3250   63.5030   23.7200 O.2   200  PHE200     -0.2864
     14  CB        27.9720   61.8450   21.6360 C.3   200  PHE200      0.0560
     15  CG        27.7700   61.0910   20.3470 C.ar  200  PHE200     -0.0200
     16  CD1       28.4430   61.4640   19.1860 C.ar  200  PHE200     -0.0042
     17  CD2       26.9110   60.0000   20.2970 C.ar  200  PHE200     -0.0042
     18  CE1       28.2500   60.7700   17.9940 C.ar  200  PHE200     -0.0003
     19  CE2       26.7130   59.2980   19.1090 C.ar  200  PHE200     -0.0003
     20  CZ        27.3830   59.6820   17.9570 C.ar  200  PHE200     -0.0000
     21  N         25.7570   68.1980   21.3570 N.3   203  ASP203     -0.1225
     22  CA        25.3670   68.6880   20.0340 C.3   203  ASP203      0.1805
     23  C         24.1160   68.0300   19.4330 C.2   203  ASP203      0.2597
     24  O         24.2070   67.2440   18.4880 O.2   203  ASP203     -0.2718
     25  CB        26.5640   68.6020   19.0740 C.3   203  ASP203      0.1424
     26  CG        26.4260   69.5040   17.8590 C.2   203  ASP203      0.3668
     27  OD1       25.3120   69.9780   17.5500 O.co2 203  ASP203     -0.2456
     28  OD2       27.4540   69.7340   17.1950 O.co2 203  ASP203     -0.2456
     29  N         22.9510   68.3680   19.9800 N.am  204  MET204     -0.1979
     30  CA        21.6810   68.0420   19.3390 C.3   204  MET204      0.1605
     31  C         21.4300   69.0280   18.1990 C.2   204  MET204      0.2287
     32  O         20.6370   68.7660   17.2900 O.2   204  MET204     -0.2864
     33  CB        20.5320   68.1080   20.3450 C.3   204  MET204      0.0413
     34  CG        19.2250   67.5240   19.8260 C.3   204  MET204      0.0598
     35  SD        19.1890   65.7200   19.8440 S.3   204  MET204     -0.1393
     36  CE        18.8000   65.4200   21.5640 C.3   204  MET204      0.0692
     37  N         23.2900   69.9450   15.6770 N.3   206  HIS206     -0.1226
     38  CA        23.6500   69.4640   14.3390 C.3   206  HIS206      0.1752
     39  C         22.5370   68.6230   13.7120 C.2   206  HIS206      0.2595
     40  O         22.2490   68.7580   12.5180 O.2   206  HIS206     -0.2718
     41  CB        24.9810   68.7000   14.3630 C.3   206  HIS206      0.0759
     42  CG        24.8460   67.2460   14.6870 C.ar  206  HIS206      0.0818
     43  ND1       24.5690   66.7870   15.9550 N.ar  206  HIS206     -0.2268
     44  CD2       24.9440   66.1460   13.9030 C.ar  206  HIS206      0.1154
     45  CE1       24.5000   65.4680   15.9400 C.ar  206  HIS206      0.1986
     46  NE2       24.7280   65.0540   14.7080 N.ar  206  HIS206     -0.2212
     47  N         21.9120   67.7700   14.5270 N.am  207  ALA207     -0.1980
     48  CA        20.8140   66.9160   14.0780 C.3   207  ALA207      0.1597
     49  C         19.5580   67.7380   13.8050 C.2   207  ALA207      0.2287
     50  O         18.8770   67.5230   12.8000 O.2   207  ALA207     -0.2864
     51  CB        20.5320   65.8210   15.1000 C.3   207  ALA207      0.0319
     52  N         21.4800   66.2210    9.3310 N.3   212  HIS212     -0.1241
     53  CA        20.7480   64.9640    9.1600 C.3   212  HIS212      0.1621
     54  C         19.3900   65.0580    8.4610 C.2   212  HIS212      0.2264
     55  O         18.5530   64.1660    8.6080 O.2   212  HIS212     -0.2867
     56  CB        20.6120   64.2460   10.5040 C.3   212  HIS212      0.0745
     57  CG        21.9210   63.8350   11.0960 C.ar  212  HIS212      0.0817
     58  ND1       22.8150   63.0250   10.4300 N.ar  212  HIS212     -0.2268
     59  CD2       22.4870   64.1170   12.2940 C.ar  212  HIS212      0.1154
     60  CE1       23.8780   62.8310   11.1890 C.ar  212  HIS212      0.1986
     61  NE2       23.7040   63.4820   12.3260 N.ar  212  HIS212     -0.2212
     62  N         16.6650   62.0780    8.1570 N.3   216  ILE216     -0.1245
     63  CA        15.2440   62.2230    8.4870 C.3   216  ILE216      0.1561
     64  C         14.3870   61.7950    7.2930 C.2   216  ILE216      0.2260
     65  O         13.4620   60.9990    7.4440 O.2   216  ILE216     -0.2867
     66  CB        14.8830   63.6780    8.9160 C.3   216  ILE216      0.0252
     67  CG1       15.7280   64.1400   10.1190 C.3   216  ILE216      0.0019
     68  CG2       13.3830   63.8200    9.1940 C.3   216  ILE216      0.0019
     69  CD1       15.6630   63.2480   11.3580 C.3   216  ILE216      0.0001
     70  N         15.3130   65.2310   23.5560 N.3   250  TYR250     -0.1241
     71  CA        14.0500   65.8980   23.2470 C.3   250  TYR250      0.1605
     72  C         12.9730   65.4790   24.2450 C.2   250  TYR250      0.2264
     73  O         12.9410   64.3280   24.6880 O.2   250  TYR250     -0.2867
     74  CB        13.5750   65.5770   21.8250 C.3   250  TYR250      0.0534
     75  CG        14.3740   66.2160   20.7060 C.ar  250  TYR250     -0.0201
     76  CD1       14.8130   65.4540   19.6230 C.ar  250  TYR250     -0.0009
     77  CD2       14.6800   67.5790   20.7200 C.ar  250  TYR250     -0.0009
     78  CE1       15.5410   66.0260   18.5840 C.ar  250  TYR250      0.0417
     79  CE2       15.4120   68.1620   19.6880 C.ar  250  TYR250      0.0417
     80  CZ        15.8360   67.3780   18.6230 C.ar  250  TYR250      0.1957
     81  OH        16.5550   67.9410   17.5940 O.3   250  TYR250     -0.2866
     82  N         10.0280   62.2130   16.4130 N.3   256  SER256     -0.1217
     83  CA        11.4830   62.1530   16.2410 C.3   256  SER256      0.1889
     84  C         12.0190   60.7260   16.3760 C.2   256  SER256      0.2288
     85  O         12.9240   60.3200   15.6420 O.2   256  SER256     -0.2866
     86  CB        12.1780   63.0550   17.2650 C.3   256  SER256      0.2089
     87  OG        12.0860   62.5120   18.5740 O.3   256  SER256     -0.2183
     88  N         13.4400   57.6950   13.2850 N.3   260  VAL260     -0.1245
     89  CA        14.7420   57.0500   13.4450 C.3   260  VAL260      0.1561
     90  C         14.6180   55.5450   13.7040 C.2   260  VAL260      0.2260
     91  O         15.2640   54.7440   13.0240 O.2   260  VAL260     -0.2867
     92  CB        15.5840   57.7320   14.5610 C.3   260  VAL260      0.0252
     93  CG1       16.9660   57.1030   14.6680 C.3   260  VAL260      0.0019
     94  CG2       15.7190   59.2260   14.2930 C.3   260  VAL260      0.0019
     95  N         15.3130   60.5530   21.5950 N.3   294  GLY294     -0.1225
     96  CA        16.4780   60.9450   20.8030 C.3   294  GLY294      0.1811
     97  C         17.6720   61.4260   21.6070 C.2   294  GLY294      0.2280
     98  O         18.3900   62.3270   21.1730 O.2   294  GLY294     -0.2866
     99  N         21.2770   61.8490   23.4500 N.3   296  HIS296     -0.1241
    100  CA        22.6950   61.6430   23.1790 C.3   296  HIS296      0.1621
    101  C         23.4830   61.8840   24.4580 C.2   296  HIS296      0.2264
    102  O         23.0900   62.7120   25.2790 O.2   296  HIS296     -0.2867
    103  CB        23.1820   62.5810   22.0730 C.3   296  HIS296      0.0745
    104  CG        23.0720   64.0370   22.4130 C.ar  296  HIS296      0.0817
    105  ND1       24.0190   64.7010   23.1620 N.ar  296  HIS296     -0.2268
    106  CD2       22.1310   64.9570   22.0980 C.ar  296  HIS296      0.1154
    107  CE1       23.6620   65.9650   23.3010 C.ar  296  HIS296      0.1986
    108  NE2       22.5200   66.1470   22.6630 N.ar  296  HIS296     -0.2212
    109  N         23.8750   56.6920   22.5690 N.3   306  LEU306     -0.1245
    110  CA        22.5550   57.2340   22.2660 C.3   306  LEU306      0.1561
    111  C         21.4940   56.4450   23.0310 C.2   306  LEU306      0.2260
    112  O         20.9390   55.4830   22.4940 O.2   306  LEU306     -0.2867
    113  CB        22.2870   57.1720   20.7570 C.3   306  LEU306      0.0270
    114  CG        23.1240   58.0720   19.8460 C.3   306  LEU306      0.0019
    115  CD1       23.1280   57.5470   18.4180 C.3   306  LEU306      0.0001
    116  CD2       22.6190   59.5050   19.8970 C.3   306  LEU306      0.0001
    117  N         18.2910   55.1750   21.4570 N.3   309  PHE309     -0.1241
    118  CA        18.5240   54.2960   20.2990 C.3   309  PHE309      0.1605
    119  C         19.3370   53.0390   20.6400 C.2   309  PHE309      0.2264
    120  O         19.4620   52.1310   19.8110 O.2   309  PHE309     -0.2867
    121  CB        19.1910   55.0590   19.1360 C.3   309  PHE309      0.0534
    122  CG        18.4880   56.3430   18.7420 C.ar  309  PHE309     -0.0203
    123  CD1       19.2300   57.4660   18.3790 C.ar  309  PHE309     -0.0042
    124  CD2       17.0960   56.4340   18.7260 C.ar  309  PHE309     -0.0042
    125  CE1       18.5970   58.6590   18.0100 C.ar  309  PHE309     -0.0003
    126  CE2       16.4540   57.6230   18.3590 C.ar  309  PHE309     -0.0003
    127  CZ        17.2050   58.7350   18.0030 C.ar  309  PHE309     -0.0000
    128  N         23.2690   54.0930   12.0540 N.3   351  PHE351     -0.1241
    129  CA        24.5110   54.4410   12.7530 C.3   351  PHE351      0.1605
    130  C         25.7420   53.5770   12.4520 C.2   351  PHE351      0.2264
    131  O         26.7620   53.6920   13.1310 O.2   351  PHE351     -0.2867
    132  CB        24.2580   54.5260   14.2670 C.3   351  PHE351      0.0534
    133  CG        23.0820   55.3940   14.6360 C.ar  351  PHE351     -0.0203
    134  CD1       23.0820   56.7560   14.3410 C.ar  351  PHE351     -0.0042
    135  CD2       21.9710   54.8490   15.2740 C.ar  351  PHE351     -0.0042
    136  CE1       21.9950   57.5630   14.6800 C.ar  351  PHE351     -0.0003
    137  CE2       20.8830   55.6460   15.6180 C.ar  351  PHE351     -0.0003
    138  CZ        20.8970   57.0070   15.3160 C.ar  351  PHE351     -0.0000
    139  N         22.4080   58.3810    8.9210 N.3   357  PHE357     -0.1241
    140  CA        22.8330   59.4860    9.7690 C.3   357  PHE357      0.1605
    141  C         24.3600   59.6040    9.7860 C.2   357  PHE357      0.2264
    142  O         24.9130   60.6760    9.5220 O.2   357  PHE357     -0.2867
    143  CB        22.2920   59.3110   11.1900 C.3   357  PHE357      0.0534
    144  CG        20.8350   59.6600   11.3360 C.ar  357  PHE357     -0.0203
    145  CD1       19.8450   58.7900   10.8920 C.ar  357  PHE357     -0.0042
    146  CD2       20.4540   60.8570   11.9290 C.ar  357  PHE357     -0.0042
    147  CE1       18.4970   59.1130   11.0290 C.ar  357  PHE357     -0.0003
    148  CE2       19.1130   61.1890   12.0680 C.ar  357  PHE357     -0.0003
    149  CZ        18.1320   60.3160   11.6210 C.ar  357  PHE357     -0.0000
    150  N         27.9210   62.7600    9.3700 N.3   361  ASP361     -0.1239
    151  CA        28.7800   63.1220   10.5050 C.3   361  ASP361      0.1674
    152  C         30.2680   63.0740   10.1480 C.2   361  ASP361      0.2266
    153  O         31.0110   64.0190   10.4200 O.2   361  ASP361     -0.2867
    154  CB        28.5040   62.2040   11.6980 C.3   361  ASP361      0.1410
    155  CG        27.1240   62.4090   12.2850 C.2   361  ASP361      0.3668
    156  OD1       26.7320   63.5720   12.5160 O.co2 361  ASP361     -0.2456
    157  OD2       26.4230   61.4050   12.5290 O.co2 361  ASP361     -0.2456
@<TRIPOS>BOND
     1    64    65    2
     2    64    63    1
     3    62    63    1
     4    54    55    2
     5    54    53    1
     6    63    66    1
     7    66    68    1
     8    66    67    1
     9   139   140    1
    10    53    52    1
    11    53    56    1
    12   150   151    1
    13   142   141    2
    14   140   141    1
    15   140   143    1
    16    67    69    1
    17   152   153    2
    18   152   151    1
    19    58    57   ar
    20    58    60   ar
    21    56    57    1
    22   151   154    1
    23   145   147   ar
    24   145   144   ar
    25   147   149   ar
    26    57    59   ar
    27    60    61   ar
    28   143   144    1
    29   144   146   ar
    30   149   148   ar
    31   154   155    1
    32   146   148   ar
    33   128   129    1
    34   155   156   ar
    35   155   157   ar
    36    59    61   ar
    37   130   129    1
    38   130   131    2
    39    40    39    2
    40   129   132    1
    41    50    49    2
    42    91    90    2
    43    88    89    1
    44    89    90    1
    45    89    92    1
    46    39    38    1
    47    39    47   am
    48    49    48    1
    49    44    42   ar
    50    44    46   ar
    51    48    47    1
    52    48    51    1
    53   132   133    1
    54    94    92    1
    55    38    41    1
    56    38    37    1
    57   134   133   ar
    58   134   136   ar
    59    41    42    1
    60    92    93    1
    61   133   135   ar
    62   136   138   ar
    63    42    43   ar
    64    46    45   ar
    65     8     7    2
    66   135   137   ar
    67   138   137   ar
    68     9     7   am
    69    85    84    2
    70     7     6    1
    71    45    43   ar
    72    83    84    1
    73    83    82    1
    74    83    86    1
    75     6     5    1
    76    28    26   ar
    77    86    87    1
    78    32    31    2
    79    27    26   ar
    80    81    80    1
    81    26    25    1
    82     5     2    1
    83    20    18   ar
    84    20    19   ar
    85    18    16   ar
    86   127   125   ar
    87   127   126   ar
    88   125   123   ar
    89    31    30    1
    90   126   124   ar
    91   123   122   ar
    92   115   114    1
    93    24    23    2
    94    78    80   ar
    95    78    76   ar
    96    80    79   ar
    97   124   122   ar
    98   122   121    1
    99    25    22    1
   100    19    17   ar
   101   121   118    1
   102    16    15   ar
   103    30    29    1
   104    30    33    1
   105     2     1    1
   106     2     3    1
   107    23    29   am
   108    23    22    1
   109    76    75   ar
   110    79    77   ar
   111   120   119    2
   112    34    35    1
   113    34    33    1
   114    35    36    1
   115   114   116    1
   116   114   113    1
   117    22    21    1
   118     3     4    2
   119     3    10   am
   120    17    15   ar
   121   118   119    1
   122   118   117    1
   123    15    14    1
   124    75    77   ar
   125    75    74    1
   126   113   110    1
   127    10    11    1
   128    96    95    1
   129    96    97    1
   130    98    97    2
   131    11    14    1
   132    11    12    1
   133    74    71    1
   134   103   104    1
   135   103   100    1
   136   106   104   ar
   137   106   108   ar
   138   110   109    1
   139   110   111    1
   140   104   105   ar
   141   112   111    2
   142   108   107   ar
   143    12    13    2
   144   105   107   ar
   145   100    99    1
   146   100   101    1
   147    71    70    1
   148    71    72    1
   149    72    73    2
   150   101   102    2
