@<TRIPOS>MOLECULE
tmp/2xs5B00.pdb
 183 177 0 0 0
SMALL
GASTEIGER

@<TRIPOS>ATOM
      1  N         26.6400  -16.1780    3.7760 N.3     5  MET5       -0.1245
      2  CA        26.6290  -15.5430    5.1040 C.3     5  MET5        0.1570
      3  C         26.2310  -16.5850    6.1510 C.2     5  MET5        0.2261
      4  O         25.1220  -17.1580    6.0720 O.2     5  MET5       -0.2867
      5  CB        25.6540  -14.3530    5.1390 C.3     5  MET5        0.0387
      6  CG        26.0140  -13.1500    4.2540 C.3     5  MET5        0.0595
      7  SD        27.6640  -12.4460    4.6620 S.3     5  MET5       -0.1393
      8  CE        28.6290  -13.2850    3.4990 C.3     5  MET5        0.0692
      9  N         22.5260  -17.2250    8.5240 N.3     8  THR8       -0.1218
     10  CA        21.5760  -16.2980    7.9700 C.3     8  THR8        0.1862
     11  C         20.7350  -17.0320    6.9310 C.2     8  THR8        0.2287
     12  O         21.2380  -17.8910    6.2230 O.2     8  THR8       -0.2866
     13  CB        22.3020  -15.0830    7.3300 C.3     8  THR8        0.1770
     14  OG1       23.1620  -14.4600    8.3130 O.3     8  THR8       -0.2211
     15  CG2       21.3130  -14.0570    6.8070 C.3     8  THR8        0.0375
     16  N         17.9580  -16.4310    3.7280 N.3    10  PHE10      -0.1241
     17  CA        17.1330  -15.6410    2.8090 C.3    10  PHE10       0.1605
     18  C         15.6600  -16.0890    2.8630 C.2    10  PHE10       0.2264
     19  O         15.3470  -17.2780    2.7510 O.2    10  PHE10      -0.2867
     20  CB        17.7130  -15.7320    1.3530 C.3    10  PHE10       0.0534
     21  CG        16.7950  -15.1360    0.3040 C.ar   10  PHE10      -0.0203
     22  CD1       16.9920  -13.8310   -0.1310 C.ar   10  PHE10      -0.0042
     23  CD2       15.7750  -15.9060   -0.2600 C.ar   10  PHE10      -0.0042
     24  CE1       16.1660  -13.2930   -1.1170 C.ar   10  PHE10      -0.0003
     25  CE2       14.9150  -15.3760   -1.2520 C.ar   10  PHE10      -0.0003
     26  CZ        15.1140  -14.0790   -1.6810 C.ar   10  PHE10      -0.0000
     27  N         12.0760  -15.1740    0.9420 N.3    12  GLY12      -0.1225
     28  CA        11.4080  -14.4930   -0.1830 C.3    12  GLY12       0.1811
     29  C          9.9010  -14.7430   -0.2040 C.2    12  GLY12       0.2280
     30  O          9.3760  -15.6260    0.4930 O.2    12  GLY12      -0.2866
     31  N         18.5950  -10.5780   13.9790 N.3    35  GLU35      -0.1245
     32  CA        18.1770   -9.5410   13.0220 C.3    35  GLU35       0.1567
     33  C         17.1560  -10.0780   12.0440 C.2    35  GLU35       0.2260
     34  O         17.2850  -11.2020   11.5750 O.2    35  GLU35      -0.2867
     35  CB        19.3660   -9.0640   12.2160 C.3    35  GLU35       0.0388
     36  CG        19.0800   -7.7780   11.4200 C.3    35  GLU35       0.1160
     37  CD        20.2850   -7.2630   10.6560 C.2    35  GLU35       0.3649
     38  OE1       20.8420   -8.0070    9.8410 O.co2  35  GLU35      -0.2457
     39  OE2       20.6370   -6.0870   10.8310 O.co2  35  GLU35      -0.2457
     40  N         15.9560   -8.3690    8.5620 N.3    37  LYS37      -0.1231
     41  CA        16.1890   -7.2180    7.6840 C.3    37  LYS37       0.1693
     42  C         15.3960   -7.4120    6.4010 C.2    37  LYS37       0.2592
     43  O         15.7170   -8.2690    5.5900 O.2    37  LYS37      -0.2718
     44  CB        17.6760   -7.0700    7.4070 C.3    37  LYS37       0.0285
     45  CG        17.9890   -5.8620    6.4810 C.3    37  LYS37       0.0035
     46  CD        19.3750   -5.9220    5.9460 C.3    37  LYS37       0.0206
     47  CE        20.4070   -5.3170    6.8230 C.3    37  LYS37       0.1093
     48  NZ        21.7370   -5.5950    6.1690 N.3    37  LYS37      -0.1314
     49  N         14.3390   -6.6190    6.2530 N.am   38  ILE38      -0.1966
     50  CA        13.5230   -6.6350    5.0510 C.3    38  ILE38       0.1727
     51  C         14.1020   -5.6070    4.0880 C.2    38  ILE38       0.2616
     52  O         14.2990   -4.4430    4.4550 O.2    38  ILE38      -0.2715
     53  CB        12.0460   -6.3550    5.3910 C.3    38  ILE38       0.0290
     54  CG1       11.5790   -7.3170    6.4860 C.3    38  ILE38       0.0022
     55  CG2       11.1540   -6.4730    4.1480 C.3    38  ILE38       0.0023
     56  CD1       11.6480   -8.7550    6.0620 C.3    38  ILE38       0.0001
     57  N         14.3970   -6.0540    2.8740 N.am   39  ILE39      -0.1963
     58  CA        14.9640   -5.1840    1.8570 C.3    39  ILE39       0.1727
     59  C         13.8830   -4.3320    1.2630 C.2    39  ILE39       0.2617
     60  O         12.8090   -4.8200    0.8950 O.2    39  ILE39      -0.2715
     61  CB        15.7110   -5.9900    0.7640 C.3    39  ILE39       0.0290
     62  CG1       16.8220   -6.8490    1.3900 C.3    39  ILE39       0.0022
     63  CG2       16.2900   -5.0470   -0.2630 C.3    39  ILE39       0.0023
     64  CD1       17.7810   -6.1430    2.3620 C.3    39  ILE39       0.0001
     65  N         14.1390   -3.0320    1.2120 N.am   40  THR40      -0.1937
     66  CA        13.1400   -2.1330    0.6490 C.3    40  THR40       0.2028
     67  C         13.7240   -1.3400   -0.5290 C.2    40  THR40       0.2642
     68  O         14.9400   -1.2780   -0.7100 O.2    40  THR40      -0.2714
     69  CB        12.6170   -1.1670    1.7160 C.3    40  THR40       0.1808
     70  OG1       13.6770   -0.3220    2.1750 O.3    40  THR40      -0.2208
     71  CG2       11.9840   -1.9230    2.9220 C.3    40  THR40       0.0379
     72  N         12.8610   -0.7570   -1.3440 N.am   41  ASP41      -0.1957
     73  CA        13.3010    0.1610   -2.3990 C.3    41  ASP41       0.1840
     74  C         13.4820    1.5600   -1.8180 C.2    41  ASP41       0.2621
     75  O         13.2450    1.7880   -0.6160 O.2    41  ASP41      -0.2715
     76  CB        12.3560    0.1830   -3.6090 C.3    41  ASP41       0.1450
     77  CG        10.9250    0.6500   -3.2710 C.2    41  ASP41       0.3671
     78  OD1       10.7140    1.4730   -2.3600 O.co2  41  ASP41      -0.2456
     79  OD2        9.9800    0.1610   -3.9390 O.co2  41  ASP41      -0.2456
     80  N         13.8980    2.4960   -2.6680 N.am   42  ARG42      -0.1977
     81  CA        14.2030    3.8340   -2.1870 C.3    42  ARG42       0.1597
     82  C         13.0210    4.5930   -1.6020 C.2    42  ARG42       0.2287
     83  O         13.2210    5.5740   -0.8790 O.2    42  ARG42      -0.2864
     84  CB        14.9090    4.6770   -3.2590 C.3    42  ARG42       0.0334
     85  CG        14.1410    5.0130   -4.5240 C.3    42  ARG42       0.0492
     86  CD        14.9900    6.0080   -5.3120 C.3    42  ARG42       0.2205
     87  NE        14.3860    6.4100   -6.5690 N.pl3  42  ARG42      -0.0865
     88  CZ        14.7230    7.5000   -7.2590 C.cat  42  ARG42       0.5346
     89  NH1       15.6510    8.3560   -6.8070 N.pl3  42  ARG42       0.1354
     90  NH2       14.0930    7.7530   -8.3890 N.pl3  42  ARG42       0.1354
     91  N         10.6770   -5.0360   -1.0030 N.3    47  LYS47      -0.1245
     92  CA        10.9230   -5.7800   -2.2370 C.3    47  LYS47       0.1561
     93  C         10.3930   -7.2240   -2.1070 C.2    47  LYS47       0.2260
     94  O         10.5620   -8.0300   -3.0240 O.2    47  LYS47      -0.2867
     95  CB        12.4300   -5.8010   -2.5710 C.3    47  LYS47       0.0271
     96  CG        12.9640   -4.4340   -3.0250 C.3    47  LYS47       0.0035
     97  CD        14.3070   -4.5350   -3.7490 C.3    47  LYS47       0.0206
     98  CE        14.5580   -3.3270   -4.6420 C.3    47  LYS47       0.1093
     99  NZ        16.0360   -3.2230   -4.8770 N.3    47  LYS47      -0.1314
    100  N         11.4080   -9.5480    0.0250 N.3    49  TYR49      -0.1241
    101  CA        12.3530  -10.5000    0.5920 C.3    49  TYR49       0.1605
    102  C         13.2370   -9.8500    1.6400 C.2    49  TYR49       0.2264
    103  O         13.2510   -8.5990    1.7990 O.2    49  TYR49      -0.2867
    104  CB        13.2200  -11.1250   -0.5150 C.3    49  TYR49       0.0534
    105  CG        14.1670  -10.1710   -1.2140 C.ar   49  TYR49      -0.0201
    106  CD1       13.8080   -9.5650   -2.4000 C.ar   49  TYR49      -0.0009
    107  CD2       15.4780   -9.9730   -0.7420 C.ar   49  TYR49      -0.0009
    108  CE1       14.6820   -8.7090   -3.0720 C.ar   49  TYR49       0.0417
    109  CE2       16.3560   -9.1180   -1.4020 C.ar   49  TYR49       0.0417
    110  CZ        15.9540   -8.5050   -2.5570 C.ar   49  TYR49       0.1957
    111  OH        16.8100   -7.6660   -3.2200 O.3    49  TYR49      -0.2866
    112  N         16.2620  -11.0150    5.2170 N.3    51  PHE51      -0.1241
    113  CA        17.2600  -11.8840    5.7740 C.3    51  PHE51       0.1605
    114  C         17.0500  -12.0160    7.2470 C.2    51  PHE51       0.2264
    115  O         16.9100  -11.0160    7.9560 O.2    51  PHE51      -0.2867
    116  CB        18.6850  -11.3680    5.4860 C.3    51  PHE51       0.0534
    117  CG        18.9750  -11.2260    4.0180 C.ar   51  PHE51      -0.0203
    118  CD1       19.4350  -12.3130    3.2950 C.ar   51  PHE51      -0.0042
    119  CD2       18.7050  -10.0510    3.3600 C.ar   51  PHE51      -0.0042
    120  CE1       19.6660  -12.2010    1.9250 C.ar   51  PHE51      -0.0003
    121  CE2       18.9460   -9.9050    2.0040 C.ar   51  PHE51      -0.0003
    122  CZ        19.4230  -10.9850    1.2640 C.ar   51  PHE51      -0.0000
    123  N          9.6490  -18.5530    0.4250 N.3    76  LYS76      -0.1231
    124  CA        10.7710  -19.1050   -0.3700 C.3    76  LYS76       0.1693
    125  C         12.0210  -18.9550    0.4290 C.2    76  LYS76       0.2592
    126  O         12.3520  -17.8340    0.8320 O.2    76  LYS76      -0.2718
    127  CB        10.8870  -18.3400   -1.6880 C.3    76  LYS76       0.0285
    128  CG         9.6410  -18.4260   -2.5220 C.3    76  LYS76       0.0035
    129  CD         9.6200  -17.3900   -3.6120 C.3    76  LYS76       0.0206
    130  CE         8.3970  -17.5880   -4.5120 C.3    76  LYS76       0.1093
    131  NZ         8.5980  -18.7770   -5.4060 N.3    76  LYS76      -0.1314
    132  N         12.7160  -20.0460    0.6910 N.am   77  LEU77      -0.1966
    133  CA        13.8940  -19.9640    1.5180 C.3    77  LEU77       0.1728
    134  C         15.1440  -20.3200    0.7600 C.2    77  LEU77       0.2617
    135  O         15.1440  -21.1620   -0.1480 O.2    77  LEU77      -0.2715
    136  CB        13.7480  -20.9340    2.7210 C.3    77  LEU77       0.0311
    137  CG        12.4520  -20.7430    3.5150 C.3    77  LEU77       0.0022
    138  CD1       12.2640  -21.8400    4.5810 C.3    77  LEU77       0.0001
    139  CD2       12.5660  -19.3830    4.2030 C.3    77  LEU77       0.0001
    140  N         16.2420  -19.7300    1.1750 N.am   78  GLY78      -0.1941
    141  CA        17.5150  -20.1570    0.6740 C.3    78  GLY78       0.1998
    142  C         18.6700  -19.7360    1.5670 C.2    78  GLY78       0.2481
    143  O         18.4700  -18.8640    2.4480 O.2    78  GLY78      -0.2729
    144  N         19.8700  -20.2920    1.3300 N.am   79  PRO79      -0.2715
    145  CA        21.0650  -19.7060    1.9690 C.3    79  PRO79       0.1536
    146  C         21.2210  -18.2350    1.5830 C.2    79  PRO79       0.2598
    147  O         20.7800  -17.8270    0.5060 O.2    79  PRO79      -0.2715
    148  CB        22.2380  -20.5180    1.3820 C.3    79  PRO79       0.0310
    149  CG        21.6220  -21.8240    0.9320 C.3    79  PRO79       0.0237
    150  CD        20.2520  -21.3880    0.4100 C.3    79  PRO79       0.0939
    151  N         21.7990  -17.4470    2.4800 N.am   80  ALA80      -0.1964
    152  CA        21.9850  -16.0200    2.2390 C.3    80  ALA80       0.1728
    153  C         23.3540  -15.7800    1.6030 C.2    80  ALA80       0.2616
    154  O         24.3780  -16.2250    2.1370 O.2    80  ALA80      -0.2715
    155  CB        21.8700  -15.2840    3.5890 C.3    80  ALA80       0.0334
    156  N         23.3630  -15.0680    0.4700 N.am   81  ILE81      -0.1963
    157  CA        24.6020  -14.7750   -0.2850 C.3    81  ILE81       0.1727
    158  C         24.7110  -13.2540   -0.4240 C.2    81  ILE81       0.2616
    159  O         23.7490  -12.5980   -0.7920 O.2    81  ILE81      -0.2715
    160  CB        24.5320  -15.3920   -1.7140 C.3    81  ILE81       0.0290
    161  CG1       24.3980  -16.9250   -1.6230 C.3    81  ILE81       0.0022
    162  CG2       25.7460  -14.9550   -2.5950 C.3    81  ILE81       0.0023
    163  CD1       24.3440  -17.6170   -2.9960 C.3    81  ILE81       0.0001
    164  N         25.9070  -12.7260   -0.1650 N.am   82  ARG82      -0.1963
    165  CA        26.2080  -11.3230   -0.4260 C.3    82  ARG82       0.1729
    166  C         27.0000  -11.2710   -1.7120 C.2    82  ARG82       0.2616
    167  O         28.0870  -11.8400   -1.8010 O.2    82  ARG82      -0.2715
    168  CB        27.0510  -10.7360    0.6960 C.3    82  ARG82       0.0348
    169  CG        26.2610  -10.3050    1.8850 C.3    82  ARG82       0.0492
    170  CD        27.1520   -9.4850    2.8280 C.3    82  ARG82       0.2205
    171  NE        26.4210   -9.2440    4.0660 N.pl3  82  ARG82      -0.0865
    172  CZ        25.5670   -8.2460    4.2230 C.cat  82  ARG82       0.5346
    173  NH1       25.3820   -7.3920    3.2230 N.pl3  82  ARG82       0.1354
    174  NH2       24.9170   -8.0970    5.3680 N.pl3  82  ARG82       0.1354
    175  N         26.4470  -10.6150   -2.7160 N.am   83  LYS83      -0.1977
    176  CA        27.1140  -10.5270   -4.0200 C.3    83  LYS83       0.1596
    177  C         28.2640   -9.5360   -3.9120 C.2    83  LYS83       0.2287
    178  O         28.1640   -8.5500   -3.1960 O.2    83  LYS83      -0.2864
    179  CB        26.1180  -10.1420   -5.1130 C.3    83  LYS83       0.0298
    180  CG        25.1020  -11.2370   -5.4050 C.3    83  LYS83       0.0038
    181  CD        24.1320  -10.8450   -6.5660 C.3    83  LYS83       0.0206
    182  CE        23.0250  -11.9070   -6.7040 C.3    83  LYS83       0.1093
    183  NZ        21.8220  -11.4530   -7.4960 N.3    83  LYS83      -0.1314
@<TRIPOS>BOND
     1    90    88    1
     2   183   182    1
     3    88    89    1
     4    88    87    2
     5   182   181    1
     6    87    86    1
     7   181   180    1
     8   131   130    1
     9   180   179    1
    10    86    85    1
    11   179   176    1
    12    99    98    1
    13    98    97    1
    14    85    84    1
    15   130   129    1
    16   176   177    1
    17   176   175    1
    18    79    77   ar
    19   177   178    2
    20    97    96    1
    21   129   128    1
    22    76    77    1
    23    76    73    1
    24    77    78   ar
    25    84    81    1
    26   111   110    1
    27   108   110   ar
    28   108   106   ar
    29    96    95    1
    30    94    93    2
    31   163   161    1
    32   175   166   am
    33    80    81    1
    34    80    74   am
    35   162   160    1
    36    95    92    1
    37   110   109   ar
    38   128   127    1
    39   106   105   ar
    40    73    74    1
    41    73    72    1
    42    92    93    1
    43    92    91    1
    44    81    82    1
    45    74    75    2
    46   167   166    2
    47   160   161    1
    48   160   157    1
    49   166   165    1
    50   127   124    1
    51    26    25   ar
    52    26    24   ar
    53    82    83    2
    54   109   107   ar
    55    72    67   am
    56    25    23   ar
    57   105   107   ar
    58   105   104    1
    59    24    22   ar
    60   159   158    2
    61    68    67    2
    62    67    66    1
    63   104   101    1
    64   165   164    1
    65   165   168    1
    66   158   157    1
    67   158   164   am
    68   124   123    1
    69   124   125    1
    70   157   156    1
    71    63    61    1
    72    23    21   ar
    73    29    28    1
    74    29    30    2
    75    28    27    1
    76   135   134    2
    77    22    21   ar
    78   100   101    1
    79    21    20    1
    80   150   149    1
    81   150   144    1
    82   125   132   am
    83   125   126    2
    84   156   153   am
    85   147   146    2
    86   101   102    1
    87    66    65    1
    88    66    69    1
    89   141   140    1
    90   141   142    1
    91   132   133    1
    92   168   169    1
    93   134   140   am
    94   134   133    1
    95    61    62    1
    96    61    58    1
    97    60    59    2
    98   149   148    1
    99    65    59   am
   100    59    58    1
   101   122   120   ar
   102   122   121   ar
   103   144   142   am
   104   144   145    1
   105    20    17    1
   106   148   145    1
   107    62    64    1
   108   133   136    1
   109   142   143    2
   110   146   145    1
   111   146   151   am
   112   153   154    2
   113   153   152    1
   114   102   103    2
   115    69    70    1
   116    69    71    1
   117    58    57    1
   118   169   170    1
   119   120   118   ar
   120   121   119   ar
   121   152   151    1
   122   152   155    1
   123   136   137    1
   124    19    18    2
   125    17    18    1
   126    17    16    1
   127   170   171    1
   128    57    51   am
   129   173   172    1
   130   118   117   ar
   131   119   117   ar
   132     8     7    1
   133   137   139    1
   134   137   138    1
   135     1     2    1
   136   117   116    1
   137   171   172    2
   138    51    52    2
   139    51    50    1
   140    55    53    1
   141   172   174    1
   142     6     7    1
   143     6     5    1
   144    50    53    1
   145    50    49    1
   146     2     5    1
   147     2     3    1
   148   112   113    1
   149    53    54    1
   150   116   113    1
   151    43    42    2
   152   113   114    1
   153    46    45    1
   154    46    47    1
   155    56    54    1
   156     4     3    2
   157    48    47    1
   158    12    11    2
   159    49    42   am
   160    42    41    1
   161    45    44    1
   162    15    13    1
   163    11    10    1
   164   114   115    2
   165    13    10    1
   166    13    14    1
   167    44    41    1
   168    41    40    1
   169    10     9    1
   170    38    37   ar
   171    37    39   ar
   172    37    36    1
   173    36    35    1
   174    34    33    2
   175    33    32    1
   176    35    32    1
   177    32    31    1
