@<TRIPOS>MOLECULE
tmp/2xs7A00.pdb
 162 156 0 0 0
SMALL
GASTEIGER

@<TRIPOS>ATOM
      1  N        -10.1940    2.9630  -19.2040 N.3     7  MET7       -0.1245
      2  CA       -10.6170    4.3040  -18.7490 C.3     7  MET7        0.1570
      3  C         -9.6180    5.3630  -19.1950 C.2     7  MET7        0.2261
      4  O         -8.4480    5.2930  -18.8200 O.2     7  MET7       -0.2867
      5  CB       -10.7580    4.3290  -17.2170 C.3     7  MET7        0.0387
      6  CG       -11.8800    3.4100  -16.7200 C.3     7  MET7        0.0595
      7  SD       -13.4560    3.4730  -17.6620 S.3     7  MET7       -0.1393
      8  CE       -14.1260    4.9880  -17.0680 C.3     7  MET7        0.0692
      9  N         -6.4400    7.7030  -16.9930 N.3    10  THR10      -0.1218
     10  CA        -6.4300    7.1110  -15.6540 C.3    10  THR10       0.1862
     11  C         -5.3310    6.0640  -15.6200 C.2    10  THR10       0.2287
     12  O         -5.1160    5.3320  -16.6090 O.2    10  THR10      -0.2866
     13  CB        -7.7950    6.4730  -15.3990 C.3    10  THR10       0.1770
     14  OG1       -8.8060    7.4540  -15.6310 O.3    10  THR10      -0.2211
     15  CG2       -7.9440    5.9450  -13.9890 C.3    10  THR10       0.0375
     16  N         -3.8680    2.8300  -13.2130 N.3    12  PHE12      -0.1241
     17  CA        -3.8800    1.9080  -12.0550 C.3    12  PHE12       0.1605
     18  C         -2.5760    1.9390  -11.3290 C.2    12  PHE12       0.2264
     19  O         -1.4860    1.8580  -11.9570 O.2    12  PHE12      -0.2867
     20  CB        -4.1780    0.4830  -12.5400 C.3    12  PHE12       0.0534
     21  CG        -3.9560   -0.5890  -11.5020 C.ar   12  PHE12      -0.0203
     22  CD1       -5.0190   -1.0340  -10.7110 C.ar   12  PHE12      -0.0042
     23  CD2       -2.6990   -1.1880  -11.3660 C.ar   12  PHE12      -0.0042
     24  CE1       -4.8470   -2.0710   -9.7780 C.ar   12  PHE12      -0.0003
     25  CE2       -2.4980   -2.2570  -10.4000 C.ar   12  PHE12      -0.0003
     26  CZ        -3.5940   -2.6660   -9.6160 C.ar   12  PHE12      -0.0000
     27  N         -0.7740   -0.1170   -8.2170 N.3    14  GLY14      -0.1225
     28  CA        -0.8420   -1.1690   -7.1820 C.3    14  GLY14       0.1811
     29  C          0.4520   -1.2300   -6.3740 C.2    14  GLY14       0.2280
     30  O          1.4400   -0.5330   -6.6610 O.2    14  GLY14      -0.2866
     31  N         -7.7710    7.7480   -5.9460 N.3    39  LYS39      -0.1245
     32  CA        -8.6540    6.9340   -5.1240 C.3    39  LYS39       0.1561
     33  C         -7.9790    5.6180   -4.7900 C.2    39  LYS39       0.2260
     34  O         -7.7210    4.8050   -5.6790 O.2    39  LYS39      -0.2867
     35  CB        -9.9450    6.6540   -5.8560 C.3    39  LYS39       0.0271
     36  CG       -10.9740    6.0970   -4.9300 C.3    39  LYS39       0.0035
     37  CD       -12.2620    5.9270   -5.7040 C.3    39  LYS39       0.0206
     38  CE       -13.4050    5.6150   -4.7820 C.3    39  LYS39       0.1093
     39  NZ       -13.9270    6.7480   -3.9440 N.3    39  LYS39      -0.1314
     40  N         -8.4440    2.0950   -3.2880 N.3    41  ILE41      -0.1231
     41  CA        -9.6070    1.2260   -3.1060 C.3    41  ILE41       0.1692
     42  C         -9.5810    0.5660   -1.7280 C.2    41  ILE41       0.2592
     43  O         -8.5990   -0.0610   -1.3370 O.2    41  ILE41      -0.2718
     44  CB        -9.7150    0.1570   -4.2130 C.3    41  ILE41       0.0266
     45  CG1       -9.7450    0.8290   -5.5940 C.3    41  ILE41       0.0019
     46  CG2      -11.0260   -0.6830   -4.0300 C.3    41  ILE41       0.0020
     47  CD1      -10.9030    1.8540   -5.8080 C.3    41  ILE41       0.0001
     48  N        -10.6480    0.7730   -0.9570 N.am   42  THR42      -0.1953
     49  CA       -10.7240    0.1700    0.3810 C.3    42  THR42       0.1897
     50  C        -11.9600   -0.6800    0.4850 C.2    42  THR42       0.2313
     51  O        -12.9250   -0.4800   -0.2510 O.2    42  THR42      -0.2863
     52  CB       -10.7330    1.2610    1.4980 C.3    42  THR42       0.1794
     53  OG1      -11.8780    2.0770    1.3570 O.3    42  THR42      -0.2208
     54  CG2       -9.5360    2.1580    1.3800 C.3    42  THR42       0.0378
     55  N        -15.2730   -1.8640    2.9280 N.3    44  ARG44      -0.1245
     56  CA       -16.2570   -0.9920    3.6300 C.3    44  ARG44       0.1563
     57  C        -15.8220   -0.5520    5.0570 C.2    44  ARG44       0.2260
     58  O        -16.4040    0.3940    5.6360 O.2    44  ARG44      -0.2867
     59  CB       -17.6550   -1.6530    3.6660 C.3    44  ARG44       0.0307
     60  CG       -18.1980   -1.9350    2.2690 C.3    44  ARG44       0.0489
     61  CD       -19.0370   -0.7870    1.7170 C.3    44  ARG44       0.2205
     62  NE       -18.3430    0.4890    1.7360 N.pl3  44  ARG44      -0.0865
     63  CZ       -17.4210    0.7970    0.8240 C.cat  44  ARG44       0.5346
     64  NH1      -17.0960   -0.0660   -0.1370 N.pl3  44  ARG44       0.1354
     65  NH2      -16.8550    1.9990    0.8530 N.pl3  44  ARG44       0.1354
     66  N         -7.1700   -2.0400   -0.0520 N.3    49  LYS49      -0.1231
     67  CA        -6.8760   -3.2180   -0.8440 C.3    49  LYS49       0.1693
     68  C         -5.4980   -3.1410   -1.4840 C.2    49  LYS49       0.2593
     69  O         -5.0830   -4.0750   -2.1920 O.2    49  LYS49      -0.2718
     70  CB        -7.9520   -3.3860   -1.9100 C.3    49  LYS49       0.0285
     71  CG        -9.3280   -3.6590   -1.2730 C.3    49  LYS49       0.0035
     72  CD       -10.2670   -4.1670   -2.2850 C.3    49  LYS49       0.0206
     73  CE       -11.6010   -4.3300   -1.6570 C.3    49  LYS49       0.1093
     74  NZ       -12.5710   -4.8120   -2.6440 N.3    49  LYS49      -0.1314
     75  N         -4.7780   -2.0470   -1.2580 N.am   50  GLY50      -0.1942
     76  CA        -3.3820   -1.9510   -1.7000 C.3    50  GLY50       0.2014
     77  C         -3.2250   -1.5070   -3.1590 C.2    50  GLY50       0.2638
     78  O         -2.1140   -1.5950   -3.7350 O.2    50  GLY50      -0.2714
     79  N         -4.3340   -1.0450   -3.7500 N.am   51  TYR51      -0.1973
     80  CA        -4.2580   -0.4910   -5.1160 C.3    51  TYR51       0.1639
     81  C         -5.2300    0.6800   -5.2380 C.2    51  TYR51       0.2290
     82  O         -6.1630    0.8390   -4.4390 O.2    51  TYR51      -0.2864
     83  CB        -4.5230   -1.5950   -6.1780 C.3    51  TYR51       0.0560
     84  CG        -5.9660   -2.1000   -6.2640 C.ar   51  TYR51      -0.0198
     85  CD1       -6.3720   -3.2580   -5.5660 C.ar   51  TYR51      -0.0009
     86  CD2       -6.9340   -1.4590   -7.0770 C.ar   51  TYR51      -0.0009
     87  CE1       -7.6810   -3.7260   -5.6390 C.ar   51  TYR51       0.0417
     88  CE2       -8.2110   -1.9310   -7.1840 C.ar   51  TYR51       0.0417
     89  CZ        -8.6050   -3.0750   -6.4700 C.ar   51  TYR51       0.1957
     90  OH        -9.9380   -3.4800   -6.6320 O.3    51  TYR51      -0.2866
     91  N         -6.3140    4.3570   -8.0970 N.3    53  PHE53      -0.1241
     92  CA        -6.3530    4.9140   -9.4510 C.3    53  PHE53       0.1605
     93  C         -6.0650    6.3960   -9.3990 C.2    53  PHE53       0.2264
     94  O         -6.5200    7.0930   -8.5110 O.2    53  PHE53      -0.2867
     95  CB        -7.7250    4.7080  -10.0790 C.3    53  PHE53       0.0534
     96  CG        -8.0500    3.2550  -10.2220 C.ar   53  PHE53      -0.0203
     97  CD1       -7.7120    2.5500  -11.3830 C.ar   53  PHE53      -0.0042
     98  CD2       -8.6190    2.5740   -9.1560 C.ar   53  PHE53      -0.0042
     99  CE1       -7.9810    1.1720  -11.5030 C.ar   53  PHE53      -0.0003
    100  CE2       -8.8830    1.1910   -9.2450 C.ar   53  PHE53      -0.0003
    101  CZ        -8.5740    0.5020  -10.4210 C.ar   53  PHE53      -0.0000
    102  N          3.3290   -0.7990   -8.9210 N.3    78  LYS78      -0.1231
    103  CA         2.8830   -1.6380  -10.0210 C.3    78  LYS78       0.1693
    104  C          1.8540   -0.8840  -10.8480 C.2    78  LYS78       0.2592
    105  O          0.6750   -0.7420  -10.4430 O.2    78  LYS78      -0.2718
    106  CB         2.2660   -2.9160   -9.4690 C.3    78  LYS78       0.0285
    107  CG         3.2940   -3.7400   -8.6990 C.3    78  LYS78       0.0035
    108  CD         2.7290   -4.9250   -7.8860 C.3    78  LYS78       0.0206
    109  CE         3.8850   -5.8330   -7.4010 C.3    78  LYS78       0.1093
    110  NZ         4.7000   -6.4080   -8.5610 N.3    78  LYS78      -0.1314
    111  N          2.2460   -0.4680  -12.0390 N.am   79  LEU79      -0.1966
    112  CA         1.3900    0.4300  -12.8070 C.3    79  LEU79       0.1728
    113  C          0.7020   -0.2810  -13.9560 C.2    79  LEU79       0.2617
    114  O          1.2100   -1.2900  -14.4680 O.2    79  LEU79      -0.2715
    115  CB         2.2190    1.6210  -13.3300 C.3    79  LEU79       0.0311
    116  CG         3.0070    2.4570  -12.3080 C.3    79  LEU79       0.0022
    117  CD1        3.7740    3.5970  -13.0140 C.3    79  LEU79       0.0001
    118  CD2        2.0180    2.9790  -11.2120 C.3    79  LEU79       0.0001
    119  N         -0.4850    0.1790  -14.3410 N.am   80  GLY80      -0.1941
    120  CA        -1.0520   -0.3330  -15.5960 C.3    80  GLY80       0.1998
    121  C         -2.1260    0.6100  -16.1090 C.2    80  GLY80       0.2481
    122  O         -2.5630    1.5080  -15.3950 O.2    80  GLY80      -0.2729
    123  N         -2.5880    0.4160  -17.3560 N.am   81  PRO81      -0.2715
    124  CA        -3.7850    1.0840  -17.8050 C.3    81  PRO81       0.1536
    125  C         -4.9310    0.7250  -16.8540 C.2    81  PRO81       0.2598
    126  O         -4.9190   -0.3640  -16.2390 O.2    81  PRO81      -0.2715
    127  CB        -4.0140    0.4890  -19.2090 C.3    81  PRO81       0.0310
    128  CG        -2.6230    0.1280  -19.6250 C.3    81  PRO81       0.0237
    129  CD        -2.0640   -0.4750  -18.3930 C.3    81  PRO81       0.0939
    130  N         -5.8700    1.6440  -16.6900 N.am   82  ALA82      -0.1964
    131  CA        -7.0010    1.4420  -15.8020 C.3    82  ALA82       0.1728
    132  C         -8.1490    0.8200  -16.5940 C.2    82  ALA82       0.2616
    133  O         -8.5780    1.3490  -17.6310 O.2    82  ALA82      -0.2715
    134  CB        -7.4340    2.7560  -15.1820 C.3    82  ALA82       0.0334
    135  N         -8.6630   -0.2870  -16.0780 N.am   83  ILE83      -0.1963
    136  CA        -9.7720   -0.9760  -16.7340 C.3    83  ILE83       0.1727
    137  C        -10.9330   -1.1480  -15.7380 C.2    83  ILE83       0.2616
    138  O        -10.7350   -1.6000  -14.5830 O.2    83  ILE83      -0.2715
    139  CB        -9.3100   -2.3940  -17.2600 C.3    83  ILE83       0.0290
    140  CG1       -8.2400   -2.2500  -18.3980 C.3    83  ILE83       0.0022
    141  CG2      -10.4590   -3.2880  -17.6610 C.3    83  ILE83       0.0023
    142  CD1       -7.6250   -3.5460  -18.9080 C.3    83  ILE83       0.0001
    143  N        -12.1390   -0.8190  -16.1830 N.am   84  ARG84      -0.1963
    144  CA       -13.3090   -1.1470  -15.4000 C.3    84  ARG84       0.1729
    145  C        -13.8810   -2.4470  -15.9510 C.2    84  ARG84       0.2616
    146  O        -14.3150   -2.5090  -17.1140 O.2    84  ARG84      -0.2715
    147  CB       -14.3200   -0.0180  -15.4680 C.3    84  ARG84       0.0348
    148  CG       -13.9360    1.1050  -14.5530 C.3    84  ARG84       0.0492
    149  CD       -15.0300    2.1890  -14.5020 C.3    84  ARG84       0.2205
    150  NE       -14.6400    3.2670  -13.6060 N.pl3  84  ARG84      -0.0865
    151  CZ       -14.7970    3.2320  -12.2860 C.cat  84  ARG84       0.5346
    152  NH1      -15.3700    2.1840  -11.7170 N.pl3  84  ARG84       0.1354
    153  NH2      -14.4070    4.2590  -11.5410 N.pl3  84  ARG84       0.1354
    154  N        -13.8800   -3.4920  -15.1270 N.am   85  LYS85      -0.1977
    155  CA       -14.3780   -4.7880  -15.5870 C.3    85  LYS85       0.1596
    156  C        -15.9040   -4.6690  -15.6770 C.2    85  LYS85       0.2287
    157  O        -16.5140   -4.0040  -14.8390 O.2    85  LYS85      -0.2864
    158  CB       -13.9300   -5.9190  -14.6550 C.3    85  LYS85       0.0298
    159  CG       -12.4100   -6.1800  -14.6320 C.3    85  LYS85       0.0038
    160  CD       -12.0530   -7.3760  -13.7290 C.3    85  LYS85       0.0206
    161  CE       -10.5540   -7.5560  -13.6040 C.3    85  LYS85       0.1093
    162  NZ       -10.1540   -8.5470  -12.5570 N.3    85  LYS85      -0.1314
@<TRIPOS>BOND
     1   128   127    1
     2   128   129    1
     3   127   124    1
     4     1     2    1
     5     3     4    2
     6     3     2    1
     7   142   140    1
     8     2     5    1
     9   140   139    1
    10   129   123    1
    11   124   123    1
    12   124   125    1
    13     7     8    1
    14     7     6    1
    15   141   139    1
    16   133   132    2
    17   123   121   am
    18   139   136    1
    19     5     6    1
    20   146   145    2
    21     9    10    1
    22   125   130   am
    23   125   126    2
    24   136   135    1
    25   136   137    1
    26   130   131    1
    27    12    11    2
    28   132   135   am
    29   132   131    1
    30   143   137   am
    31   143   144    1
    32   121   120    1
    33   121   122    2
    34   145   144    1
    35   145   154   am
    36   131   134    1
    37   137   138    2
    38   156   155    1
    39   156   157    2
    40    10    11    1
    41    10    13    1
    42    14    13    1
    43   120   119    1
    44   155   154    1
    45   155   158    1
    46   147   144    1
    47   147   148    1
    48    13    15    1
    49   158   159    1
    50   159   160    1
    51   148   149    1
    52   149   150    1
    53   114   113    2
    54   119   113   am
    55   113   112    1
    56   160   161    1
    57   150   151    2
    58   161   162    1
    59   115   112    1
    60   115   116    1
    61    16    17    1
    62   117   116    1
    63   112   111    1
    64    20    17    1
    65    20    21    1
    66   116   118    1
    67   151   152    1
    68   151   153    1
    69    17    18    1
    70   111   104   am
    71    19    18    2
    72    99    97   ar
    73    99   101   ar
    74    21    23   ar
    75    21    22   ar
    76    97    96   ar
    77    23    25   ar
    78   104   105    2
    79   104   103    1
    80    22    24   ar
    81   101   100   ar
    82    25    26   ar
    83    96    95    1
    84    96    98   ar
    85    95    92    1
    86   103   106    1
    87   103   102    1
    88    24    26   ar
    89   106   107    1
    90    92    93    1
    91    92    91    1
    92    93    94    2
    93   100    98   ar
    94   107   108    1
    95   110   109    1
    96    27    28    1
    97   108   109    1
    98    88    86   ar
    99    88    89   ar
   100    28    29    1
   101    86    84   ar
   102    30    29    2
   103    90    89    1
   104    89    87   ar
   105    84    83    1
   106    84    85   ar
   107    83    80    1
   108    31    32    1
   109    35    32    1
   110    35    36    1
   111    47    45    1
   112    37    36    1
   113    37    38    1
   114    34    33    2
   115    87    85   ar
   116    45    44    1
   117    81    80    1
   118    81    82    2
   119    32    33    1
   120    80    79    1
   121    38    39    1
   122    44    46    1
   123    44    41    1
   124    79    77   am
   125    78    77    2
   126    40    41    1
   127    77    76    1
   128    41    42    1
   129    74    73    1
   130    72    73    1
   131    72    71    1
   132    69    68    2
   133    70    71    1
   134    70    67    1
   135    42    43    2
   136    42    48   am
   137    76    75    1
   138    68    75   am
   139    68    67    1
   140    48    49    1
   141    67    66    1
   142    51    50    2
   143    64    63    1
   144    49    50    1
   145    49    52    1
   146    63    65    1
   147    63    62    2
   148    53    52    1
   149    54    52    1
   150    61    62    1
   151    61    60    1
   152    60    59    1
   153    55    56    1
   154    56    59    1
   155    56    57    1
   156    57    58    2
