@<TRIPOS>MOLECULE
tmp/2xs8A00.pdb
 162 154 0 0 0
SMALL
GASTEIGER

@<TRIPOS>ATOM
      1  N        -79.2100  -26.0260  -59.1660 N.3   439  LEU439     -0.1245
      2  CA       -77.8660  -26.4630  -59.4850 C.3   439  LEU439      0.1561
      3  C        -77.1310  -25.3820  -60.2730 C.2   439  LEU439      0.2260
      4  O        -76.0110  -25.0150  -59.9270 O.2   439  LEU439     -0.2867
      5  CB       -77.8940  -27.7810  -60.2540 C.3   439  LEU439      0.0270
      6  CG       -76.6840  -28.6760  -60.0110 C.3   439  LEU439      0.0019
      7  CD1      -76.4590  -28.9210  -58.5180 C.3   439  LEU439      0.0001
      8  CD2      -76.8460  -29.9830  -60.7650 C.3   439  LEU439      0.0001
      9  N        -56.6010  -23.6840  -62.2320 N.3   493  ASN493     -0.1225
     10  CA       -57.0660  -24.9980  -61.8170 C.3   493  ASN493      0.1785
     11  C        -58.5350  -24.9490  -61.4380 C.2   493  ASN493      0.2597
     12  O        -59.3570  -25.6760  -61.9920 O.2   493  ASN493     -0.2718
     13  CB       -56.2480  -25.5230  -60.6430 C.3   493  ASN493      0.1169
     14  CG       -54.8350  -25.8860  -61.0420 C.2   493  ASN493      0.2627
     15  OD1      -54.5650  -26.1780  -62.2090 O.2   493  ASN493     -0.2716
     16  ND2      -53.9220  -25.8700  -60.0740 N.am  493  ASN493     -0.0877
     17  N        -58.8590  -24.0920  -60.4800 N.am  494  PHE494     -0.1976
     18  CA       -60.2380  -23.8900  -60.0920 C.3   494  PHE494      0.1639
     19  C        -61.1130  -23.8690  -61.3300 C.2   494  PHE494      0.2290
     20  O        -62.1270  -24.5560  -61.3960 O.2   494  PHE494     -0.2864
     21  CB       -60.3790  -22.5800  -59.3360 C.3   494  PHE494      0.0560
     22  CG       -60.0340  -22.6850  -57.8890 C.ar  494  PHE494     -0.0200
     23  CD1      -59.3060  -21.6880  -57.2650 C.ar  494  PHE494     -0.0042
     24  CD2      -60.4440  -23.7780  -57.1460 C.ar  494  PHE494     -0.0042
     25  CE1      -59.0000  -21.7770  -55.9250 C.ar  494  PHE494     -0.0003
     26  CE2      -60.1380  -23.8750  -55.8050 C.ar  494  PHE494     -0.0003
     27  CZ       -59.4130  -22.8700  -55.1910 C.ar  494  PHE494     -0.0000
     28  N        -60.6370  -25.2000  -64.2290 N.3   496  THR496     -0.1203
     29  CA       -60.7440  -26.5460  -64.7700 C.3   496  THR496      0.1994
     30  C        -61.6020  -27.4510  -63.8890 C.2   496  THR496      0.2617
     31  O        -62.1540  -28.4470  -64.3630 O.2   496  THR496     -0.2717
     32  CB       -59.3590  -27.1570  -65.0140 C.3   496  THR496      0.1784
     33  OG1      -58.6860  -26.3790  -66.0100 O.3   496  THR496     -0.2211
     34  CG2      -59.4690  -28.5870  -65.5120 C.3   496  THR496      0.0376
     35  N        -61.7370  -27.0970  -62.6180 N.am  497  VAL497     -0.1979
     36  CA       -62.6750  -27.7970  -61.7490 C.3   497  VAL497      0.1595
     37  C        -64.1240  -27.5140  -62.1660 C.2   497  VAL497      0.2287
     38  O        -64.9290  -28.4340  -62.3450 O.2   497  VAL497     -0.2864
     39  CB       -62.4820  -27.3990  -60.2850 C.3   497  VAL497      0.0276
     40  CG1      -63.7560  -27.6550  -59.4790 C.3   497  VAL497      0.0022
     41  CG2      -61.2970  -28.1480  -59.7010 C.3   497  VAL497      0.0022
     42  N        -65.2730  -29.4930  -65.0550 N.3   500  LYS500     -0.1231
     43  CA       -65.6910  -30.8560  -64.7740 C.3   500  LYS500      0.1693
     44  C        -67.0570  -30.8930  -64.0900 C.2   500  LYS500      0.2591
     45  O        -67.8970  -31.7290  -64.4120 O.2   500  LYS500     -0.2718
     46  CB       -64.6380  -31.5720  -63.9310 C.3   500  LYS500      0.0285
     47  CG       -63.2430  -31.5120  -64.5370 C.3   500  LYS500      0.0035
     48  CD       -63.1810  -32.1710  -65.9070 C.3   500  LYS500      0.0206
     49  CE       -61.8460  -31.8970  -66.5920 C.3   500  LYS500      0.1093
     50  NZ       -61.6790  -32.7080  -67.8380 N.3   500  LYS500     -0.1314
     51  N        -67.2810  -29.9760  -63.1570 N.am  501  ALA501     -0.1980
     52  CA       -68.5490  -29.9190  -62.4430 C.3   501  ALA501      0.1597
     53  C        -69.7270  -29.6710  -63.3800 C.2   501  ALA501      0.2287
     54  O        -70.7840  -30.2850  -63.2310 O.2   501  ALA501     -0.2864
     55  CB       -68.5010  -28.8630  -61.3680 C.3   501  ALA501      0.0319
     56  N        -70.6470  -32.6720  -65.3290 N.3   504  ALA504     -0.1231
     57  CA       -71.4390  -33.5900  -64.5180 C.3   504  ALA504      0.1694
     58  C        -72.8840  -33.1090  -64.3750 C.2   504  ALA504      0.2592
     59  O        -73.8220  -33.9080  -64.4070 O.2   504  ALA504     -0.2718
     60  CB       -70.7970  -33.7770  -63.1500 C.3   504  ALA504      0.0304
     61  N        -73.0600  -31.8040  -64.2060 N.am  505  ASP505     -0.1974
     62  CA       -74.3840  -31.1960  -64.2870 C.3   505  ASP505      0.1709
     63  C        -75.1470  -31.6670  -65.5290 C.2   505  ASP505      0.2293
     64  O        -76.3310  -31.9890  -65.4570 O.2   505  ASP505     -0.2864
     65  CB       -74.2730  -29.6730  -64.3360 C.3   505  ASP505      0.1436
     66  CG       -74.0160  -29.0580  -62.9780 C.2   505  ASP505      0.3671
     67  OD1      -73.6690  -29.8070  -62.0380 O.co2 505  ASP505     -0.2456
     68  OD2      -74.1580  -27.8200  -62.8630 O.co2 505  ASP505     -0.2456
     69  N        -74.7210  -34.3890  -67.3300 N.3   507  GLN507     -0.1231
     70  CA       -75.0390  -35.8080  -67.3060 C.3   507  GLN507      0.1698
     71  C        -76.2740  -36.0600  -66.4520 C.2   507  GLN507      0.2592
     72  O        -77.1690  -36.8130  -66.8380 O.2   507  GLN507     -0.2718
     73  CB       -73.8980  -36.6190  -66.7240 C.3   507  GLN507      0.0381
     74  CG       -72.5520  -36.4510  -67.3750 C.3   507  GLN507      0.0905
     75  CD       -71.5020  -37.2960  -66.6560 C.2   507  GLN507      0.2608
     76  OE1      -70.3610  -36.8620  -66.4430 O.2   507  GLN507     -0.2717
     77  NE2      -71.8960  -38.5100  -66.2610 N.am  507  GLN507     -0.0878
     78  N        -76.2920  -35.4390  -65.2790 N.am  508  VAL508     -0.1980
     79  CA       -77.3860  -35.5710  -64.3310 C.3   508  VAL508      0.1595
     80  C        -78.7010  -34.9920  -64.8910 C.2   508  VAL508      0.2287
     81  O        -79.7790  -35.5560  -64.6850 O.2   508  VAL508     -0.2864
     82  CB       -76.9990  -34.9060  -62.9940 C.3   508  VAL508      0.0276
     83  CG1      -78.1870  -34.7820  -62.0520 C.3   508  VAL508      0.0022
     84  CG2      -75.8740  -35.6860  -62.3440 C.3   508  VAL508      0.0022
     85  N        -77.2510  -38.1880  -56.7320 N.3   668  ASN668     -0.1240
     86  CA       -76.2900  -37.4240  -57.5130 C.3   668  ASN668      0.1653
     87  C        -76.5100  -35.9330  -57.3760 C.2   668  ASN668      0.2266
     88  O        -75.6210  -35.1370  -57.6490 O.2   668  ASN668     -0.2867
     89  CB       -76.3430  -37.8200  -58.9850 C.3   668  ASN668      0.1155
     90  CG       -75.7610  -39.1790  -59.2270 C.2   668  ASN668      0.2627
     91  OD1      -74.9100  -39.6350  -58.4690 O.2   668  ASN668     -0.2716
     92  ND2      -76.2150  -39.8450  -60.2790 N.am  668  ASN668     -0.0877
     93  N        -75.1780  -35.0380  -53.7170 N.3   671  GLU671     -0.1231
     94  CA       -73.7460  -35.0340  -53.9220 C.3   671  GLU671      0.1699
     95  C        -73.2930  -33.7230  -54.5850 C.2   671  GLU671      0.2592
     96  O        -72.5170  -32.9630  -54.0060 O.2   671  GLU671     -0.2718
     97  CB       -73.3150  -36.2430  -54.7510 C.3   671  GLU671      0.0402
     98  CG       -71.8160  -36.4610  -54.7350 C.3   671  GLU671      0.1161
     99  CD       -71.3500  -37.6300  -55.5880 C.2   671  GLU671      0.3649
    100  OE1      -72.1480  -38.1790  -56.3820 O.co2 671  GLU671     -0.2457
    101  OE2      -70.1620  -37.9970  -55.4530 O.co2 671  GLU671     -0.2457
    102  N        -73.7840  -33.4530  -55.7910 N.am  672  GLY672     -0.1957
    103  CA       -73.4190  -32.2410  -56.5100 C.3   672  GLY672      0.1869
    104  C        -73.6400  -30.9540  -55.7360 C.2   672  GLY672      0.2309
    105  O        -72.9370  -29.9590  -55.9380 O.2   672  GLY672     -0.2863
    106  N        -73.6590  -30.6820  -52.1630 N.3   674  LYS674     -0.1231
    107  CA       -72.5960  -30.7240  -51.1690 C.3   674  LYS674      0.1693
    108  C        -71.2810  -30.2280  -51.7860 C.2   674  LYS674      0.2592
    109  O        -70.5640  -29.4150  -51.1900 O.2   674  LYS674     -0.2718
    110  CB       -72.4300  -32.1550  -50.6440 C.3   674  LYS674      0.0285
    111  CG       -71.4650  -32.3190  -49.4740 C.3   674  LYS674      0.0035
    112  CD       -71.3530  -33.7870  -49.0700 C.3   674  LYS674      0.0206
    113  CE       -70.6500  -33.9730  -47.7260 C.3   674  LYS674      0.1093
    114  NZ       -70.7450  -35.3880  -47.2260 N.3   674  LYS674     -0.1314
    115  N        -70.9810  -30.7170  -52.9860 N.am  675  PHE675     -0.1962
    116  CA       -69.7760  -30.3260  -53.7040 C.3   675  PHE675      0.1771
    117  C        -69.7170  -28.8200  -53.9440 C.2   675  PHE675      0.2619
    118  O        -68.7510  -28.1790  -53.5660 O.2   675  PHE675     -0.2715
    119  CB       -69.6730  -31.0980  -55.0180 C.3   675  PHE675      0.0574
    120  CG       -68.7270  -30.4980  -56.0120 C.ar  675  PHE675     -0.0200
    121  CD1      -67.4250  -30.9410  -56.0990 C.ar  675  PHE675     -0.0042
    122  CD2      -69.1500  -29.5080  -56.8850 C.ar  675  PHE675     -0.0042
    123  CE1      -66.5530  -30.3950  -57.0190 C.ar  675  PHE675     -0.0003
    124  CE2      -68.2790  -28.9540  -57.8110 C.ar  675  PHE675     -0.0003
    125  CZ       -66.9800  -29.4000  -57.8770 C.ar  675  PHE675     -0.0000
    126  N        -70.7480  -28.2510  -54.5590 N.am  676  TYR676     -0.1974
    127  CA       -70.7370  -26.8260  -54.8670 C.3   676  TYR676      0.1639
    128  C        -70.6730  -25.9630  -53.6060 C.2   676  TYR676      0.2290
    129  O        -70.1670  -24.8390  -53.6370 O.2   676  TYR676     -0.2864
    130  CB       -71.9460  -26.4420  -55.7130 C.3   676  TYR676      0.0560
    131  CG       -71.7710  -26.6690  -57.2010 C.ar  676  TYR676     -0.0198
    132  CD1      -72.7420  -27.3460  -57.9360 C.ar  676  TYR676     -0.0009
    133  CD2      -70.6590  -26.1840  -57.8860 C.ar  676  TYR676     -0.0009
    134  CE1      -72.6050  -27.5610  -59.3080 C.ar  676  TYR676      0.0417
    135  CE2      -70.5190  -26.3870  -59.2740 C.ar  676  TYR676      0.0417
    136  CZ       -71.5040  -27.0790  -59.9790 C.ar  676  TYR676      0.1957
    137  OH       -71.3930  -27.2970  -61.3440 O.3   676  TYR676     -0.2866
    138  N        -69.1430  -26.9280  -50.5950 N.3   678  GLU678     -0.1231
    139  CA       -67.7530  -27.0350  -50.1830 C.3   678  GLU678      0.1699
    140  C        -66.9110  -26.1070  -51.0430 C.2   678  GLU678      0.2592
    141  O        -66.0230  -25.4080  -50.5470 O.2   678  GLU678     -0.2718
    142  CB       -67.2490  -28.4690  -50.3360 C.3   678  GLU678      0.0402
    143  CG       -67.7180  -29.4110  -49.2430 C.3   678  GLU678      0.1161
    144  CD       -67.4470  -30.8600  -49.5800 C.2   678  GLU678      0.3649
    145  OE1      -66.6410  -31.1040  -50.5030 O.co2 678  GLU678     -0.2457
    146  OE2      -68.0450  -31.7480  -48.9300 O.co2 678  GLU678     -0.2457
    147  N        -67.1980  -26.1140  -52.3400 N.am  679  LEU679     -0.1980
    148  CA       -66.4700  -25.3030  -53.3000 C.3   679  LEU679      0.1596
    149  C        -66.6130  -23.8170  -53.0100 C.2   679  LEU679      0.2287
    150  O        -65.6780  -23.0450  -53.2310 O.2   679  LEU679     -0.2864
    151  CB       -66.9370  -25.5950  -54.7200 C.3   679  LEU679      0.0297
    152  CG       -66.0550  -24.9050  -55.7520 C.3   679  LEU679      0.0022
    153  CD1      -64.5990  -25.2010  -55.4460 C.3   679  LEU679      0.0001
    154  CD2      -66.4180  -25.3420  -57.1510 C.3   679  LEU679      0.0001
    155  N        -64.1640  -23.1520  -50.1500 N.3   682  ILE682     -0.1245
    156  CA       -62.7830  -23.1200  -50.5970 C.3   682  ILE682      0.1561
    157  C        -62.5330  -21.8680  -51.4350 C.2   682  ILE682      0.2260
    158  O        -61.4950  -21.2050  -51.2790 O.2   682  ILE682     -0.2867
    159  CB       -62.4120  -24.4020  -51.3600 C.3   682  ILE682      0.0252
    160  CG1      -62.3400  -25.5750  -50.3820 C.3   682  ILE682      0.0019
    161  CG2      -61.0860  -24.2400  -52.0790 C.3   682  ILE682      0.0019
    162  CD1      -62.2710  -26.9180  -51.0490 C.3   682  ILE682      0.0001
@<TRIPOS>BOND
     1    50    49    1
     2    74    73    1
     3    74    75    1
     4    69    70    1
     5    70    73    1
     6    70    71    1
     7    72    71    2
     8    75    76    2
     9    75    77   am
    10    49    48    1
    11    71    78   am
    12    33    32    1
    13    48    47    1
    14    63    64    2
    15    63    62    1
    16    34    32    1
    17    56    57    1
    18    78    79    1
    19    42    43    1
    20    32    29    1
    21    80    81    2
    22    80    79    1
    23    43    44    1
    24    43    46    1
    25    29    28    1
    26    29    30    1
    27    47    46    1
    28    57    58    1
    29    57    60    1
    30    45    44    2
    31    59    58    2
    32    58    61   am
    33    31    30    2
    34    65    62    1
    35    65    66    1
    36    79    82    1
    37    62    61    1
    38    44    51   am
    39    30    35   am
    40    53    54    2
    41    53    52    1
    42    51    52    1
    43    82    84    1
    44    82    83    1
    45    66    68   ar
    46    66    67   ar
    47    35    36    1
    48    52    55    1
    49    38    37    2
    50     9    10    1
    51    15    14    2
    52    37    36    1
    53    12    11    2
    54    10    11    1
    55    10    13    1
    56    36    39    1
    57    11    17   am
    58    20    19    2
    59   137   136    1
    60    19    18    1
    61    14    13    1
    62    14    16   am
    63     8     6    1
    64    17    18    1
    65    39    41    1
    66    39    40    1
    67    92    90   am
    68     3     4    2
    69     3     2    1
    70     5     6    1
    71     5     2    1
    72    18    21    1
    73     6     7    1
    74   136   134   ar
    75   136   135   ar
    76     2     1    1
    77    21    22    1
    78   134   132   ar
    79   135   133   ar
    80    90    89    1
    81    90    91    2
    82    89    86    1
    83   132   131   ar
    84    22    23   ar
    85    22    24   ar
    86   133   131   ar
    87   125   124   ar
    88   125   123   ar
    89   124   122   ar
    90    88    87    2
    91    86    87    1
    92    86    85    1
    93    23    25   ar
    94   131   130    1
    95   154   152    1
    96    24    26   ar
    97   123   121   ar
    98   122   120   ar
    99   103   102    1
   100   103   104    1
   101   100    99   ar
   102   121   120   ar
   103   120   119    1
   104   105   104    2
   105    25    27   ar
   106    26    27   ar
   107   102    95   am
   108   152   153    1
   109   152   151    1
   110   130   127    1
   111    99   101   ar
   112    99    98    1
   113   119   116    1
   114   127   126    1
   115   127   128    1
   116    97    98    1
   117    97    94    1
   118   151   148    1
   119    95    96    2
   120    95    94    1
   121   126   117   am
   122   117   116    1
   123   117   118    2
   124    94    93    1
   125   116   115    1
   126   129   128    2
   127   148   149    1
   128   148   147    1
   129   150   149    2
   130   115   108   am
   131   147   140   am
   132   106   107    1
   133   161   159    1
   134   108   109    2
   135   108   107    1
   136   157   158    2
   137   157   156    1
   138   159   156    1
   139   159   160    1
   140   107   110    1
   141   162   160    1
   142   140   141    2
   143   140   139    1
   144   110   111    1
   145   156   155    1
   146   138   139    1
   147   145   144   ar
   148   142   139    1
   149   142   143    1
   150   144   143    1
   151   144   146   ar
   152   111   112    1
   153   112   113    1
   154   113   114    1
