@<TRIPOS>MOLECULE
tmp/2xsbA00.pdb
 150 144 0 0 0
SMALL
GASTEIGER

@<TRIPOS>ATOM
      1  N          8.1130    8.0300   29.1620 N.3     8  GLY8       -0.1210
      2  CA         8.4610    8.8360   30.3490 C.3     8  GLY8        0.1956
      3  C          7.7350   10.1740   30.5050 C.2     8  GLY8        0.2612
      4  O          8.3100   11.1730   30.9840 O.2     8  GLY8       -0.2717
      5  N          6.4590   10.1730   30.1190 N.am    9  PHE9       -0.1962
      6  CA         5.5910   11.3440   30.1280 C.3     9  PHE9        0.1771
      7  C          4.5490   11.2250   31.2630 C.2     9  PHE9        0.2619
      8  O          4.2710   10.1130   31.7700 O.2     9  PHE9       -0.2715
      9  CB         4.8540   11.4110   28.7930 C.3     9  PHE9        0.0574
     10  CG         4.2350   10.0960   28.3950 C.ar    9  PHE9       -0.0200
     11  CD1        4.7720    9.3510   27.3520 C.ar    9  PHE9       -0.0042
     12  CD2        3.1400    9.5720   29.1030 C.ar    9  PHE9       -0.0042
     13  CE1        4.2190    8.1280   27.0020 C.ar    9  PHE9       -0.0003
     14  CE2        2.5960    8.3460   28.7610 C.ar    9  PHE9       -0.0003
     15  CZ         3.1350    7.6270   27.7040 C.ar    9  PHE9       -0.0000
     16  N          3.9490   12.3650   31.6240 N.am   10  TYR10      -0.1974
     17  CA         2.9230   12.3900   32.6650 C.3    10  TYR10       0.1639
     18  C          1.5300   11.9910   32.1720 C.2    10  TYR10       0.2290
     19  O          0.6770   12.8460   31.8620 O.2    10  TYR10      -0.2864
     20  CB         2.9060   13.7410   33.4050 C.3    10  TYR10       0.0560
     21  CG         4.0950   13.9350   34.3180 C.ar   10  TYR10      -0.0198
     22  CD1        4.1470   13.3230   35.5840 C.ar   10  TYR10      -0.0009
     23  CD2        5.1800   14.7160   33.9140 C.ar   10  TYR10      -0.0009
     24  CE1        5.2500   13.5010   36.4300 C.ar   10  TYR10       0.0417
     25  CE2        6.2920   14.8960   34.7460 C.ar   10  TYR10       0.0417
     26  CZ         6.3190   14.2880   36.0000 C.ar   10  TYR10       0.1957
     27  OH         7.4240   14.4820   36.8010 O.3    10  TYR10      -0.2866
     28  N          4.9400    6.4170   34.9350 N.3    39  LYS39      -0.1245
     29  CA         4.4680    6.8540   36.2470 C.3    39  LYS39       0.1561
     30  C          3.4780    5.8710   36.8800 C.2    39  LYS39       0.2260
     31  O          3.3590    5.8450   38.0980 O.2    39  LYS39      -0.2867
     32  CB         3.8810    8.2770   36.1660 C.3    39  LYS39       0.0271
     33  CG         4.8280    9.3130   35.5160 C.3    39  LYS39       0.0035
     34  CD         6.0960    9.5390   36.3520 C.3    39  LYS39       0.0206
     35  CE         7.3680    9.5440   35.4830 C.3    39  LYS39       0.1093
     36  NZ         7.5890   10.8450   34.7830 N.3    39  LYS39      -0.1314
     37  N         15.6170   13.9090   38.2610 N.3   115  ASP115     -0.1239
     38  CA        14.9200   15.1320   37.8810 C.3   115  ASP115      0.1674
     39  C         14.1690   15.8570   39.0080 C.2   115  ASP115      0.2266
     40  O         14.0110   17.0810   38.9400 O.2   115  ASP115     -0.2867
     41  CB        14.0330   14.9210   36.6440 C.3   115  ASP115      0.1410
     42  CG        12.9780   13.8420   36.8340 C.2   115  ASP115      0.3668
     43  OD1       11.9450   13.9560   36.1450 O.co2 115  ASP115     -0.2456
     44  OD2       13.1650   12.8870   37.6350 O.co2 115  ASP115     -0.2456
     45  N         19.5770   10.8130   33.9970 N.3   154  CYS154     -0.1235
     46  CA        18.8190   12.0530   33.7930 C.3   154  CYS154      0.1677
     47  C         19.1260   13.0250   34.9000 C.2   154  CYS154      0.2270
     48  O         18.6970   12.8280   36.0360 O.2   154  CYS154     -0.2867
     49  CB        17.3030   11.8220   33.7150 C.3   154  CYS154      0.0956
     50  SG        16.4060   13.4100   33.5540 S.3   154  CYS154     -0.0801
     51  N         18.3030   19.6660   33.4160 N.3   158  TYR158     -0.1241
     52  CA        18.3240   18.9990   32.1030 C.3   158  TYR158      0.1605
     53  C         18.0600   19.8640   30.8660 C.2   158  TYR158      0.2264
     54  O         17.9730   19.3340   29.7550 O.2   158  TYR158     -0.2867
     55  CB        17.3620   17.7970   32.1010 C.3   158  TYR158      0.0534
     56  CG        15.9480   18.0920   32.5780 C.ar  158  TYR158     -0.0201
     57  CD1       14.9670   18.5670   31.7010 C.ar  158  TYR158     -0.0009
     58  CD2       15.5870   17.8700   33.9160 C.ar  158  TYR158     -0.0009
     59  CE1       13.6630   18.8340   32.1440 C.ar  158  TYR158      0.0417
     60  CE2       14.2880   18.1160   34.3670 C.ar  158  TYR158      0.0417
     61  CZ        13.3340   18.5990   33.4750 C.ar  158  TYR158      0.1957
     62  OH        12.0650   18.8380   33.9430 O.3   158  TYR158     -0.2866
     63  N         21.2740   12.7900   29.8220 N.3   187  PHE187     -0.1241
     64  CA        20.1780   13.3910   29.0540 C.3   187  PHE187      0.1605
     65  C         20.2260   14.9000   29.0130 C.2   187  PHE187      0.2264
     66  O         20.7220   15.5370   29.9420 O.2   187  PHE187     -0.2867
     67  CB        18.8300   12.9850   29.6200 C.3   187  PHE187      0.0534
     68  CG        18.4000   11.6230   29.2270 C.ar  187  PHE187     -0.0203
     69  CD1       18.2890   11.2720   27.8820 C.ar  187  PHE187     -0.0042
     70  CD2       18.0730   10.6870   30.1940 C.ar  187  PHE187     -0.0042
     71  CE1       17.8470   10.0200   27.5080 C.ar  187  PHE187     -0.0003
     72  CE2       17.6290    9.4290   29.8160 C.ar  187  PHE187     -0.0003
     73  CZ        17.5150    9.1010   28.4730 C.ar  187  PHE187     -0.0000
     74  N         17.5030   18.1520   27.1960 N.3   189  THR189     -0.1218
     75  CA        16.3000   18.4210   26.4080 C.3   189  THR189      0.1862
     76  C         16.4800   19.6610   25.5460 C.2   189  THR189      0.2287
     77  O         15.5690   20.0590   24.8320 O.2   189  THR189     -0.2866
     78  CB        15.0390   18.6010   27.2860 C.3   189  THR189      0.1770
     79  OG1       15.1940   19.7900   28.0720 O.3   189  THR189     -0.2211
     80  CG2       14.8010   17.3780   28.2080 C.3   189  THR189      0.0375
     81  N         12.7550   22.7950   28.3690 N.3   193  ILE193     -0.1231
     82  CA        12.1610   21.4860   28.5340 C.3   193  ILE193      0.1692
     83  C         11.6230   21.0130   27.1710 C.2   193  ILE193      0.2591
     84  O         11.8940   19.9040   26.7690 O.2   193  ILE193     -0.2718
     85  CB        11.0680   21.4850   29.6210 C.3   193  ILE193      0.0266
     86  CG1       11.6730   21.8710   30.9860 C.3   193  ILE193      0.0019
     87  CG2       10.3860   20.0980   29.7140 C.3   193  ILE193      0.0020
     88  CD1       10.6090   22.0800   32.0740 C.3   193  ILE193      0.0001
     89  N         10.8870   21.8920   26.4930 N.am  194  VAL194     -0.1980
     90  CA        10.3240   21.7140   25.1590 C.3   194  VAL194      0.1595
     91  C         11.0080   22.7470   24.2580 C.2   194  VAL194      0.2287
     92  O         10.6150   23.9110   24.2130 O.2   194  VAL194     -0.2864
     93  CB         8.8020   22.0460   25.1430 C.3   194  VAL194      0.0276
     94  CG1        8.2140   21.8690   23.7310 C.3   194  VAL194      0.0022
     95  CG2        8.0110   21.2210   26.1960 C.3   194  VAL194      0.0022
     96  N         17.0880   14.0910   25.0020 N.3   217  TRP217     -0.1241
     97  CA        15.7760   13.6720   25.4520 C.3   217  TRP217      0.1605
     98  C         14.8360   14.7000   24.8380 C.2   217  TRP217      0.2264
     99  O         14.6590   15.7830   25.3890 O.2   217  TRP217     -0.2867
    100  CB        15.7130   13.6940   26.9880 C.3   217  TRP217      0.0550
    101  CG        14.3330   13.4830   27.6200 C.ar  217  TRP217      0.0003
    102  CD1       13.1610   14.0910   27.2640 C.ar  217  TRP217      0.0946
    103  CD2       14.0140   12.6610   28.7630 C.ar  217  TRP217      0.0152
    104  NE1       12.1300   13.6680   28.0750 N.ar  217  TRP217     -0.2442
    105  CE2       12.6200   12.7920   29.0010 C.ar  217  TRP217      0.0810
    106  CE3       14.7650   11.7990   29.5890 C.ar  217  TRP217      0.0012
    107  CZ2       11.9590   12.1090   30.0410 C.ar  217  TRP217      0.0191
    108  CZ3       14.1100   11.1220   30.6210 C.ar  217  TRP217      0.0001
    109  CH2       12.7190   11.2870   30.8430 C.ar  217  TRP217      0.0015
    110  N         11.5180   16.5210   24.0050 N.3   219  ASN219     -0.1240
    111  CA        10.1050   16.6790   24.4060 C.3   219  ASN219      0.1653
    112  C          9.2570   17.4650   23.3930 C.2   219  ASN219      0.2266
    113  O          8.1460   17.8780   23.7370 O.2   219  ASN219     -0.2867
    114  CB         9.9820   17.3930   25.7710 C.3   219  ASN219      0.1155
    115  CG        10.4770   16.5520   26.9440 C.2   219  ASN219      0.2627
    116  OD1       10.1640   15.3580   27.0540 O.2   219  ASN219     -0.2716
    117  ND2       11.2610   17.1790   27.8320 N.am  219  ASN219     -0.0877
    118  N          5.8800   15.7880   23.0330 N.3   222  ALA222     -0.1245
    119  CA         5.1600   15.5930   24.3050 C.3   222  ALA222      0.1562
    120  C          3.9340   16.5090   24.4110 C.2   222  ALA222      0.2260
    121  O          3.9480   17.6250   23.8980 O.2   222  ALA222     -0.2867
    122  CB         6.0880   15.8400   25.4990 C.3   222  ALA222      0.0290
    123  N          1.8160   16.0530   27.5950 N.3   224  ASP224     -0.1225
    124  CA         1.3380   15.8910   28.9830 C.3   224  ASP224      0.1805
    125  C          1.0430   17.2550   29.6610 C.2   224  ASP224      0.2597
    126  O         -0.0120   17.4330   30.2800 O.2   224  ASP224     -0.2718
    127  CB         2.3030   15.0330   29.8320 C.3   224  ASP224      0.1424
    128  CG         3.7650   15.4610   29.7040 C.2   224  ASP224      0.3668
    129  OD1        4.6020   14.8320   30.3910 O.co2 224  ASP224     -0.2456
    130  OD2        4.0780   16.4040   28.9300 O.co2 224  ASP224     -0.2456
    131  N          1.9820   18.1880   29.5110 N.am  225  TYR225     -0.1976
    132  CA         1.8850   19.5620   30.0190 C.3   225  TYR225      0.1639
    133  C          0.7640   20.4030   29.3780 C.2   225  TYR225      0.2290
    134  O          0.4650   21.5020   29.8660 O.2   225  TYR225     -0.2864
    135  CB         3.2300   20.2840   29.8290 C.3   225  TYR225      0.0560
    136  CG         3.5780   20.5810   28.3670 C.ar  225  TYR225     -0.0198
    137  CD1        4.2010   19.6130   27.5520 C.ar  225  TYR225     -0.0009
    138  CD2        3.2980   21.8370   27.8000 C.ar  225  TYR225     -0.0009
    139  CE1        4.5160   19.8960   26.1930 C.ar  225  TYR225      0.0417
    140  CE2        3.5980   22.1190   26.4680 C.ar  225  TYR225      0.0417
    141  CZ         4.2090   21.1520   25.6710 C.ar  225  TYR225      0.1957
    142  OH         4.4990   21.4640   24.3630 O.3   225  TYR225     -0.2866
    143  N         10.4440   11.7580   23.7270 N.3   252  ASN252     -0.1240
    144  CA         9.3720   11.6500   24.7000 C.3   252  ASN252      0.1653
    145  C          8.0890   12.0690   24.0050 C.2   252  ASN252      0.2266
    146  O          7.8700   13.2590   23.7700 O.2   252  ASN252     -0.2867
    147  CB         9.6670   12.5330   25.9070 C.3   252  ASN252      0.1155
    148  CG         8.6980   12.3060   27.0570 C.2   252  ASN252      0.2627
    149  OD1        8.2500   11.1960   27.3040 O.2   252  ASN252     -0.2716
    150  ND2        8.3980   13.3590   27.7750 N.am  252  ASN252     -0.0877
@<TRIPOS>BOND
     1   118   119    1
     2   112   113    2
     3   112   111    1
     4   143   144    1
     5    94    93    1
     6   146   145    2
     7   121   120    2
     8   145   144    1
     9   110   111    1
    10    92    91    2
    11    91    90    1
    12   119   120    1
    13   119   122    1
    14   142   141    1
    15   111   114    1
    16   144   147    1
    17    77    76    2
    18    98    99    2
    19    98    97    1
    20    96    97    1
    21    93    90    1
    22    93    95    1
    23    90    89    1
    24    97   100    1
    25    76    75    1
    26   141   139   ar
    27   141   140   ar
    28   114   115    1
    29   147   148    1
    30   139   137   ar
    31    75    74    1
    32    75    78    1
    33   140   138   ar
    34    89    83   am
    35    84    83    2
    36   115   116    2
    37   115   117   am
    38   100   101    1
    39    13    11   ar
    40    13    15   ar
    41   148   149    2
    42   148   150   am
    43    83    82    1
    44   102   101   ar
    45   102   104   ar
    46    78    79    1
    47    78    80    1
    48    11    10   ar
    49    71    69   ar
    50    71    73   ar
    51   137   136   ar
    52   123   124    1
    53   101   103   ar
    54    15    14   ar
    55   138   136   ar
    56    69    68   ar
    57   104   105   ar
    58   136   135    1
    59    81    82    1
    60    10     9    1
    61    10    12   ar
    62    73    72   ar
    63    82    85    1
    64    14    12   ar
    65   103   105   ar
    66   103   106   ar
    67     9     6    1
    68   130   128   ar
    69   124   125    1
    70   124   127    1
    71   105   107   ar
    72    65    64    1
    73    65    66    2
    74    64    67    1
    75    64    63    1
    76     1     2    1
    77    68    67    1
    78    68    70   ar
    79   133   134    2
    80   133   132    1
    81   131   125   am
    82   131   132    1
    83   106   108   ar
    84    85    87    1
    85    85    86    1
    86   125   126    2
    87   128   127    1
    88   128   129   ar
    89    54    53    2
    90    72    70   ar
    91   135   132    1
    92   107   109   ar
    93     5     6    1
    94     5     3   am
    95     6     7    1
    96     2     3    1
    97     3     4    2
    98   108   109   ar
    99    53    52    1
   100    86    88    1
   101     7    16   am
   102     7     8    2
   103    16    17    1
   104    57    59   ar
   105    57    56   ar
   106    19    18    2
   107    55    52    1
   108    55    56    1
   109    52    51    1
   110    59    61   ar
   111    18    17    1
   112    56    58   ar
   113    17    20    1
   114    20    21    1
   115    61    62    1
   116    61    60   ar
   117    50    49    1
   118    49    46    1
   119    46    45    1
   120    46    47    1
   121    23    21   ar
   122    23    25   ar
   123    58    60   ar
   124    21    22   ar
   125    25    26   ar
   126    36    35    1
   127    47    48    2
   128    28    29    1
   129    35    34    1
   130    33    32    1
   131    33    34    1
   132    22    24   ar
   133    26    24   ar
   134    26    27    1
   135    43    42   ar
   136    32    29    1
   137    29    30    1
   138    41    42    1
   139    41    38    1
   140    42    44   ar
   141    30    31    2
   142    38    37    1
   143    38    39    1
   144    40    39    2
