@<TRIPOS>MOLECULE
tmp/2xsgA00.pdb
 115 113 0 0 0
SMALL
GASTEIGER

@<TRIPOS>ATOM
      1  N         47.0170   18.0050   74.8360 N.3    64  VAL64      -0.1231
      2  CA        45.7430   18.7190   74.6870 C.3    64  VAL64       0.1692
      3  C         44.6980   17.8470   73.9780 C.2    64  VAL64       0.2593
      4  O         45.0430   16.8010   73.4180 O.2    64  VAL64      -0.2718
      5  CB        45.9160   20.0820   73.9970 C.3    64  VAL64       0.0266
      6  CG1       46.8650   20.9570   74.8150 C.3    64  VAL64       0.0020
      7  CG2       46.4260   19.9150   72.5800 C.3    64  VAL64       0.0020
      8  N         43.4370   18.2790   74.0140 N.am   65  GLY65      -0.1942
      9  CA        42.3190   17.5060   73.4470 C.3    65  GLY65       0.2014
     10  C         41.9950   17.9360   72.0200 C.2    65  GLY65       0.2639
     11  O         42.8880   18.3960   71.2960 O.2    65  GLY65      -0.2714
     12  N         40.7220   17.8120   71.6260 N.am   66  GLY66      -0.1954
     13  CA        40.3100   18.0760   70.2380 C.3    66  GLY66       0.1869
     14  C         41.0750   17.1610   69.2840 C.2    66  GLY66       0.2309
     15  O         41.1630   15.9360   69.5100 O.2    66  GLY66      -0.2863
     16  N         43.8200   26.7880   67.1940 N.3   189  PHE189     -0.1227
     17  CA        43.4130   25.7390   68.1200 C.3   189  PHE189      0.1736
     18  C         42.5240   26.3020   69.2150 C.2   189  PHE189      0.2595
     19  O         42.8460   27.3190   69.8400 O.2   189  PHE189     -0.2718
     20  CB        44.6140   25.0170   68.7320 C.3   189  PHE189      0.0547
     21  CG        44.2320   23.8990   69.6640 C.ar  189  PHE189     -0.0202
     22  CD1       43.6900   22.7030   69.1640 C.ar  189  PHE189     -0.0042
     23  CD2       44.3730   24.0480   71.0450 C.ar  189  PHE189     -0.0042
     24  CE1       43.3180   21.6550   70.0200 C.ar  189  PHE189     -0.0003
     25  CE2       44.0100   23.0060   71.9180 C.ar  189  PHE189     -0.0003
     26  CZ        43.4880   21.8030   71.4080 C.ar  189  PHE189     -0.0000
     27  N         41.3930   25.6300   69.4090 N.am  190  TYR190     -0.1976
     28  CA        40.4080   25.9300   70.4600 C.3   190  TYR190      0.1639
     29  C         39.7770   27.3310   70.4280 C.2   190  TYR190      0.2290
     30  O         38.6780   27.4920   69.8730 O.2   190  TYR190     -0.2864
     31  CB        40.9270   25.5320   71.8600 C.3   190  TYR190      0.0560
     32  CG        39.8150   25.3960   72.8610 C.ar  190  TYR190     -0.0198
     33  CD1       38.8140   24.4010   72.7040 C.ar  190  TYR190     -0.0009
     34  CD2       39.7240   26.2730   73.9500 C.ar  190  TYR190     -0.0009
     35  CE1       37.7710   24.2910   73.6200 C.ar  190  TYR190      0.0417
     36  CE2       38.6850   26.1660   74.8790 C.ar  190  TYR190      0.0417
     37  CZ        37.7160   25.1790   74.7040 C.ar  190  TYR190      0.1957
     38  OH        36.7000   25.0820   75.6130 O.3   190  TYR190     -0.2866
     39  N         42.4990   26.7110   82.4390 N.3   348  TRP348     -0.1227
     40  CA        41.2780   26.0500   82.9470 C.3   348  TRP348      0.1737
     41  C         41.5880   24.6120   83.4110 C.2   348  TRP348      0.2595
     42  O         41.0980   24.1700   84.4530 O.2   348  TRP348     -0.2718
     43  CB        40.2050   26.0260   81.8570 C.3   348  TRP348      0.0564
     44  CG        38.8160   25.6180   82.2830 C.ar  348  TRP348      0.0003
     45  CD1       37.8130   26.4510   82.7100 C.ar  348  TRP348      0.0946
     46  CD2       38.2580   24.2940   82.2740 C.ar  348  TRP348      0.0152
     47  NE1       36.6780   25.7200   82.9950 N.ar  348  TRP348     -0.2442
     48  CE2       36.9170   24.4000   82.7200 C.ar  348  TRP348      0.0810
     49  CE3       38.7570   23.0300   81.9360 C.ar  348  TRP348      0.0012
     50  CZ2       36.0720   23.2840   82.8490 C.ar  348  TRP348      0.0191
     51  CZ3       37.9180   21.9160   82.0660 C.ar  348  TRP348      0.0001
     52  CH2       36.5890   22.0540   82.5210 C.ar  348  TRP348      0.0015
     53  N         42.4280   23.9120   82.6420 N.am  349  ASP349     -0.1974
     54  CA        42.8710   22.5560   82.9940 C.3   349  ASP349      0.1709
     55  C         44.0600   22.5190   83.9300 C.2   349  ASP349      0.2293
     56  O         44.1450   21.6460   84.7940 O.2   349  ASP349     -0.2864
     57  CB        43.2680   21.7350   81.7420 C.3   349  ASP349      0.1436
     58  CG        42.2080   21.7290   80.6800 C.2   349  ASP349      0.3671
     59  OD1       42.4620   22.2470   79.5620 O.co2 349  ASP349     -0.2456
     60  OD2       41.1240   21.1930   80.9530 O.co2 349  ASP349     -0.2456
     61  N         45.7070   27.7460   74.1470 N.3   398  VAL398     -0.1231
     62  CA        44.4230   27.0830   74.3890 C.3   398  VAL398      0.1692
     63  C         43.4030   28.0150   75.0380 C.2   398  VAL398      0.2591
     64  O         42.4990   28.4760   74.3730 O.2   398  VAL398     -0.2718
     65  CB        44.5800   25.8010   75.2180 C.3   398  VAL398      0.0266
     66  CG1       43.2580   25.0150   75.2640 C.3   398  VAL398      0.0020
     67  CG2       45.7130   24.9310   74.6540 C.3   398  VAL398      0.0020
     68  N         43.5540   28.2740   76.3350 N.am  399  ARG399     -0.1980
     69  CA        42.5020   28.9410   77.1210 C.3   399  ARG399      0.1597
     70  C         43.0970   29.5230   78.4130 C.2   399  ARG399      0.2287
     71  O         44.1860   29.1160   78.8350 O.2   399  ARG399     -0.2864
     72  CB        41.3350   27.9790   77.4120 C.3   399  ARG399      0.0334
     73  CG        41.6960   26.7780   78.2950 C.3   399  ARG399      0.0492
     74  CD        40.5690   25.7530   78.3870 C.3   399  ARG399      0.2205
     75  NE        39.2730   26.3090   78.7590 N.pl3 399  ARG399     -0.0865
     76  CZ        38.1490   25.6070   78.8700 C.cat 399  ARG399      0.5346
     77  NH1       38.1570   24.3050   78.6810 N.pl3 399  ARG399      0.1354
     78  NH2       37.0210   26.2100   79.2160 N.pl3 399  ARG399      0.1354
     79  N         30.7200   20.7980   83.3900 N.3   529  TYR529     -0.1227
     80  CA        31.6820   20.4110   82.3720 C.3   529  TYR529      0.1736
     81  C         32.6900   19.3650   82.8440 C.2   529  TYR529      0.2595
     82  O         33.4740   19.6260   83.7670 O.2   529  TYR529     -0.2718
     83  CB        32.3880   21.6520   81.8150 C.3   529  TYR529      0.0548
     84  CG        31.5680   22.3300   80.7380 C.ar  529  TYR529     -0.0200
     85  CD1       31.8430   22.1030   79.3810 C.ar  529  TYR529     -0.0009
     86  CD2       30.4970   23.1820   81.0690 C.ar  529  TYR529     -0.0009
     87  CE1       31.0740   22.7150   78.3800 C.ar  529  TYR529      0.0417
     88  CE2       29.7320   23.7890   80.0870 C.ar  529  TYR529      0.0417
     89  CZ        30.0200   23.5470   78.7430 C.ar  529  TYR529      0.1957
     90  OH        29.2620   24.1410   77.7550 O.3   529  TYR529     -0.2866
     91  N         32.6600   18.1960   82.1940 N.am  530  GLN530     -0.1979
     92  CA        33.6270   17.1230   82.4100 C.3   530  GLN530      0.1601
     93  C         33.7060   16.6350   83.8640 C.2   530  GLN530      0.2287
     94  O         34.7830   16.2590   84.3440 O.2   530  GLN530     -0.2864
     95  CB        35.0120   17.5600   81.9590 C.3   530  GLN530      0.0394
     96  CG        35.3150   17.4610   80.4720 C.3   530  GLN530      0.0908
     97  CD        36.8020   17.7560   80.2330 C.2   530  GLN530      0.2608
     98  OE1       37.2030   18.9210   80.1680 O.2   530  GLN530     -0.2717
     99  NE2       37.6320   16.6930   80.1320 N.am  530  GLN530     -0.0878
    100  N         43.8950   13.0200   79.2130 N.3   654  ASP654     -0.1239
    101  CA        44.8950   13.8590   78.5550 C.3   654  ASP654      0.1674
    102  C         45.7970   14.4450   79.6220 C.2   654  ASP654      0.2266
    103  O         45.3340   14.7330   80.7170 O.2   654  ASP654     -0.2867
    104  CB        44.2080   14.9810   77.7750 C.3   654  ASP654      0.1410
    105  CG        43.3970   14.4630   76.6070 C.2   654  ASP654      0.3668
    106  OD1       43.7580   13.3900   76.0720 O.co2 654  ASP654     -0.2456
    107  OD2       42.3870   15.1090   76.2350 O.co2 654  ASP654     -0.2456
    108  N         47.1650   17.3180   79.5000 N.3   656  ASP656     -0.1239
    109  CA        46.8430   18.7610   79.5220 C.3   656  ASP656      0.1674
    110  C         48.0500   19.6360   79.8770 C.2   656  ASP656      0.2266
    111  O         48.1930   20.1050   81.0170 O.2   656  ASP656     -0.2867
    112  CB        45.6620   19.0680   80.4580 C.3   656  ASP656      0.1410
    113  CG        44.3800   18.3290   80.0550 C.2   656  ASP656      0.3668
    114  OD1       43.9500   18.4230   78.8850 O.co2 656  ASP656     -0.2456
    115  OD2       43.7870   17.6680   80.9300 O.co2 656  ASP656     -0.2456
@<TRIPOS>BOND
     1    16    17    1
     2    17    20    1
     3    17    18    1
     4    20    21    1
     5    22    21   ar
     6    22    24   ar
     7    18    27   am
     8    18    19    2
     9    14    15    2
    10    14    13    1
    11    27    28    1
    12    21    23   ar
    13    30    29    2
    14    24    26   ar
    15    13    12    1
    16    29    28    1
    17    28    31    1
    18    23    25   ar
    19    11    10    2
    20    26    25   ar
    21    12    10   am
    22    31    32    1
    23    10     9    1
    24     7     5    1
    25    33    32   ar
    26    33    35   ar
    27    32    34   ar
    28     4     3    2
    29     9     8    1
    30    35    37   ar
    31    34    36   ar
    32     3     8   am
    33     3     2    1
    34     5     2    1
    35     5     6    1
    36    61    62    1
    37    64    63    2
    38    62    63    1
    39    62    65    1
    40    67    65    1
    41     2     1    1
    42    37    36   ar
    43    37    38    1
    44    63    68   am
    45    65    66    1
    46   106   105   ar
    47   107   105   ar
    48    68    69    1
    49   105   104    1
    50    69    72    1
    51    69    70    1
    52    72    73    1
    53    90    89    1
    54   104   101    1
    55    73    74    1
    56    87    89   ar
    57    87    85   ar
    58    74    75    1
    59    70    71    2
    60   101   100    1
    61   101   102    1
    62    77    76    1
    63    89    88   ar
    64    75    76    2
    65    76    78    1
    66   114   113   ar
    67    85    84   ar
    68   108   109    1
    69   109   110    1
    70   109   112    1
    71    59    58   ar
    72   102   103    2
    73   110   111    2
    74   113   112    1
    75   113   115   ar
    76    88    86   ar
    77    99    97   am
    78    98    97    2
    79    97    96    1
    80    96    95    1
    81    58    60   ar
    82    58    57    1
    83    84    86   ar
    84    84    83    1
    85    57    54    1
    86    83    80    1
    87    43    44    1
    88    43    40    1
    89    49    51   ar
    90    49    46   ar
    91    95    92    1
    92    51    52   ar
    93    91    92    1
    94    91    81   am
    95    46    44   ar
    96    46    48   ar
    97    44    45   ar
    98    80    81    1
    99    80    79    1
   100    92    93    1
   101    39    40    1
   102    52    50   ar
   103    53    54    1
   104    53    41   am
   105    45    47   ar
   106    48    50   ar
   107    48    47   ar
   108    81    82    2
   109    40    41    1
   110    54    55    1
   111    41    42    2
   112    93    94    2
   113    55    56    2
