@<TRIPOS>MOLECULE
tmp/2xshA00.pdb
 155 149 0 0 0
SMALL
GASTEIGER

@<TRIPOS>ATOM
      1  N         20.6720   -1.1820  -10.7720 N.3   200  GLN200     -0.1231
      2  CA        20.8420    0.2240  -10.4540 C.3   200  GLN200      0.1698
      3  C         21.8110    0.4650   -9.3010 C.2   200  GLN200      0.2592
      4  O         22.6080    1.3770   -9.3510 O.2   200  GLN200     -0.2718
      5  CB        19.5220    0.9340  -10.1910 C.3   200  GLN200      0.0381
      6  CG        19.7440    2.4270  -10.1280 C.3   200  GLN200      0.0905
      7  CD        18.5560    3.1920   -9.6640 C.2   200  GLN200      0.2608
      8  OE1       18.4830    3.5660   -8.5000 O.2   200  GLN200     -0.2717
      9  NE2       17.6130    3.4480  -10.5680 N.am  200  GLN200     -0.0878
     10  N         21.7240   -0.3640   -8.2750 N.am  201  PHE201     -0.1976
     11  CA        22.5530   -0.2260   -7.1010 C.3   201  PHE201      0.1639
     12  C         23.8790   -0.9690   -7.2700 C.2   201  PHE201      0.2290
     13  O         24.8010   -0.7840   -6.4700 O.2   201  PHE201     -0.2864
     14  CB        21.7950   -0.7540   -5.8840 C.3   201  PHE201      0.0560
     15  CG        20.8080    0.2260   -5.3050 C.ar  201  PHE201     -0.0200
     16  CD1       19.6300    0.5490   -5.9790 C.ar  201  PHE201     -0.0042
     17  CD2       21.0440    0.8130   -4.0650 C.ar  201  PHE201     -0.0042
     18  CE1       18.7180    1.4750   -5.4350 C.ar  201  PHE201     -0.0003
     19  CE2       20.1290    1.7230   -3.5130 C.ar  201  PHE201     -0.0003
     20  CZ        18.9590    2.0530   -4.2030 C.ar  201  PHE201     -0.0000
     21  N         24.8910    1.6870  -11.4230 N.3   204  ASP204     -0.1225
     22  CA        24.2600    2.8360  -12.0600 C.3   204  ASP204      0.1805
     23  C         24.3930    4.1750  -11.3100 C.2   204  ASP204      0.2597
     24  O         23.4020    4.7130  -10.8230 O.2   204  ASP204     -0.2718
     25  CB        22.7870    2.5020  -12.3930 C.3   204  ASP204      0.1424
     26  CG        22.1790    3.4170  -13.4570 C.2   204  ASP204      0.3668
     27  OD1       22.8850    4.3020  -13.9990 O.co2 204  ASP204     -0.2456
     28  OD2       20.9650    3.2440  -13.7580 O.co2 204  ASP204     -0.2456
     29  N         25.6030    4.7250  -11.2340 N.am  205  MET205     -0.1979
     30  CA        25.7650    6.0990  -10.7300 C.3   205  MET205      0.1605
     31  C         25.3320    7.0930  -11.8090 C.2   205  MET205      0.2287
     32  O         24.9260    8.2200  -11.5080 O.2   205  MET205     -0.2864
     33  CB        27.2020    6.3890  -10.3100 C.3   205  MET205      0.0413
     34  CG        27.3360    7.7110   -9.5430 C.3   205  MET205      0.0598
     35  SD        26.6640    7.6570   -7.8620 S.3   205  MET205     -0.1393
     36  CE        28.1580    7.1180   -7.0060 C.3   205  MET205      0.0692
     37  N         22.6880    7.2800  -13.6290 N.3   207  HIS207     -0.1226
     38  CA        21.3240    7.8070  -13.4990 C.3   207  HIS207      0.1752
     39  C         21.2200    8.9670  -12.4970 C.2   207  HIS207      0.2595
     40  O         20.3580    9.8480  -12.6430 O.2   207  HIS207     -0.2718
     41  CB        20.3410    6.6940  -13.1390 C.3   207  HIS207      0.0759
     42  CG        20.1470    6.5000  -11.6640 C.ar  207  HIS207      0.0818
     43  ND1       21.0600    5.8410  -10.8690 N.ar  207  HIS207     -0.2268
     44  CD2       19.1320    6.8620  -10.8450 C.ar  207  HIS207      0.1154
     45  CE1       20.6240    5.8130   -9.6240 C.ar  207  HIS207      0.1986
     46  NE2       19.4540    6.4250   -9.5840 N.ar  207  HIS207     -0.2212
     47  N         22.0920    8.9620  -11.4860 N.am  208  ALA208     -0.1980
     48  CA        22.1510   10.0380  -10.4870 C.3   208  ALA208      0.1597
     49  C         23.0290   11.2230  -10.9500 C.2   208  ALA208      0.2287
     50  O         22.9390   12.3330  -10.4130 O.2   208  ALA208     -0.2864
     51  CB        22.6460    9.4910   -9.1660 C.3   208  ALA208      0.0319
     52  N         17.5230   12.1920  -10.7450 N.3   213  HIS213     -0.1241
     53  CA        17.4910   12.7570   -9.3870 C.3   213  HIS213      0.1621
     54  C         17.8330   14.2290   -9.3260 C.2   213  HIS213      0.2264
     55  O         18.2710   14.7270   -8.2780 O.2   213  HIS213     -0.2867
     56  CB        18.4330   11.9720   -8.4650 C.3   213  HIS213      0.0745
     57  CG        18.0130   10.5500   -8.2480 C.ar  213  HIS213      0.0817
     58  ND1       16.7620   10.2100   -7.7740 N.ar  213  HIS213     -0.2268
     59  CD2       18.6850    9.3840   -8.4110 C.ar  213  HIS213      0.1154
     60  CE1       16.6730    8.8970   -7.6720 C.ar  213  HIS213      0.1986
     61  NE2       17.8290    8.3690   -8.0470 N.ar  213  HIS213     -0.2212
     62  N         31.7000    8.1930   -5.8080 N.3   251  TYR251     -0.1241
     63  CA        32.3170    9.4580   -6.1500 C.3   251  TYR251      0.1605
     64  C         33.5930    9.6630   -5.3210 C.2   251  TYR251      0.2264
     65  O         33.7090    9.1480   -4.2020 O.2   251  TYR251     -0.2867
     66  CB        31.3290   10.5980   -5.9190 C.3   251  TYR251      0.0534
     67  CG        30.2530   10.7570   -6.9820 C.ar  251  TYR251     -0.0201
     68  CD1       28.9200   11.0040   -6.6200 C.ar  251  TYR251     -0.0009
     69  CD2       30.5650   10.6910   -8.3380 C.ar  251  TYR251     -0.0009
     70  CE1       27.9230   11.1780   -7.5880 C.ar  251  TYR251      0.0417
     71  CE2       29.5810   10.8640   -9.3130 C.ar  251  TYR251      0.0417
     72  CZ        28.2690   11.1120   -8.9300 C.ar  251  TYR251      0.1957
     73  OH        27.3110   11.2790   -9.8910 O.3   251  TYR251     -0.2866
     74  N         27.3510   15.8510   -3.8180 N.3   257  SER257     -0.1217
     75  CA        26.1250   15.0590   -3.7980 C.3   257  SER257      0.1889
     76  C         25.8490   14.4370   -2.4160 C.2   257  SER257      0.2288
     77  O         24.6890   14.3520   -1.9920 O.2   257  SER257     -0.2866
     78  CB        26.1100   14.0240   -4.9340 C.3   257  SER257      0.2089
     79  OG        26.5290   12.7420   -4.5000 O.3   257  SER257     -0.2183
     80  N         22.5760   15.0760   -0.0990 N.3   261  VAL261     -0.1245
     81  CA        21.7910   13.9410    0.3850 C.3   261  VAL261      0.1561
     82  C         21.7910   13.8940    1.9250 C.2   261  VAL261      0.2260
     83  O         20.7200   13.8550    2.5490 O.2   261  VAL261     -0.2867
     84  CB        22.2300   12.5560   -0.2610 C.3   261  VAL261      0.0252
     85  CG1       21.2590   11.4920    0.0730 C.3   261  VAL261      0.0019
     86  CG2       22.2780   12.6250   -1.7780 C.3   261  VAL261      0.0019
     87  N         30.0650    9.0400   -1.3480 N.3   295  GLY295     -0.1210
     88  CA        28.8070    8.6440   -1.9720 C.3   295  GLY295      0.1956
     89  C         29.0440    7.3850   -2.7710 C.2   295  GLY295      0.2612
     90  O         29.8020    7.3940   -3.7370 O.2   295  GLY295     -0.2717
     91  N         28.4060    6.2960   -2.3630 N.am  296  GLN296     -0.1965
     92  CA        28.7300    4.9670   -2.8810 C.3   296  GLN296      0.1733
     93  C         27.4610    4.1510   -2.9800 C.2   296  GLN296      0.2616
     94  O         26.5620    4.3080   -2.1550 O.2   296  GLN296     -0.2715
     95  CB        29.7060    4.2550   -1.9450 C.3   296  GLN296      0.0408
     96  CG        30.1670    2.8790   -2.4460 C.3   296  GLN296      0.0908
     97  CD        31.1160    2.1730   -1.5010 C.2   296  GLN296      0.2608
     98  OE1       31.5990    2.7600   -0.5360 O.2   296  GLN296     -0.2717
     99  NE2       31.3870    0.9060   -1.7720 N.am  296  GLN296     -0.0878
    100  N         27.3880    3.2920   -3.9910 N.am  297  HIS297     -0.1973
    101  CA        26.2710    2.3630   -4.1350 C.3   297  HIS297      0.1656
    102  C         26.8400    0.9690   -4.3120 C.2   297  HIS297      0.2291
    103  O         27.8890    0.8010   -4.9450 O.2   297  HIS297     -0.2864
    104  CB        25.3890    2.7350   -5.3410 C.3   297  HIS297      0.0771
    105  CG        26.1110    2.6820   -6.6550 C.ar  297  HIS297      0.0820
    106  ND1       26.2590    1.5170   -7.3760 N.ar  297  HIS297     -0.2267
    107  CD2       26.7420    3.6470   -7.3670 C.ar  297  HIS297      0.1154
    108  CE1       26.9550    1.7630   -8.4710 C.ar  297  HIS297      0.1986
    109  NE2       27.2530    3.0500   -8.4930 N.ar  297  HIS297     -0.2212
    110  N         23.8990    1.6810    0.3620 N.3   307  LEU307     -0.1245
    111  CA        24.5740    2.9140   -0.0320 C.3   307  LEU307      0.1561
    112  C         25.5380    3.3480    1.0680 C.2   307  LEU307      0.2260
    113  O         25.2050    4.2060    1.8670 O.2   307  LEU307     -0.2867
    114  CB        23.5530    4.0190   -0.3290 C.3   307  LEU307      0.0270
    115  CG        22.4220    3.7190   -1.3060 C.3   307  LEU307      0.0019
    116  CD1       21.4050    4.8580   -1.3710 C.3   307  LEU307      0.0001
    117  CD2       22.9920    3.4140   -2.6830 C.3   307  LEU307      0.0001
    118  N         25.4100    6.7160    3.0640 N.3   310  MET310     -0.1245
    119  CA        24.0720    7.0510    3.5330 C.3   310  MET310      0.1570
    120  C         23.4870    5.9480    4.4020 C.2   310  MET310      0.2261
    121  O         22.4630    6.1480    5.0630 O.2   310  MET310     -0.2867
    122  CB        23.1500    7.4570    2.3880 C.3   310  MET310      0.0387
    123  CG        23.5910    7.0030    1.0260 C.3   310  MET310      0.0595
    124  SD        23.7000    8.2800   -0.2550 S.3   310  MET310     -0.1393
    125  CE        24.8350    9.4030    0.5290 C.3   310  MET310      0.0692
    126  N         15.0430    8.3690    1.1180 N.3   352  PHE352     -0.1241
    127  CA        15.0480    6.9810    0.6820 C.3   352  PHE352      0.1605
    128  C         13.8390    6.0910    1.0200 C.2   352  PHE352      0.2264
    129  O         13.8450    4.9010    0.7150 O.2   352  PHE352     -0.2867
    130  CB        16.3600    6.3160    1.1010 C.3   352  PHE352      0.0534
    131  CG        17.5770    6.9950    0.5400 C.ar  352  PHE352     -0.0203
    132  CD1       17.6830    7.2420   -0.8320 C.ar  352  PHE352     -0.0042
    133  CD2       18.6250    7.3750    1.3730 C.ar  352  PHE352     -0.0042
    134  CE1       18.8110    7.8630   -1.3640 C.ar  352  PHE352     -0.0003
    135  CE2       19.7500    7.9920    0.8540 C.ar  352  PHE352     -0.0003
    136  CZ        19.8370    8.2350   -0.5270 C.ar  352  PHE352     -0.0000
    137  N         14.4880   11.2590   -3.4060 N.3   358  PHE358     -0.1241
    138  CA        15.1960   10.4570   -4.3950 C.3   358  PHE358      0.1605
    139  C         14.3370    9.2840   -4.8420 C.2   358  PHE358      0.2264
    140  O         14.0660    9.1370   -6.0360 O.2   358  PHE358     -0.2867
    141  CB        16.5660    9.9940   -3.8780 C.3   358  PHE358      0.0534
    142  CG        17.6310   11.0650   -3.9650 C.ar  358  PHE358     -0.0203
    143  CD1       17.6160   12.1530   -3.0990 C.ar  358  PHE358     -0.0042
    144  CD2       18.6450   10.9850   -4.9190 C.ar  358  PHE358     -0.0042
    145  CE1       18.5920   13.1570   -3.1850 C.ar  358  PHE358     -0.0003
    146  CE2       19.6190   11.9750   -5.0130 C.ar  358  PHE358     -0.0003
    147  CZ        19.5880   13.0640   -4.1460 C.ar  358  PHE358     -0.0000
    148  N         12.8050    7.0270   -8.8980 N.3   362  ASP362     -0.1239
    149  CA        13.2240    5.6700   -9.3100 C.3   362  ASP362      0.1674
    150  C         12.0610    4.7690   -9.6160 C.2   362  ASP362      0.2266
    151  O         12.0270    4.1160  -10.6550 O.2   362  ASP362     -0.2867
    152  CB        14.0610    5.0190   -8.2220 C.3   362  ASP362      0.1410
    153  CG        15.3880    5.7070   -8.0320 C.2   362  ASP362      0.3668
    154  OD1       16.1200    5.9010   -9.0340 O.co2 362  ASP362     -0.2456
    155  OD2       15.7000    6.0590   -6.8790 O.co2 362  ASP362     -0.2456
@<TRIPOS>BOND
     1    27    26   ar
     2    28    26   ar
     3    37    38    1
     4    38    41    1
     5    38    39    1
     6    26    25    1
     7    41    42    1
     8    40    39    2
     9    39    47   am
    10    25    22    1
    11    22    21    1
    12    22    23    1
    13    31    32    2
    14    31    30    1
    15    42    43   ar
    16    42    44   ar
    17    47    48    1
    18    23    29   am
    19    23    24    2
    20    29    30    1
    21    49    48    1
    22    49    50    2
    23    43    45   ar
    24    44    46   ar
    25     1     2    1
    26    52    53    1
    27    30    33    1
    28   151   150    2
    29     9     7   am
    30    48    51    1
    31     2     5    1
    32     2     3    1
    33    33    34    1
    34     5     6    1
    35     6     7    1
    36    73    72    1
    37     7     8    2
    38    45    46   ar
    39   150   149    1
    40    34    35    1
    41    53    54    1
    42    53    56    1
    43     4     3    2
    44    54    55    2
    45    71    72   ar
    46    71    69   ar
    47   149   148    1
    48   149   152    1
    49     3    10   am
    50   154   153   ar
    51    72    70   ar
    52   109   108   ar
    53   109   107   ar
    54   108   106   ar
    55    56    57    1
    56    59    57   ar
    57    59    61   ar
    58    69    67   ar
    59    10    11    1
    60    57    58   ar
    61   152   153    1
    62    61    60   ar
    63   153   155   ar
    64    35    36    1
    65    58    60   ar
    66    70    68   ar
    67   106   105   ar
    68   107   105   ar
    69    12    11    1
    70    12    13    2
    71    11    14    1
    72    67    68   ar
    73    67    66    1
    74   105   104    1
    75    63    66    1
    76    63    62    1
    77    63    64    1
    78   140   139    2
    79    16    18   ar
    80    16    15   ar
    81    14    15    1
    82    18    20   ar
    83   104   101    1
    84    64    65    2
    85    15    17   ar
    86   146   144   ar
    87   146   147   ar
    88   103   102    2
    89    78    79    1
    90    78    75    1
    91   144   142   ar
    92   139   138    1
    93   138   141    1
    94   138   137    1
    95   102   101    1
    96    20    19   ar
    97   147   145   ar
    98   101   100    1
    99    17    19   ar
   100   100    93   am
   101   142   141    1
   102   142   143   ar
   103    74    75    1
   104    75    76    1
   105    90    89    2
   106   145   143   ar
   107    93    92    1
   108    93    94    2
   109    92    91    1
   110    92    95    1
   111    89    91   am
   112    89    88    1
   113   117   115    1
   114    96    95    1
   115    96    97    1
   116    76    77    2
   117    88    87    1
   118    86    84    1
   119    99    97   am
   120    97    98    2
   121   116   115    1
   122   134   132   ar
   123   134   136   ar
   124   115   114    1
   125   132   131   ar
   126   136   135   ar
   127   114   111    1
   128    84    85    1
   129    84    81    1
   130   124   125    1
   131   124   123    1
   132    80    81    1
   133   111   110    1
   134   111   112    1
   135    81    82    1
   136   131   130    1
   137   131   133   ar
   138   127   128    1
   139   127   130    1
   140   127   126    1
   141   129   128    2
   142   135   133   ar
   143   123   122    1
   144   112   113    2
   145    82    83    2
   146   122   119    1
   147   118   119    1
   148   119   120    1
   149   120   121    2
