@<TRIPOS>MOLECULE
tmp/2xsiA07.pdb
 128 122 0 0 0
SMALL
GASTEIGER

@<TRIPOS>ATOM
      1  N         31.3760    2.1540   38.7100 N.3   112  ARG112     -0.1231
      2  CA        30.7680    3.3360   38.0990 C.3   112  ARG112      0.1694
      3  C         31.4320    4.5380   38.7590 C.2   112  ARG112      0.2591
      4  O         31.6600    4.5480   39.9680 O.2   112  ARG112     -0.2718
      5  CB        29.2550    3.3960   38.3550 C.3   112  ARG112      0.0321
      6  CG        28.8790    3.4640   39.8380 C.3   112  ARG112      0.0489
      7  CD        27.4810    4.0340   40.0850 C.3   112  ARG112      0.2205
      8  NE        27.4190    5.4620   39.7750 N.pl3 112  ARG112     -0.0865
      9  CZ        26.7410    6.3520   40.4970 C.cat 112  ARG112      0.5346
     10  NH1       26.0690    5.9570   41.5720 N.pl3 112  ARG112      0.1354
     11  NH2       26.7340    7.6370   40.1500 N.pl3 112  ARG112      0.1354
     12  N         31.7610    5.5400   37.9620 N.am  113  LEU113     -0.1980
     13  CA        32.3900    6.7440   38.4850 C.3   113  LEU113      0.1596
     14  C         31.3290    7.5570   39.2380 C.2   113  LEU113      0.2287
     15  O         30.3150    7.9510   38.6610 O.2   113  LEU113     -0.2864
     16  CB        32.9430    7.5470   37.3160 C.3   113  LEU113      0.0297
     17  CG        34.2760    8.2620   37.4490 C.3   113  LEU113      0.0022
     18  CD1       35.3660    7.2630   37.7780 C.3   113  LEU113      0.0001
     19  CD2       34.5790    8.9630   36.1350 C.3   113  LEU113      0.0001
     20  N         38.0300    8.6660   32.9500 N.3   140  ILE140     -0.1245
     21  CA        37.1440    8.5770   31.8070 C.3   140  ILE140      0.1561
     22  C         37.8280    7.8510   30.6600 C.2   140  ILE140      0.2260
     23  O         37.2570    6.9380   30.0700 O.2   140  ILE140     -0.2867
     24  CB        36.7340    9.9640   31.3190 C.3   140  ILE140      0.0252
     25  CG1       36.0440   10.7300   32.4480 C.3   140  ILE140      0.0019
     26  CG2       35.8100    9.8310   30.1280 C.3   140  ILE140      0.0019
     27  CD1       34.7130   10.1580   32.8440 C.3   140  ILE140      0.0001
     28  N         37.9400    4.0860   30.9410 N.3   143  ARG143     -0.1231
     29  CA        36.6250    3.4720   30.8290 C.3   143  ARG143      0.1694
     30  C         36.0860    3.5490   29.3930 C.2   143  ARG143      0.2592
     31  O         35.1310    2.8510   29.0330 O.2   143  ARG143     -0.2718
     32  CB        35.6370    4.1570   31.7820 C.3   143  ARG143      0.0321
     33  CG        35.9180    3.8980   33.2370 C.3   143  ARG143      0.0489
     34  CD        34.8750    4.5370   34.1230 C.3   143  ARG143      0.2205
     35  NE        35.0110    4.0950   35.5090 N.pl3 143  ARG143     -0.0865
     36  CZ        36.0780    4.3150   36.2770 C.cat 143  ARG143      0.5346
     37  NH1       37.1190    4.9820   35.7970 N.pl3 143  ARG143      0.1354
     38  NH2       36.1120    3.8530   37.5250 N.pl3 143  ARG143      0.1354
     39  N         36.6980    4.3990   28.5770 N.am  144  HIS144     -0.1976
     40  CA        36.2640    4.5800   27.1990 C.3   144  HIS144      0.1656
     41  C         37.4680    4.5680   26.2830 C.2   144  HIS144      0.2291
     42  O         37.8450    5.5850   25.7260 O.2   144  HIS144     -0.2864
     43  CB        35.5150    5.9010   27.0760 C.3   144  HIS144      0.0771
     44  CG        34.2490    5.9350   27.8690 C.ar  144  HIS144      0.0820
     45  ND1       33.1140    5.2620   27.4740 N.ar  144  HIS144     -0.2267
     46  CD2       33.9590    6.4970   29.0650 C.ar  144  HIS144      0.1154
     47  CE1       32.1790    5.4090   28.3930 C.ar  144  HIS144      0.1986
     48  NE2       32.6670    6.1530   29.3690 N.ar  144  HIS144     -0.2212
     49  N         37.0500    6.3260   22.7560 N.3   147  PHE147     -0.1241
     50  CA        36.6600    7.7130   22.6430 C.3   147  PHE147      0.1605
     51  C         37.8600    8.4420   22.0540 C.2   147  PHE147      0.2264
     52  O         38.9640    8.3860   22.6000 O.2   147  PHE147     -0.2867
     53  CB        36.3450    8.2730   24.0130 C.3   147  PHE147      0.0534
     54  CG        35.3770    9.4010   23.9870 C.ar  147  PHE147     -0.0203
     55  CD1       35.7830   10.6710   23.5890 C.ar  147  PHE147     -0.0042
     56  CD2       34.0570    9.2020   24.3710 C.ar  147  PHE147     -0.0042
     57  CE1       34.8780   11.7420   23.5770 C.ar  147  PHE147     -0.0003
     58  CE2       33.1410   10.2550   24.3650 C.ar  147  PHE147     -0.0003
     59  CZ        33.5540   11.5330   23.9670 C.ar  147  PHE147     -0.0000
     60  N         38.1430   14.0900   23.7930 N.3   152  LEU152     -0.1245
     61  CA        38.1390   13.9250   25.2260 C.3   152  LEU152      0.1561
     62  C         38.7890   15.1620   25.8210 C.2   152  LEU152      0.2260
     63  O         38.2860   15.7380   26.7820 O.2   152  LEU152     -0.2867
     64  CB        38.9320   12.6790   25.5860 C.3   152  LEU152      0.0270
     65  CG        38.4380   11.8580   26.7740 C.3   152  LEU152      0.0019
     66  CD1       36.9380   11.6370   26.6670 C.3   152  LEU152      0.0001
     67  CD2       39.1820   10.5180   26.7890 C.3   152  LEU152      0.0001
     68  N         36.5640   18.0760   25.7710 N.3   155  PHE155     -0.1241
     69  CA        35.5990   18.0380   26.8520 C.3   155  PHE155      0.1605
     70  C         36.2080   18.5010   28.1680 C.2   155  PHE155      0.2264
     71  O         35.5980   19.2710   28.9050 O.2   155  PHE155     -0.2867
     72  CB        35.0500   16.6300   27.0080 C.3   155  PHE155      0.0534
     73  CG        33.8070   16.3820   26.2070 C.ar  155  PHE155     -0.0203
     74  CD1       32.6210   17.0320   26.5290 C.ar  155  PHE155     -0.0042
     75  CD2       33.8100   15.4860   25.1350 C.ar  155  PHE155     -0.0042
     76  CE1       31.4610   16.7910   25.7980 C.ar  155  PHE155     -0.0003
     77  CE2       32.6510   15.2440   24.4000 C.ar  155  PHE155     -0.0003
     78  CZ        31.4790   15.8950   24.7310 C.ar  155  PHE155     -0.0000
     79  N         34.8370   21.3290   30.8930 N.3   159  TYR159     -0.1241
     80  CA        34.6630   21.0490   32.3120 C.3   159  TYR159      0.1605
     81  C         35.4180   22.0740   33.1520 C.2   159  TYR159      0.2264
     82  O         34.8810   22.6040   34.1320 O.2   159  TYR159     -0.2867
     83  CB        35.1760   19.6530   32.6630 C.3   159  TYR159      0.0534
     84  CG        34.1230   18.5790   32.5790 C.ar  159  TYR159     -0.0201
     85  CD1       33.2630   18.3460   33.6410 C.ar  159  TYR159     -0.0009
     86  CD2       33.9720   17.8110   31.4320 C.ar  159  TYR159     -0.0009
     87  CE1       32.2770   17.3770   33.5650 C.ar  159  TYR159      0.0417
     88  CE2       32.9900   16.8380   31.3480 C.ar  159  TYR159      0.0417
     89  CZ        32.1460   16.6270   32.4170 C.ar  159  TYR159      0.1957
     90  OH        31.1660   15.6660   32.3320 O.3   159  TYR159     -0.2866
     91  N         27.0380   18.1720   30.3020 N.3   183  LEU183     -0.1231
     92  CA        28.2880   17.6530   29.7640 C.3   183  LEU183      0.1693
     93  C         28.2250   16.1340   29.6890 C.2   183  LEU183      0.2591
     94  O         28.6880   15.5320   28.7230 O.2   183  LEU183     -0.2718
     95  CB        29.4670   18.0890   30.6340 C.3   183  LEU183      0.0284
     96  CG        29.7560   19.5940   30.6010 C.3   183  LEU183      0.0019
     97  CD1       30.7350   19.9590   31.7120 C.3   183  LEU183      0.0001
     98  CD2       30.3070   19.9860   29.2290 C.3   183  LEU183      0.0001
     99  N         27.6400   15.5160   30.7080 N.am  184  ARG184     -0.1980
    100  CA        27.5200   14.0700   30.7330 C.3   184  ARG184      0.1597
    101  C         26.7110   13.6220   29.5220 C.2   184  ARG184      0.2287
    102  O         27.1960   12.8630   28.6810 O.2   184  ARG184     -0.2864
    103  CB        26.8290   13.6200   32.0200 C.3   184  ARG184      0.0334
    104  CG        26.7320   12.1150   32.2090 C.3   184  ARG184      0.0492
    105  CD        25.6540   11.8180   33.2150 C.3   184  ARG184      0.2205
    106  NE        24.4340   12.5230   32.8330 N.pl3 184  ARG184     -0.0865
    107  CZ        23.4800   12.8990   33.6800 C.cat 184  ARG184      0.5346
    108  NH1       23.5980   12.6350   34.9770 N.pl3 184  ARG184      0.1354
    109  NH2       22.4140   13.5570   33.2320 N.pl3 184  ARG184      0.1354
    110  N         28.3700   13.8980   26.4480 N.3   187  GLY187     -0.1210
    111  CA        29.4400   12.9260   26.3410 C.3   187  GLY187      0.1956
    112  C         28.8890   11.5640   25.9910 C.2   187  GLY187      0.2611
    113  O         29.4810   10.8480   25.1990 O.2   187  GLY187     -0.2717
    114  N         27.7590   11.2020   26.5900 N.am  188  LYS188     -0.1979
    115  CA        27.1300    9.9190   26.3010 C.3   188  LYS188      0.1596
    116  C         26.7480    9.9090   24.8340 C.2   188  LYS188      0.2287
    117  O         26.9280    8.9100   24.1380 O.2   188  LYS188     -0.2864
    118  CB        25.8660    9.7250   27.1490 C.3   188  LYS188      0.0298
    119  CG        26.1260    9.6150   28.6450 C.3   188  LYS188      0.0038
    120  CD        24.8360    9.6360   29.4630 C.3   188  LYS188      0.0206
    121  CE        24.4200    8.2440   29.9050 C.3   188  LYS188      0.1093
    122  NZ        23.5530    8.3020   31.1190 N.3   188  LYS188     -0.1314
    123  N         29.6920    9.4540   22.5140 N.3   191  SER191     -0.1217
    124  CA        30.1140    8.0730   22.6240 C.3   191  SER191      0.1889
    125  C         29.1920    7.1880   21.7900 C.2   191  SER191      0.2288
    126  O         29.6590    6.4460   20.9330 O.2   191  SER191     -0.2866
    127  CB        30.0880    7.6290   24.0930 C.3   191  SER191      0.2089
    128  OG        30.7880    6.4050   24.2770 O.3   191  SER191     -0.2183
@<TRIPOS>BOND
     1   126   125    2
     2   125   124    1
     3    51    52    2
     4    51    50    1
     5   123   124    1
     6   124   127    1
     7    50    49    1
     8    50    53    1
     9    57    55   ar
    10    57    59   ar
    11    55    54   ar
    12    60    61    1
    13    59    58   ar
    14    54    53    1
    15    54    56   ar
    16   127   128    1
    17   117   116    2
    18    58    56   ar
    19    77    78   ar
    20    77    75   ar
    21    78    76   ar
    22   116   115    1
    23    75    73   ar
    24   113   112    2
    25    61    64    1
    26    61    62    1
    27    64    65    1
    28    42    41    2
    29    68    69    1
    30    76    74   ar
    31    62    63    2
    32   112   111    1
    33   112   114   am
    34    73    74   ar
    35    73    72    1
    36    41    40    1
    37   115   114    1
    38   115   118    1
    39   111   110    1
    40    66    65    1
    41    65    67    1
    42    69    72    1
    43    69    70    1
    44    43    40    1
    45    43    44    1
    46   118   119    1
    47    40    39    1
    48    45    44   ar
    49    45    47   ar
    50    44    46   ar
    51    70    71    2
    52    47    48   ar
    53    39    30   am
    54   119   120    1
    55   102   101    2
    56    94    93    2
    57    31    30    2
    58    46    48   ar
    59    98    96    1
    60    30    29    1
    61   120   121    1
    62   101   100    1
    63    93    92    1
    64    93    99   am
    65    92    91    1
    66    92    95    1
    67   121   122    1
    68    23    22    2
    69    26    24    1
    70    96    95    1
    71    96    97    1
    72    22    21    1
    73    99   100    1
    74   100   103    1
    75    29    28    1
    76    29    32    1
    77    79    80    1
    78    24    21    1
    79    24    25    1
    80    88    86   ar
    81    88    89   ar
    82    86    84   ar
    83    32    33    1
    84    21    20    1
    85   103   104    1
    86   104   105    1
    87    80    83    1
    88    80    81    1
    89    90    89    1
    90    89    87   ar
    91    25    27    1
    92    84    83    1
    93    84    85   ar
    94   106   105    1
    95   106   107    2
    96    81    82    2
    97   109   107    1
    98    33    34    1
    99    87    85   ar
   100   107   108    1
   101    34    35    1
   102    35    36    2
   103    37    36    1
   104    19    17    1
   105    36    38    1
   106    16    17    1
   107    16    13    1
   108    17    18    1
   109    12    13    1
   110    12     3   am
   111     2     5    1
   112     2     1    1
   113     2     3    1
   114     5     6    1
   115    13    14    1
   116    15    14    2
   117     3     4    2
   118     8     7    1
   119     8     9    2
   120     6     7    1
   121    11     9    1
   122     9    10    1
