@<TRIPOS>MOLECULE
tmp/2xsiA06.pdb
 175 166 0 0 0
SMALL
GASTEIGER

@<TRIPOS>ATOM
      1  N         27.0790    7.9430   19.3560 N.3   193  LYS193     -0.1231
      2  CA        27.1480    8.2280   17.9260 C.3   193  LYS193      0.1693
      3  C         28.3770    7.5730   17.3150 C.2   193  LYS193      0.2591
      4  O         28.3080    7.0300   16.2150 O.2   193  LYS193     -0.2718
      5  CB        27.2190    9.7310   17.6530 C.3   193  LYS193      0.0285
      6  CG        26.0190   10.5330   18.0780 C.3   193  LYS193      0.0035
      7  CD        26.1750   11.9570   17.6030 C.3   193  LYS193      0.0206
      8  CE        25.0330   12.8350   18.0970 C.3   193  LYS193      0.1093
      9  NZ        23.7020   12.1310   18.0350 N.3   193  LYS193     -0.1314
     10  N         29.5010    7.6300   18.0240 N.am  194  GLN194     -0.1979
     11  CA        30.7430    7.0420   17.5210 C.3   194  GLN194      0.1601
     12  C         30.6470    5.5300   17.3300 C.2   194  GLN194      0.2287
     13  O         31.0010    4.9960   16.2760 O.2   194  GLN194     -0.2864
     14  CB        31.9100    7.3700   18.4600 C.3   194  GLN194      0.0394
     15  CG        32.6960    8.6220   18.0700 C.3   194  GLN194      0.0908
     16  CD        33.8190    8.9620   19.0600 C.2   194  GLN194      0.2608
     17  OE1       33.5730    9.4890   20.1570 O.2   194  GLN194     -0.2717
     18  NE2       35.0590    8.6550   18.6720 N.am  194  GLN194     -0.0878
     19  N         28.1000    4.7470   14.4590 N.3   197  LYS197     -0.1245
     20  CA        28.7070    4.8500   13.1400 C.3   197  LYS197      0.1561
     21  C         29.6040    3.6770   12.8220 C.2   197  LYS197      0.2260
     22  O         29.4930    3.0620   11.7480 O.2   197  LYS197     -0.2867
     23  CB        29.5160    6.1340   13.0230 C.3   197  LYS197      0.0271
     24  CG        28.6790    7.4010   12.9780 C.3   197  LYS197      0.0035
     25  CD        29.5410    8.6660   13.0040 C.3   197  LYS197      0.0206
     26  CE        29.4810    9.4260   11.6890 C.3   197  LYS197      0.1093
     27  NZ        29.2670   10.8690   11.9760 N.3   197  LYS197     -0.1314
     28  N         25.4240    7.5990    3.1170 N.3   212  TRP212     -0.1241
     29  CA        25.1030    8.4570    4.2390 C.3   212  TRP212      0.1605
     30  C         25.9270    9.7420    4.1490 C.2   212  TRP212      0.2264
     31  O         25.4240   10.8400    4.3540 O.2   212  TRP212     -0.2867
     32  CB        25.4260    7.7210    5.5480 C.3   212  TRP212      0.0550
     33  CG        25.1310    8.5170    6.7780 C.ar  212  TRP212      0.0003
     34  CD1       23.9540    8.5560    7.4640 C.ar  212  TRP212      0.0946
     35  CD2       25.9990    9.4680    7.4100 C.ar  212  TRP212      0.0152
     36  NE1       24.0280    9.4840    8.4850 N.ar  212  TRP212     -0.2442
     37  CE2       25.2720   10.0570    8.4720 C.ar  212  TRP212      0.0810
     38  CE3       27.3170    9.8840    7.1780 C.ar  212  TRP212      0.0012
     39  CZ2       25.8160   11.0430    9.2990 C.ar  212  TRP212      0.0191
     40  CZ3       27.8620   10.8700    8.0000 C.ar  212  TRP212      0.0001
     41  CH2       27.1080   11.4390    9.0500 C.ar  212  TRP212      0.0015
     42  N         24.8570   13.7340    3.9660 N.3   216  ARG216     -0.1231
     43  CA        25.2370   14.6850    5.0010 C.3   216  ARG216      0.1694
     44  C         26.1390   15.7810    4.4870 C.2   216  ARG216      0.2591
     45  O         25.9100   16.9430    4.7740 O.2   216  ARG216     -0.2718
     46  CB        25.9160   13.9930    6.1930 C.3   216  ARG216      0.0321
     47  CG        26.0700   14.9130    7.4160 C.3   216  ARG216      0.0489
     48  CD        24.7110   15.4620    7.8750 C.3   216  ARG216      0.2205
     49  NE        24.7980   16.4480    8.9600 N.pl3 216  ARG216     -0.0865
     50  CZ        24.8130   17.7770    8.7980 C.cat 216  ARG216      0.5346
     51  NH1       24.7470   18.3150    7.5850 N.pl3 216  ARG216      0.1354
     52  NH2       24.8880   18.5770    9.8590 N.pl3 216  ARG216      0.1354
     53  N         27.1620   15.4140    3.7290 N.am  217  LEU217     -0.1980
     54  CA        28.0990   16.3950    3.2100 C.3   217  LEU217      0.1596
     55  C         27.4690   17.3810    2.2510 C.2   217  LEU217      0.2287
     56  O         27.8770   18.5360    2.1840 O.2   217  LEU217     -0.2864
     57  CB        29.2740   15.6960    2.5330 C.3   217  LEU217      0.0297
     58  CG        30.3640   15.2020    3.4860 C.3   217  LEU217      0.0022
     59  CD1       31.4780   14.5340    2.6910 C.3   217  LEU217      0.0001
     60  CD2       30.9240   16.3770    4.2560 C.3   217  LEU217      0.0001
     61  N         25.3880   19.9900    4.0800 N.3   220  ARG220     -0.1231
     62  CA        26.3250   20.9090    4.7150 C.3   220  ARG220      0.1694
     63  C         27.0880   21.8060    3.7410 C.2   220  ARG220      0.2592
     64  O         27.3000   22.9880    4.0200 O.2   220  ARG220     -0.2718
     65  CB        27.3110   20.1260    5.6020 C.3   220  ARG220      0.0321
     66  CG        27.6820   20.8420    6.9180 C.3   220  ARG220      0.0489
     67  CD        28.8800   20.1850    7.6770 C.3   220  ARG220      0.2205
     68  NE        28.5320   19.0260    8.5140 N.pl3 220  ARG220     -0.0865
     69  CZ        27.7830   19.0860    9.6130 C.cat 220  ARG220      0.5346
     70  NH1       27.2940   20.2430   10.0300 N.pl3 220  ARG220      0.1354
     71  NH2       27.5100   17.9840   10.2840 N.pl3 220  ARG220      0.1354
     72  N         27.5030   21.2560    2.6070 N.am  221  PHE221     -0.1976
     73  CA        28.2290   22.0480    1.6250 C.3   221  PHE221      0.1639
     74  C         27.4700   22.0450    0.3160 C.2   221  PHE221      0.2290
     75  O         27.9150   21.4540   -0.6690 O.2   221  PHE221     -0.2864
     76  CB        29.6240   21.4780    1.4020 C.3   221  PHE221      0.0560
     77  CG        30.3690   21.2120    2.6650 C.ar  221  PHE221     -0.0200
     78  CD1       30.3510   22.1400    3.7020 C.ar  221  PHE221     -0.0042
     79  CD2       31.1070   20.0370    2.8170 C.ar  221  PHE221     -0.0042
     80  CE1       31.0550   21.9070    4.8730 C.ar  221  PHE221     -0.0003
     81  CE2       31.8180   19.7900    3.9840 C.ar  221  PHE221     -0.0003
     82  CZ        31.7940   20.7290    5.0180 C.ar  221  PHE221     -0.0000
     83  N         36.6820   10.8190    3.9370 N.3   236  LEU236     -0.1245
     84  CA        35.9500   10.6960    5.1860 C.3   236  LEU236      0.1561
     85  C         35.7070    9.2240    5.4970 C.2   236  LEU236      0.2260
     86  O         35.7040    8.8240    6.6620 O.2   236  LEU236     -0.2867
     87  CB        34.6250   11.4610    5.1070 C.3   236  LEU236      0.0270
     88  CG        33.7690   11.4920    6.3770 C.3   236  LEU236      0.0019
     89  CD1       34.5900   12.0270    7.5430 C.3   236  LEU236      0.0001
     90  CD2       32.5480   12.3680    6.1560 C.3   236  LEU236      0.0001
     91  N         38.8540    7.8120    6.7900 N.3   239  VAL239     -0.1231
     92  CA        39.0060    8.3320    8.1340 C.3   239  VAL239      0.1692
     93  C         38.1880    7.5510    9.1580 C.2   239  VAL239      0.2592
     94  O         38.7520    7.0600   10.1410 O.2   239  VAL239     -0.2718
     95  CB        38.6630    9.8430    8.1790 C.3   239  VAL239      0.0266
     96  CG1       38.5050   10.3230    9.6040 C.3   239  VAL239      0.0020
     97  CG2       39.7790   10.6140    7.5300 C.3   239  VAL239      0.0020
     98  N         36.8790    7.4160    8.9360 N.am  240  HIS240     -0.1976
     99  CA        36.0390    6.6780    9.8770 C.3   240  HIS240      0.1656
    100  C         36.4910    5.2360   10.0180 C.2   240  HIS240      0.2291
    101  O         36.5620    4.7040   11.1250 O.2   240  HIS240     -0.2864
    102  CB        34.5730    6.7550    9.4580 C.3   240  HIS240      0.0771
    103  CG        33.9100    8.0330    9.8720 C.ar  240  HIS240      0.0820
    104  ND1       33.5490    8.2920   11.1770 N.ar  240  HIS240     -0.2267
    105  CD2       33.5990    9.1480    9.1690 C.ar  240  HIS240      0.1154
    106  CE1       33.0440    9.5100   11.2600 C.ar  240  HIS240      0.1986
    107  NE2       33.0640   10.0520   10.0550 N.ar  240  HIS240     -0.2212
    108  N         42.6190   12.5790   10.0700 N.3   255  ARG255     -0.1245
    109  CA        41.7720   13.7050   10.4160 C.3   255  ARG255      0.1563
    110  C         42.4330   15.0500   10.1520 C.2   255  ARG255      0.2260
    111  O         41.8070   15.9660    9.6300 O.2   255  ARG255     -0.2867
    112  CB        41.3520   13.6210   11.8840 C.3   255  ARG255      0.0307
    113  CG        40.4330   12.4560   12.1670 C.3   255  ARG255      0.0489
    114  CD        39.6970   12.6100   13.4690 C.3   255  ARG255      0.2205
    115  NE        39.1450   13.9470   13.6360 N.pl3 255  ARG255     -0.0865
    116  CZ        37.9630   14.2010   14.1900 C.cat 255  ARG255      0.5346
    117  NH1       37.1950   13.2020   14.6180 N.pl3 255  ARG255      0.1354
    118  NH2       37.5630   15.4550   14.3570 N.pl3 255  ARG255      0.1354
    119  N         42.5980   15.7150    6.2090 N.3   258  LEU258     -0.1231
    120  CA        41.3260   16.1250    5.6500 C.3   258  LEU258      0.1693
    121  C         40.9180   17.5380    6.0490 C.2   258  LEU258      0.2591
    122  O         40.2670   18.2400    5.2790 O.2   258  LEU258     -0.2718
    123  CB        40.2330   15.1260    6.0420 C.3   258  LEU258      0.0284
    124  CG        38.8890   15.3140    5.3260 C.3   258  LEU258      0.0019
    125  CD1       39.0900   15.4940    3.8030 C.3   258  LEU258      0.0001
    126  CD2       38.0170   14.1150    5.6160 C.3   258  LEU258      0.0001
    127  N         41.2960   17.9620    7.2450 N.am  259  ALA259     -0.1980
    128  CA        40.9540   19.3000    7.6940 C.3   259  ALA259      0.1597
    129  C         41.8240   20.2890    6.9340 C.2   259  ALA259      0.2287
    130  O         41.3550   21.3280    6.4740 O.2   259  ALA259     -0.2864
    131  CB        41.1970   19.4190    9.1710 C.3   259  ALA259      0.0319
    132  N         40.4900   20.4700    3.3590 N.3   262  ILE262     -0.1245
    133  CA        39.3000   21.2920    3.3380 C.3   262  ILE262      0.1561
    134  C         39.5840   22.7730    3.5100 C.2   262  ILE262      0.2260
    135  O         39.0040   23.5850    2.8040 O.2   262  ILE262     -0.2867
    136  CB        38.2800   20.8280    4.3860 C.3   262  ILE262      0.0252
    137  CG1       37.5880   19.5620    3.8730 C.3   262  ILE262      0.0019
    138  CG2       37.2620   21.9280    4.6690 C.3   262  ILE262      0.0019
    139  CD1       36.5460   18.9910    4.8140 C.3   262  ILE262      0.0001
    140  N         39.5540   20.0470   13.0530 N.3   285  SER285     -0.1217
    141  CA        38.6320   18.9350   12.8080 C.3   285  SER285      0.1889
    142  C         37.3080   19.0740   13.5450 C.2   285  SER285      0.2288
    143  O         36.2440   19.1250   12.9360 O.2   285  SER285     -0.2866
    144  CB        39.2630   17.6050   13.2290 C.3   285  SER285      0.2089
    145  OG        40.3560   17.2600   12.4060 O.3   285  SER285     -0.2183
    146  N         35.1950   21.9740   12.0680 N.3   288  ILE288     -0.1231
    147  CA        34.7040   21.6820   10.7470 C.3   288  ILE288      0.1692
    148  C         33.6210   20.6160   10.7430 C.2   288  ILE288      0.2592
    149  O         32.5820   20.7850   10.1090 O.2   288  ILE288     -0.2718
    150  CB        35.8640   21.2360    9.8430 C.3   288  ILE288      0.0266
    151  CG1       36.8570   22.3940    9.6840 C.3   288  ILE288      0.0019
    152  CG2       35.3290   20.7640    8.5030 C.3   288  ILE288      0.0020
    153  CD1       38.0630   22.0740    8.8350 C.3   288  ILE288      0.0001
    154  N         33.8580   19.5200   11.4490 N.am  289  ALA289     -0.1966
    155  CA        32.8880   18.4410   11.4890 C.3   289  ALA289      0.1728
    156  C         31.4930   18.8700   11.9510 C.2   289  ALA289      0.2616
    157  O         30.5100   18.1920   11.6580 O.2   289  ALA289     -0.2715
    158  CB        33.4070   17.3280   12.3680 C.3   289  ALA289      0.0334
    159  N         31.4090   19.9910   12.6640 N.am  290  GLU290     -0.1977
    160  CA        30.1280   20.4960   13.1660 C.3   290  GLU290      0.1602
    161  C         29.6400   21.7690   12.4980 C.2   290  GLU290      0.2287
    162  O         28.5380   22.2360   12.7830 O.2   290  GLU290     -0.2864
    163  CB        30.2130   20.8080   14.6540 C.3   290  GLU290      0.0415
    164  CG        30.3730   19.6300   15.5640 C.3   290  GLU290      0.1163
    165  CD        30.0730   20.0070   16.9980 C.2   290  GLU290      0.3649
    166  OE1       30.6390   21.0230   17.4750 O.co2 290  GLU290     -0.2457
    167  OE2       29.2680   19.2880   17.6370 O.co2 290  GLU290     -0.2457
    168  N         19.1290   12.8800   14.6670 N.3   449  ASP449     -0.1239
    169  CA        20.3120   12.7280   15.4850 C.3   449  ASP449      0.1674
    170  C         20.0790   12.2300   16.9010 C.2   449  ASP449      0.2266
    171  O         20.8060   11.3680   17.3710 O.2   449  ASP449     -0.2867
    172  CB        21.0980   14.0340   15.5330 C.3   449  ASP449      0.1410
    173  CG        22.4870   13.8880   14.9410 C.2   449  ASP449      0.3668
    174  OD1       22.6330   13.0960   13.9760 O.co2 449  ASP449     -0.2456
    175  OD2       23.4240   14.5630   15.4350 O.co2 449  ASP449     -0.2456
@<TRIPOS>BOND
     1    75    74    2
     2    74    73    1
     3    76    73    1
     4    76    77    1
     5    73    72    1
     6    56    55    2
     7    55    54    1
     8    57    54    1
     9    57    58    1
    10    72    63   am
    11    77    79   ar
    12    77    78   ar
    13    59    58    1
    14   135   134    2
    15    79    81   ar
    16    28    29    1
    17    54    53    1
    18   133   132    1
    19   133   134    1
    20   133   136    1
    21    58    60    1
    22    78    80   ar
    23    53    44   am
    24    63    64    2
    25    63    62    1
    26   125   124    1
    27   137   136    1
    28   137   139    1
    29    83    84    1
    30    42    43    1
    31    81    82   ar
    32    61    62    1
    33    30    29    1
    34    30    31    2
    35    29    32    1
    36   136   138    1
    37    44    45    2
    38    44    43    1
    39    62    65    1
    40    80    82   ar
    41    43    46    1
    42    87    84    1
    43    87    88    1
    44    84    85    1
    45   122   121    2
    46   124   126    1
    47   124   123    1
    48    85    86    2
    49    32    33    1
    50    65    66    1
    51   120   123    1
    52   120   121    1
    53   120   119    1
    54   121   127   am
    55    90    88    1
    56    46    47    1
    57    88    89    1
    58   130   129    2
    59    33    35   ar
    60    33    34   ar
    61    91    92    1
    62    66    67    1
    63   129   128    1
    64    38    35   ar
    65    38    40   ar
    66   127   128    1
    67    35    37   ar
    68    47    48    1
    69    34    36   ar
    70    97    95    1
    71    51    50    1
    72    67    68    1
    73   128   131    1
    74    48    49    1
    75    40    41   ar
    76    92    95    1
    77    92    93    1
    78    95    96    1
    79    37    36   ar
    80    37    39   ar
    81   152   150    1
    82    68    69    2
    83    50    49    2
    84    50    52    1
    85   153   151    1
    86    98    93   am
    87    98    99    1
    88    41    39   ar
    89    93    94    2
    90   105   103   ar
    91   105   107   ar
    92   102   103    1
    93   102    99    1
    94    69    70    1
    95    69    71    1
    96   111   110    2
    97   151   150    1
    98   150   147    1
    99   103   104   ar
   100    99   100    1
   101   100   101    2
   102   107   106   ar
   103   108   109    1
   104   149   148    2
   105   110   109    1
   106   109   112    1
   107   148   147    1
   108   148   154   am
   109   147   146    1
   110   104   106   ar
   111   154   155    1
   112   155   156    1
   113   155   158    1
   114   157   156    2
   115    26    27    1
   116    26    25    1
   117    22    21    2
   118   112   113    1
   119   156   159   am
   120   113   114    1
   121   145   144    1
   122   161   162    2
   123   161   160    1
   124   159   160    1
   125   141   140    1
   126   141   144    1
   127   141   142    1
   128    21    20    1
   129   143   142    2
   130    24    25    1
   131    24    23    1
   132    23    20    1
   133    20    19    1
   134   160   163    1
   135   114   115    1
   136   115   116    2
   137   174   173   ar
   138   116   118    1
   139   116   117    1
   140   163   164    1
   141   168   169    1
   142   173   175   ar
   143   173   172    1
   144   169   172    1
   145   169   170    1
   146   164   165    1
   147     4     3    2
   148    13    12    2
   149   170   171    2
   150   165   166   ar
   151   165   167   ar
   152     3     2    1
   153     3    10   am
   154    12    11    1
   155    11    10    1
   156    11    14    1
   157     7     6    1
   158     7     8    1
   159     5     2    1
   160     5     6    1
   161     2     1    1
   162     9     8    1
   163    15    14    1
   164    15    16    1
   165    18    16   am
   166    16    17    2
