@<TRIPOS>MOLECULE
tmp/2xsjB00.pdb
 216 200 0 0 0
SMALL
GASTEIGER

@<TRIPOS>ATOM
      1  N         36.6200   69.0630   59.3430 N.3    43  HIS43      -0.1241
      2  CA        35.5730   70.0270   59.0860 C.3    43  HIS43       0.1621
      3  C         34.3450   69.7020   59.9530 C.2    43  HIS43       0.2264
      4  O         34.2810   68.6180   60.5520 O.2    43  HIS43      -0.2867
      5  CB        35.1790   69.9350   57.6250 C.3    43  HIS43       0.0745
      6  CG        34.2780   68.7930   57.3420 C.ar   43  HIS43       0.0817
      7  ND1       34.7390   67.5010   57.2230 N.ar   43  HIS43      -0.2268
      8  CD2       32.9310   68.7290   57.2230 C.ar   43  HIS43       0.1154
      9  CE1       33.7190   66.6930   56.9960 C.ar   43  HIS43       0.1986
     10  NE2       32.6100   67.4130   56.9940 N.ar   43  HIS43      -0.2212
     11  N         29.8220   70.9600   59.8750 N.3    45  ILE45      -0.1245
     12  CA        28.7880   71.8700   59.4070 C.3    45  ILE45       0.1561
     13  C         28.2310   72.6300   60.6160 C.2    45  ILE45       0.2260
     14  O         27.6430   72.0310   61.4960 O.2    45  ILE45      -0.2867
     15  CB        27.6580   71.1090   58.6640 C.3    45  ILE45       0.0252
     16  CG1       28.2130   70.5090   57.3910 C.3    45  ILE45       0.0019
     17  CG2       26.4780   72.0410   58.3460 C.3    45  ILE45       0.0019
     18  CD1       27.5110   69.3200   56.9570 C.3    45  ILE45       0.0001
     19  N         29.8010   76.0160   56.6460 N.3    51  LEU51      -0.1245
     20  CA        30.8690   75.0320   56.8590 C.3    51  LEU51       0.1561
     21  C         32.0610   75.6200   57.6130 C.2    51  LEU51       0.2260
     22  O         32.4040   76.7800   57.4350 O.2    51  LEU51      -0.2867
     23  CB        31.4020   74.5850   55.5100 C.3    51  LEU51       0.0270
     24  CG        30.8550   73.3570   54.8300 C.3    51  LEU51       0.0019
     25  CD1       31.6170   73.2280   53.5320 C.3    51  LEU51       0.0001
     26  CD2       31.1390   72.1590   55.7440 C.3    51  LEU51       0.0001
     27  N         36.2760   74.5740   58.4120 N.3    53  HIS53      -0.1241
     28  CA        37.4520   73.6900   58.3180 C.3    53  HIS53       0.1621
     29  C         38.5430   74.1090   59.3140 C.2    53  HIS53       0.2264
     30  O         38.8370   75.3100   59.4410 O.2    53  HIS53      -0.2867
     31  CB        38.0010   73.7000   56.8910 C.3    53  HIS53       0.0745
     32  CG        37.1310   72.9800   55.9210 C.ar   53  HIS53       0.0817
     33  ND1       35.9970   73.5460   55.3760 N.ar   53  HIS53      -0.2268
     34  CD2       37.2040   71.7210   55.4210 C.ar   53  HIS53       0.1154
     35  CE1       35.4100   72.6670   54.5810 C.ar   53  HIS53       0.1986
     36  NE2       36.1240   71.5540   54.5880 N.ar   53  HIS53      -0.2212
     37  N         27.5120   78.8560   52.0580 N.3    65  ARG65      -0.1245
     38  CA        27.0400   78.4420   50.7380 C.3    65  ARG65       0.1563
     39  C         25.6270   78.9250   50.5110 C.2    65  ARG65       0.2260
     40  O         24.8120   78.8340   51.3890 O.2    65  ARG65      -0.2867
     41  CB        27.0700   76.9340   50.6220 C.3    65  ARG65       0.0307
     42  CG        26.7220   76.4240   49.2400 C.3    65  ARG65       0.0489
     43  CD        26.8370   74.9240   49.1830 C.3    65  ARG65       0.2205
     44  NE        28.1570   74.4780   49.6210 N.pl3  65  ARG65      -0.0865
     45  CZ        28.3910   73.2780   50.1480 C.cat  65  ARG65       0.5346
     46  NH1       27.3920   72.3950   50.2660 N.pl3  65  ARG65       0.1354
     47  NH2       29.6190   72.9490   50.5490 N.pl3  65  ARG65       0.1354
     48  N         34.1370   81.5170   45.6070 N.3    93  ARG93      -0.1245
     49  CA        34.1990   80.3950   44.6850 C.3    93  ARG93       0.1563
     50  C         32.7920   79.9210   44.3210 C.2    93  ARG93       0.2260
     51  O         31.8130   80.3520   44.9330 O.2    93  ARG93      -0.2867
     52  CB        35.0540   79.2430   45.2530 C.3    93  ARG93       0.0307
     53  CG        34.4440   78.4680   46.3890 C.3    93  ARG93       0.0489
     54  CD        35.3200   77.2590   46.7490 C.3    93  ARG93       0.2205
     55  NE        35.4760   76.3310   45.6200 N.pl3  93  ARG93      -0.0865
     56  CZ        34.6810   75.2840   45.3820 C.cat  93  ARG93       0.5346
     57  NH1       33.6760   75.0010   46.2100 N.pl3  93  ARG93       0.1354
     58  NH2       34.9060   74.4960   44.3290 N.pl3  93  ARG93       0.1354
     59  N         30.6700   76.0540   43.4180 N.3    95  THR95      -0.1203
     60  CA        30.8030   74.6310   43.6270 C.3    95  THR95       0.1994
     61  C         30.5900   73.8390   42.3480 C.2    95  THR95       0.2619
     62  O         30.1750   74.3710   41.3210 O.2    95  THR95      -0.2717
     63  CB        29.8060   74.1170   44.6820 C.3    95  THR95       0.1784
     64  OG1       28.5070   73.9720   44.0810 O.3    95  THR95      -0.2211
     65  CG2       29.7520   75.0650   45.8660 C.3    95  THR95       0.0376
     66  N         30.8750   72.5510   42.4250 N.am   96  THR96      -0.1938
     67  CA        30.6410   71.6630   41.3000 C.3    96  THR96       0.2028
     68  C         29.1440   71.5040   41.0050 C.2    96  THR96       0.2642
     69  O         28.7740   70.9870   39.9570 O.2    96  THR96      -0.2714
     70  CB        31.3100   70.2880   41.5330 C.3    96  THR96       0.1808
     71  OG1       30.9320   69.7700   42.8350 O.3    96  THR96      -0.2208
     72  CG2       32.8100   70.4490   41.4700 C.3    96  THR96       0.0379
     73  N         28.2990   72.0000   41.9070 N.am   97  ARG97      -0.1977
     74  CA        26.8410   71.9670   41.7200 C.3    97  ARG97       0.1597
     75  C         26.2660   73.3570   41.4800 C.2    97  ARG97       0.2287
     76  O         25.0360   73.5730   41.5060 O.2    97  ARG97      -0.2864
     77  CB        26.1690   71.3570   42.9290 C.3    97  ARG97       0.0334
     78  CG        26.3370   69.8560   43.0590 C.3    97  ARG97       0.0492
     79  CD        25.0240   69.2320   43.5330 C.3    97  ARG97       0.2205
     80  NE        24.9030   67.9710   42.8470 N.pl3  97  ARG97      -0.0865
     81  CZ        23.9160   67.6190   42.0530 C.cat  97  ARG97       0.5346
     82  NH1       22.8690   68.3850   41.8960 N.pl3  97  ARG97       0.1354
     83  NH2       23.9840   66.4600   41.4480 N.pl3  97  ARG97       0.1354
     84  N         26.4750   76.0680   43.3350 N.3    99  ASN99      -0.1240
     85  CA        26.1800   76.9610   44.4230 C.3    99  ASN99       0.1653
     86  C         27.3130   77.9860   44.5170 C.2    99  ASN99       0.2266
     87  O         28.3760   77.8100   43.8950 O.2    99  ASN99      -0.2867
     88  CB        25.9740   76.2060   45.7460 C.3    99  ASN99       0.1155
     89  CG        24.6780   75.4020   45.7670 C.2    99  ASN99       0.2627
     90  OD1       23.6490   75.8260   45.2260 O.2    99  ASN99      -0.2716
     91  ND2       24.7160   74.2480   46.4070 N.am   99  ASN99      -0.0877
     92  N         29.9230   80.0460   47.1330 N.3   101  GLU101     -0.1245
     93  CA        30.5720   79.9540   48.4340 C.3   101  GLU101      0.1567
     94  C         31.4200   81.2080   48.7350 C.2   101  GLU101      0.2260
     95  O         32.2210   81.6360   47.8790 O.2   101  GLU101     -0.2867
     96  CB        31.4620   78.7090   48.4920 C.3   101  GLU101      0.0388
     97  CG        30.6870   77.4020   48.5670 C.3   101  GLU101      0.1160
     98  CD        31.5130   76.1880   48.9790 C.2   101  GLU101      0.3649
     99  OE1       32.7060   76.0890   48.6120 O.co2 101  GLU101     -0.2457
    100  OE2       30.9440   75.3070   49.6620 O.co2 101  GLU101     -0.2457
    101  N         22.3220   74.1230   51.1750 N.3   133  GLY133     -0.1210
    102  CA        23.0550   73.1640   50.3440 C.3   133  GLY133      0.1956
    103  C         24.0550   72.2560   51.0580 C.2   133  GLY133      0.2613
    104  O         24.7250   71.4530   50.4150 O.2   133  GLY133     -0.2717
    105  N         24.1860   72.3800   52.3790 N.am  134  THR134     -0.1938
    106  CA        25.1510   71.5840   53.1420 C.3   134  THR134      0.2028
    107  C         24.4900   70.3980   53.8440 C.2   134  THR134      0.2642
    108  O         23.3080   70.4510   54.1750 O.2   134  THR134     -0.2714
    109  CB        25.8030   72.4360   54.2400 C.3   134  THR134      0.1808
    110  OG1       24.7800   72.9370   55.1190 O.3   134  THR134     -0.2208
    111  CG2       26.5250   73.6030   53.6210 C.3   134  THR134      0.0379
    112  N         25.2710   69.3520   54.1100 N.am  135  GLY135     -0.1954
    113  CA        24.7970   68.2510   54.9220 C.3   135  GLY135      0.1869
    114  C         23.6690   67.4970   54.2740 C.2   135  GLY135      0.2309
    115  O         23.5460   67.4850   53.0490 O.2   135  GLY135     -0.2863
    116  N         20.2060   69.7320   47.6470 N.3   139  THR139     -0.1218
    117  CA        21.0280   70.8060   47.1800 C.3   139  THR139      0.1862
    118  C         20.6060   71.2680   45.7930 C.2   139  THR139      0.2287
    119  O         19.4860   71.0030   45.3560 O.2   139  THR139     -0.2866
    120  CB        22.5680   70.5240   47.3300 C.3   139  THR139      0.1770
    121  OG1       23.3250   71.6780   46.9020 O.3   139  THR139     -0.2211
    122  CG2       23.0190   69.2500   46.5430 C.3   139  THR139      0.0375
    123  N         21.8630   70.2780   39.2180 N.3   142  VAL142     -0.1245
    124  CA        22.6820   70.3210   38.0070 C.3   142  VAL142      0.1561
    125  C         21.7910   70.0820   36.7630 C.2   142  VAL142      0.2260
    126  O         20.9540   69.1810   36.7590 O.2   142  VAL142     -0.2867
    127  CB        23.8380   69.2710   38.1200 C.3   142  VAL142      0.0252
    128  CG1       24.5460   69.0850   36.7990 C.3   142  VAL142      0.0019
    129  CG2       24.8450   69.7310   39.1340 C.3   142  VAL142      0.0019
    130  N         20.3290   61.3020   53.8540 N.3   179  ALA179     -0.1231
    131  CA        21.5790   61.6370   53.2040 C.3   179  ALA179      0.1694
    132  C         21.2670   62.7340   52.1870 C.2   179  ALA179      0.2591
    133  O         20.1270   62.8580   51.7310 O.2   179  ALA179     -0.2718
    134  CB        22.1760   60.4040   52.4940 C.3   179  ALA179      0.0304
    135  N         22.2790   63.5220   51.8220 N.am  180  GLN180     -0.1979
    136  CA        22.1010   64.6130   50.8720 C.3   180  GLN180      0.1601
    137  C         21.5400   64.0550   49.5760 C.2   180  GLN180      0.2287
    138  O         22.0680   63.0910   49.0410 O.2   180  GLN180     -0.2864
    139  CB        23.4410   65.3030   50.6330 C.3   180  GLN180      0.0394
    140  CG        23.5050   66.2320   49.4240 C.3   180  GLN180      0.0908
    141  CD        23.2250   67.6450   49.8060 C.2   180  GLN180      0.2608
    142  OE1       22.1070   67.9660   50.2280 O.2   180  GLN180     -0.2717
    143  NE2       24.2360   68.5140   49.6880 N.am  180  GLN180     -0.0878
    144  N         20.8130   64.3410   45.6750 N.3   182  ARG182     -0.1245
    145  CA        21.2490   65.0150   44.4490 C.3   182  ARG182      0.1563
    146  C         20.2180   64.7960   43.3810 C.2   182  ARG182      0.2260
    147  O         19.9980   63.6620   42.9520 O.2   182  ARG182     -0.2867
    148  CB        22.6150   64.5030   43.9600 C.3   182  ARG182      0.0307
    149  CG        23.8140   64.9780   44.7870 C.3   182  ARG182      0.0489
    150  CD        24.0010   64.1160   46.0370 C.3   182  ARG182      0.2205
    151  NE        25.1850   64.5360   46.7850 N.pl3 182  ARG182     -0.0865
    152  CZ        25.5830   64.0250   47.9560 C.cat 182  ARG182      0.5346
    153  NH1       24.8940   63.0330   48.5780 N.pl3 182  ARG182      0.1354
    154  NH2       26.6920   64.5040   48.4890 N.pl3 182  ARG182      0.1354
    155  N         23.3760   59.3300   36.8390 N.3   197  CYS197     -0.1235
    156  CA        24.0460   59.0200   38.1020 C.3   197  CYS197      0.1677
    157  C         23.5930   59.8570   39.3220 C.2   197  CYS197      0.2270
    158  O         24.4130   60.2490   40.1430 O.2   197  CYS197     -0.2867
    159  CB        25.5610   59.1640   37.9050 C.3   197  CYS197      0.0956
    160  SG        26.0700   60.9190   37.4840 S.3   197  CYS197     -0.0801
    161  N         24.1890   57.2850   41.7860 N.3   292  LYS292     -0.1231
    162  CA        25.1420   57.9960   42.6660 C.3   292  LYS292      0.1693
    163  C         26.5710   57.7870   42.1880 C.2   292  LYS292      0.2592
    164  O         26.8730   56.7710   41.5580 O.2   292  LYS292     -0.2718
    165  CB        25.0360   57.5040   44.1070 C.3   292  LYS292      0.0285
    166  CG        25.7380   56.1880   44.3760 C.3   292  LYS292      0.0035
    167  CD        25.9020   55.9250   45.8700 C.3   292  LYS292      0.0206
    168  CE        26.9500   54.8500   46.0580 C.3   292  LYS292      0.1093
    169  NZ        27.7670   54.9750   47.2880 N.3   292  LYS292     -0.1314
    170  N         27.4480   58.7410   42.4790 N.am  293  VAL293     -0.1966
    171  CA        28.8230   58.6100   42.0690 C.3   293  VAL293      0.1727
    172  C         29.7750   58.2180   43.2160 C.2   293  VAL293      0.2616
    173  O         30.8340   57.6480   42.9620 O.2   293  VAL293     -0.2715
    174  CB        29.3460   59.8760   41.2870 C.3   293  VAL293      0.0290
    175  CG1       28.2670   60.4110   40.3600 C.3   293  VAL293      0.0023
    176  CG2       29.7670   60.9520   42.2130 C.3   293  VAL293      0.0023
    177  N         29.4260   58.5110   44.4630 N.am  294  SER294     -0.1950
    178  CA        30.3630   58.2130   45.5560 C.3   294  SER294      0.1924
    179  C         30.7050   56.7180   45.6470 C.2   294  SER294      0.2314
    180  O         30.0550   55.8850   45.0350 O.2   294  SER294     -0.2863
    181  CB        29.8160   58.7050   46.8890 C.3   294  SER294      0.2116
    182  OG        28.9300   57.7440   47.4310 O.3   294  SER294     -0.2180
    183  N         30.9110   55.5400   48.7790 N.3   296  ARG296     -0.1245
    184  CA        30.6150   55.3760   50.1830 C.3   296  ARG296      0.1563
    185  C         29.7130   54.1770   50.3770 C.2   296  ARG296      0.2260
    186  O         28.6340   54.1180   49.7940 O.2   296  ARG296     -0.2867
    187  CB        29.9300   56.6120   50.7680 C.3   296  ARG296      0.0307
    188  CG        30.2740   56.7790   52.2100 C.3   296  ARG296      0.0489
    189  CD        29.1160   57.0070   53.1150 C.3   296  ARG296      0.2205
    190  NE        28.7300   58.3870   53.1120 N.pl3 296  ARG296     -0.0865
    191  CZ        28.6480   59.1930   54.1680 C.cat 296  ARG296      0.5346
    192  NH1       28.9350   58.8020   55.3990 N.pl3 296  ARG296      0.1354
    193  NH2       28.2430   60.4370   53.9550 N.pl3 296  ARG296      0.1354
    194  N         22.1000   57.5740   56.3400 N.3   338  TYR338     -0.1241
    195  CA        23.2170   57.4150   55.3710 C.3   338  TYR338      0.1605
    196  C         22.8440   56.7610   54.0420 C.2   338  TYR338      0.2264
    197  O         23.6670   56.7320   53.1080 O.2   338  TYR338     -0.2867
    198  CB        24.4710   56.7160   55.9510 C.3   338  TYR338      0.0534
    199  CG        24.9500   57.2320   57.2790 C.ar  338  TYR338     -0.0201
    200  CD1       25.6840   58.4200   57.3740 C.ar  338  TYR338     -0.0009
    201  CD2       24.6760   56.5310   58.4550 C.ar  338  TYR338     -0.0009
    202  CE1       26.1230   58.8960   58.6090 C.ar  338  TYR338      0.0417
    203  CE2       25.1070   57.0080   59.7020 C.ar  338  TYR338      0.0417
    204  CZ        25.8260   58.1800   59.7620 C.ar  338  TYR338      0.1957
    205  OH        26.2400   58.6430   60.9790 O.3   338  TYR338     -0.2866
    206  N         21.5330   56.5510   50.5460 N.3   340  ARG340     -0.1245
    207  CA        21.1330   57.3290   49.3750 C.3   340  ARG340      0.1563
    208  C         19.8660   56.6960   48.8210 C.2   340  ARG340      0.2260
    209  O         19.4680   55.6030   49.2500 O.2   340  ARG340     -0.2867
    210  CB        22.2420   57.3210   48.3180 C.3   340  ARG340      0.0307
    211  CG        23.6250   57.7510   48.8620 C.3   340  ARG340      0.0489
    212  CD        23.7190   59.2420   49.0160 C.3   340  ARG340      0.2205
    213  NE        23.4890   59.9010   47.7320 N.pl3 340  ARG340     -0.0865
    214  CZ        24.4260   60.0300   46.7990 C.cat 340  ARG340      0.5346
    215  NH1       25.6490   59.5500   47.0220 N.pl3 340  ARG340      0.1354
    216  NH2       24.1540   60.6420   45.6620 N.pl3 340  ARG340      0.1354
@<TRIPOS>BOND
     1   126   125    2
     2   125   124    1
     3   128   127    1
     4   155   156    1
     5   160   159    1
     6   159   156    1
     7   124   127    1
     8   124   123    1
     9   156   157    1
    10   127   129    1
    11   157   158    2
    12    69    68    2
    13   175   174    1
    14    68    67    1
    15    68    73   am
    16   174   171    1
    17   174   176    1
    18    67    70    1
    19    67    66    1
    20    62    61    2
    21    83    81    1
    22    72    70    1
    23    75    76    2
    24    75    74    1
    25    70    71    1
    26   164   163    2
    27    74    73    1
    28    74    77    1
    29   161   162    1
    30    82    81    1
    31    81    80    2
    32   171   170    1
    33   171   172    1
    34   163   170   am
    35   163   162    1
    36    61    66   am
    37    61    60    1
    38   162   165    1
    39    80    79    1
    40    77    78    1
    41   147   146    2
    42   173   172    2
    43    78    79    1
    44   172   177   am
    45    84    85    1
    46   146   145    1
    47    59    60    1
    48    60    63    1
    49    87    86    2
    50   148   145    1
    51   148   149    1
    52    64    63    1
    53   165   166    1
    54    50    49    1
    55    50    51    2
    56    58    56    1
    57   166   167    1
    58    85    86    1
    59    85    88    1
    60   145   144    1
    61   177   178    1
    62    63    65    1
    63    49    52    1
    64    49    48    1
    65   149   150    1
    66   180   179    2
    67    90    89    2
    68    52    53    1
    69   119   118    2
    70    56    55    2
    71    56    57    1
    72   178   179    1
    73   178   181    1
    74    55    54    1
    75   216   214    1
    76    88    89    1
    77    89    91   am
    78   118   117    1
    79   167   168    1
    80   150   151    1
    81   168   169    1
    82    53    54    1
    83   122   120    1
    84   151   152    2
    85   214   215    1
    86   214   213    2
    87   181   182    1
    88   121   120    1
    89    92    93    1
    90   117   120    1
    91   117   116    1
    92   213   212    1
    93    95    94    2
    94   152   154    1
    95   152   153    1
    96   210   211    1
    97   210   207    1
    98    93    96    1
    99    93    94    1
   100    96    97    1
   101    97    98    1
   102    99    98   ar
   103   183   184    1
   104   208   209    2
   105   208   207    1
   106   211   212    1
   107    98   100   ar
   108   138   137    2
   109    43    42    1
   110    43    44    1
   111    42    41    1
   112   207   206    1
   113   140   141    1
   114   140   139    1
   115   137   136    1
   116    44    45    2
   117   143   141   am
   118   186   185    2
   119   141   142    2
   120    45    46    1
   121    45    47    1
   122   184   185    1
   123   184   187    1
   124   102   103    1
   125   102   101    1
   126   104   103    2
   127    39    38    1
   128    39    40    2
   129    41    38    1
   130   139   136    1
   131    38    37    1
   132   187   188    1
   133   136   135    1
   134   103   105   am
   135   133   132    2
   136   135   132   am
   137   132   131    1
   138   188   189    1
   139   105   106    1
   140   134   131    1
   141   115   114    2
   142   197   196    2
   143   190   189    1
   144   190   191    2
   145   106   107    1
   146   106   109    1
   147   131   130    1
   148    25    24    1
   149   111   109    1
   150   107   112   am
   151   107   108    2
   152   193   191    1
   153   196   195    1
   154   112   113    1
   155   191   192    1
   156   109   110    1
   157   114   113    1
   158    35    36   ar
   159    35    33   ar
   160    36    34   ar
   161    24    23    1
   162    24    26    1
   163   195   198    1
   164   195   194    1
   165    33    32   ar
   166    34    32   ar
   167    23    20    1
   168    32    31    1
   169   198   199    1
   170    19    20    1
   171    20    21    1
   172    31    28    1
   173    18    16    1
   174    10     9   ar
   175    10     8   ar
   176     9     7   ar
   177     8     6   ar
   178     7     6   ar
   179   199   200   ar
   180   199   201   ar
   181     6     5    1
   182   200   202   ar
   183    16    15    1
   184    22    21    2
   185     5     2    1
   186    28    27    1
   187    28    29    1
   188    17    15    1
   189   201   203   ar
   190   202   204   ar
   191    15    12    1
   192     2     1    1
   193     2     3    1
   194    29    30    2
   195    12    11    1
   196    12    13    1
   197   203   204   ar
   198   204   205    1
   199     3     4    2
   200    13    14    2
