@<TRIPOS>MOLECULE
tmp/2xsjB01.pdb
 129 126 0 0 0
SMALL
GASTEIGER

@<TRIPOS>ATOM
      1  N         22.5960   79.3280   38.2490 N.3    70  ARG70      -0.1245
      2  CA        23.5050   78.8150   37.2130 C.3    70  ARG70       0.1563
      3  C         23.5170   79.7620   36.0130 C.2    70  ARG70       0.2260
      4  O         24.5120   80.4580   35.7840 O.2    70  ARG70      -0.2867
      5  CB        23.1540   77.3730   36.8040 C.3    70  ARG70       0.0307
      6  CG        24.3570   76.4760   36.4400 C.3    70  ARG70       0.0489
      7  CD        24.8740   76.7220   35.0500 C.3    70  ARG70       0.2205
      8  NE        23.9490   76.2030   34.0420 N.pl3  70  ARG70      -0.0865
      9  CZ        24.1780   75.1500   33.2560 C.cat  70  ARG70       0.5346
     10  NH1       25.3310   74.4800   33.3370 N.pl3  70  ARG70       0.1354
     11  NH2       23.2410   74.7690   32.3760 N.pl3  70  ARG70       0.1354
     12  N         21.9590   70.8920   35.7190 N.3   143  HIS143     -0.1226
     13  CA        21.0030   70.9170   34.5970 C.3   143  HIS143      0.1752
     14  C         21.6260   71.4710   33.3230 C.2   143  HIS143      0.2597
     15  O         22.8170   71.8050   33.3220 O.2   143  HIS143     -0.2718
     16  CB        19.7460   71.7210   34.9760 C.3   143  HIS143      0.0759
     17  CG        20.0160   73.1640   35.2810 C.ar  143  HIS143      0.0818
     18  ND1       20.3070   73.6140   36.5530 N.ar  143  HIS143     -0.2268
     19  CD2       20.0270   74.2590   34.4790 C.ar  143  HIS143      0.1154
     20  CE1       20.4840   74.9230   36.5230 C.ar  143  HIS143      0.1986
     21  NE2       20.3310   75.3380   35.2750 N.ar  143  HIS143     -0.2212
     22  N         20.8340   71.5980   32.2530 N.am  144  THR144     -0.1939
     23  CA        21.3980   71.7980   30.9180 C.3   144  THR144      0.2028
     24  C         20.8760   73.0670   30.1620 C.2   144  THR144      0.2642
     25  O         20.4780   74.0250   30.7800 O.2   144  THR144     -0.2714
     26  CB        21.1980   70.5440   30.0940 C.3   144  THR144      0.1808
     27  OG1       19.8200   70.1540   30.1700 O.3   144  THR144     -0.2208
     28  CG2       22.0550   69.4050   30.6540 C.3   144  THR144      0.0379
     29  N         20.8650   73.0680   28.8350 N.am  145  GLN145     -0.1976
     30  CA        20.5420   74.3010   28.1330 C.3   145  GLN145      0.1601
     31  C         19.0480   74.5390   27.8910 C.2   145  GLN145      0.2287
     32  O         18.5950   75.6970   27.8660 O.2   145  GLN145     -0.2864
     33  CB        21.3600   74.4350   26.8470 C.3   145  GLN145      0.0394
     34  CG        22.8550   74.6700   27.1100 C.3   145  GLN145      0.0908
     35  CD        23.0780   75.8760   27.9980 C.2   145  GLN145      0.2608
     36  OE1       22.9040   77.0030   27.5690 O.2   145  GLN145     -0.2717
     37  NE2       23.4500   75.6430   29.2370 N.am  145  GLN145     -0.0878
     38  N         19.0570   77.7350   24.7770 N.3   149  HIS149     -0.1226
     39  CA        20.1570   77.7290   23.8050 C.3   149  HIS149      0.1752
     40  C         20.3550   76.5080   22.8850 C.2   149  HIS149      0.2596
     41  O         21.0560   76.6130   21.8770 O.2   149  HIS149     -0.2718
     42  CB        21.4940   78.0310   24.5030 C.3   149  HIS149      0.0759
     43  CG        22.5480   78.5060   23.5570 C.ar  149  HIS149      0.0818
     44  ND1       23.4980   77.6630   23.0190 N.ar  149  HIS149     -0.2268
     45  CD2       22.7590   79.7200   22.9950 C.ar  149  HIS149      0.1154
     46  CE1       24.2710   78.3450   22.1950 C.ar  149  HIS149      0.1986
     47  NE2       23.8360   79.5920   22.1510 N.ar  149  HIS149     -0.2212
     48  N         19.7890   75.3590   23.2340 N.am  150  CYS150     -0.1956
     49  CA        20.0840   74.1200   22.4960 C.3   150  CYS150      0.1843
     50  C         19.0270   73.7440   21.4370 C.2   150  CYS150      0.2625
     51  O         17.8460   73.9990   21.6100 O.2   150  CYS150     -0.2714
     52  CB        20.3120   72.9400   23.4690 C.3   150  CYS150      0.0997
     53  SG        20.9310   71.4140   22.6780 S.3   150  CYS150     -0.0797
     54  N         19.4560   73.0860   20.3660 N.am  151  HIS151     -0.1959
     55  CA        18.5280   72.6460   19.3380 C.3   151  HIS151      0.1787
     56  C         17.9900   71.2250   19.5370 C.2   151  HIS151      0.2620
     57  O         17.0730   70.8220   18.8260 O.2   151  HIS151     -0.2715
     58  CB        19.1810   72.7510   17.9620 C.3   151  HIS151      0.0785
     59  CG        20.3930   71.8880   17.8160 C.ar  151  HIS151      0.0821
     60  ND1       21.4770   71.9870   18.6610 N.ar  151  HIS151     -0.2267
     61  CD2       20.6860   70.8960   16.9400 C.ar  151  HIS151      0.1154
     62  CE1       22.3830   71.0850   18.3160 C.ar  151  HIS151      0.1986
     63  NE2       21.9270   70.4140   17.2730 N.ar  151  HIS151     -0.2212
     64  N         18.5390   70.4500   20.4710 N.am  152  THR152     -0.1951
     65  CA        18.0090   69.0950   20.6570 C.3   152  THR152      0.1897
     66  C         17.1930   68.8030   21.9350 C.2   152  THR152      0.2313
     67  O         16.9460   67.6350   22.2240 O.2   152  THR152     -0.2863
     68  CB        19.0860   67.9600   20.4630 C.3   152  THR152      0.1794
     69  OG1       20.1340   68.0770   21.4330 O.3   152  THR152     -0.2208
     70  CG2       19.6620   67.9730   19.0850 C.3   152  THR152      0.0378
     71  N         21.2460   62.8720   25.4090 N.3   190  ASN190     -0.1225
     72  CA        22.6720   63.1350   25.4940 C.3   190  ASN190      0.1785
     73  C         23.1140   63.2330   26.9510 C.2   190  ASN190      0.2597
     74  O         24.2470   62.9000   27.2730 O.2   190  ASN190     -0.2718
     75  CB        23.0500   64.3990   24.7190 C.3   190  ASN190      0.1169
     76  CG        22.8970   64.2290   23.2100 C.2   190  ASN190      0.2627
     77  OD1       22.8180   63.1100   22.7070 O.2   190  ASN190     -0.2716
     78  ND2       22.8460   65.3480   22.4830 N.am  190  ASN190     -0.0877
     79  N         22.2090   63.6770   27.8220 N.am  191  MET191     -0.1965
     80  CA        22.4290   63.7120   29.2800 C.3   191  MET191      0.1736
     81  C         23.6530   64.4970   29.6690 C.2   191  MET191      0.2617
     82  O         24.5600   63.9500   30.2910 O.2   191  MET191     -0.2715
     83  CB        22.5290   62.2860   29.8620 C.3   191  MET191      0.0427
     84  CG        21.3210   61.8420   30.7120 C.3   191  MET191      0.0599
     85  SD        20.9520   60.0760   30.5860 S.3   191  MET191     -0.1393
     86  CE        20.2880   60.0310   28.9550 C.3   191  MET191      0.0692
     87  N         23.6990   65.7660   29.3020 N.am  192  CYS192     -0.1954
     88  CA        24.8950   66.5710   29.5250 C.3   192  CYS192      0.1843
     89  C         25.0770   66.9590   30.9980 C.2   192  CYS192      0.2626
     90  O         24.9400   68.1140   31.3740 O.2   192  CYS192     -0.2714
     91  CB        24.8660   67.8230   28.6610 C.3   192  CYS192      0.0997
     92  SG        24.7660   67.5390   26.9130 S.3   192  CYS192     -0.0797
     93  N         25.4310   66.0030   31.8280 N.am  193  GLY193     -0.1954
     94  CA        25.6340   66.2760   33.2260 C.3   193  GLY193      0.1869
     95  C         25.4850   64.9600   33.9420 C.2   193  GLY193      0.2309
     96  O         26.1580   63.9940   33.6000 O.2   193  GLY193     -0.2863
     97  N         22.3630   60.2680   34.5080 N.3   196  HIS196     -0.1241
     98  CA        22.5280   58.8430   34.5880 C.3   196  HIS196      0.1621
     99  C         23.0350   58.3750   35.9660 C.2   196  HIS196      0.2264
    100  O         23.0420   57.1690   36.2510 O.2   196  HIS196     -0.2867
    101  CB        23.3710   58.3100   33.4090 C.3   196  HIS196      0.0745
    102  CG        24.7360   58.9140   33.3060 C.ar  196  HIS196      0.0817
    103  ND1       24.9430   60.2720   33.1830 N.ar  196  HIS196     -0.2268
    104  CD2       25.9630   58.3440   33.3150 C.ar  196  HIS196      0.1154
    105  CE1       26.2430   60.5100   33.1190 C.ar  196  HIS196      0.1986
    106  NE2       26.8840   59.3580   33.2090 N.ar  196  HIS196     -0.2212
    107  N         19.2640   61.0210   18.1240 N.3   267  ASN267     -0.1240
    108  CA        20.6670   61.0900   17.7280 C.3   267  ASN267      0.1653
    109  C         20.8680   61.3150   16.2290 C.2   267  ASN267      0.2266
    110  O         21.8440   61.9420   15.8130 O.2   267  ASN267     -0.2867
    111  CB        21.4420   59.8700   18.2170 C.3   267  ASN267      0.1155
    112  CG        22.9100   60.0610   18.1180 C.2   267  ASN267      0.2627
    113  OD1       23.4540   61.0640   18.5920 O.2   267  ASN267     -0.2716
    114  ND2       23.5810   59.1150   17.4820 N.am  267  ASN267     -0.0877
    115  N         20.8340   64.9750   15.8280 N.3   270  THR270     -0.1203
    116  CA        22.1250   65.5320   16.2030 C.3   270  THR270      0.1994
    117  C         23.0480   65.5210   15.0000 C.2   270  THR270      0.2617
    118  O         23.7820   66.4850   14.7940 O.2   270  THR270     -0.2717
    119  CB        22.7650   64.7960   17.4200 C.3   270  THR270      0.1784
    120  OG1       21.9640   65.0300   18.5770 O.3   270  THR270     -0.2211
    121  CG2       24.1610   65.3150   17.7260 C.3   270  THR270      0.0376
    122  N         22.9670   64.4550   14.1840 N.am  271  MET271     -0.1979
    123  CA        23.8340   64.2950   12.9940 C.3   271  MET271      0.1605
    124  C         23.2660   64.9180   11.7260 C.2   271  MET271      0.2287
    125  O         23.9810   65.0980   10.7270 O.2   271  MET271     -0.2864
    126  CB        24.1140   62.8120   12.6900 C.3   271  MET271      0.0413
    127  CG        25.0330   62.0770   13.6310 C.3   271  MET271      0.0598
    128  SD        26.4160   63.0630   14.2100 S.3   271  MET271     -0.1393
    129  CE        25.7200   63.3450   15.8020 C.3   271  MET271      0.0692
@<TRIPOS>BOND
     1   125   124    2
     2   124   123    1
     3   126   123    1
     4   126   127    1
     5   123   122    1
     6   127   128    1
     7   122   117   am
     8   128   129    1
     9   118   117    2
    10   117   116    1
    11   110   109    2
    12   115   116    1
    13   116   119    1
    14   109   108    1
    15    61    63   ar
    16    61    59   ar
    17    63    62   ar
    18   119   121    1
    19   119   120    1
    20   114   112   am
    21   108   107    1
    22   108   111    1
    23    59    58    1
    24    59    60   ar
    25    58    55    1
    26   112   111    1
    27   112   113    2
    28    62    60   ar
    29    57    56    2
    30    70    68    1
    31    55    56    1
    32    55    54    1
    33    56    64   am
    34    54    50   am
    35    68    65    1
    36    68    69    1
    37    64    65    1
    38    65    66    1
    39    50    51    2
    40    50    49    1
    41    41    40    2
    42    66    67    2
    43    47    46   ar
    44    47    45   ar
    45    46    44   ar
    46    78    76   am
    47    49    48    1
    48    49    52    1
    49    53    52    1
    50    77    76    2
    51    40    48   am
    52    40    39    1
    53    45    43   ar
    54    44    43   ar
    55    76    75    1
    56    43    42    1
    57    39    42    1
    58    39    38    1
    59    75    72    1
    60    71    72    1
    61    72    73    1
    62    33    34    1
    63    33    30    1
    64    92    91    1
    65    73    74    2
    66    73    79   am
    67    34    35    1
    68    36    35    2
    69    79    80    1
    70    32    31    2
    71    31    30    1
    72    35    37   am
    73    30    29    1
    74    91    88    1
    75    29    24   am
    76    86    85    1
    77    80    81    1
    78    80    83    1
    79    87    88    1
    80    87    81   am
    81    88    89    1
    82    81    82    2
    83    83    84    1
    84    26    27    1
    85    26    28    1
    86    26    23    1
    87    24    25    2
    88    24    23    1
    89    85    84    1
    90    23    22    1
    91    89    90    2
    92    89    93   am
    93    93    94    1
    94    22    14   am
    95    11     9    1
    96   105   103   ar
    97   105   106   ar
    98   103   102   ar
    99   106   104   ar
   100    94    95    1
   101     9    10    1
   102     9     8    2
   103   102   104   ar
   104   102   101    1
   105    15    14    2
   106    14    13    1
   107   101    98    1
   108    96    95    2
   109     8     7    1
   110    19    21   ar
   111    19    17   ar
   112    97    98    1
   113    98    99    1
   114    13    16    1
   115    13    12    1
   116    16    17    1
   117     7     6    1
   118    21    20   ar
   119    17    18   ar
   120     4     3    2
   121    99   100    2
   122     3     2    1
   123     6     5    1
   124    20    18   ar
   125     5     2    1
   126     2     1    1
