@<TRIPOS>MOLECULE
tmp/2xsjD00.pdb
 134 128 0 0 0
SMALL
GASTEIGER

@<TRIPOS>ATOM
      1  N         10.9060   11.5310   40.8890 N.3   106  GLY106     -0.1210
      2  CA        11.5080   11.3510   42.2030 C.3   106  GLY106      0.1956
      3  C         12.3940   10.1200   42.1890 C.2   106  GLY106      0.2611
      4  O         13.0260    9.8050   43.1840 O.2   106  GLY106     -0.2717
      5  N         12.4040    9.4160   41.0550 N.am  107  MET107     -0.1979
      6  CA        13.2720    8.2590   40.8250 C.3   107  MET107      0.1605
      7  C         13.1700    7.2020   41.9360 C.2   107  MET107      0.2287
      8  O         14.2060    6.7240   42.4460 O.2   107  MET107     -0.2864
      9  CB        14.7290    8.7190   40.6370 C.3   107  MET107      0.0413
     10  CG        15.0100    9.3880   39.2780 C.3   107  MET107      0.0598
     11  SD        16.4150   10.5160   39.2810 S.3   107  MET107     -0.1393
     12  CE        15.9220   11.6450   40.6190 C.3   107  MET107      0.0692
     13  N         11.2820   16.2320   38.5150 N.3   175  SER175     -0.1202
     14  CA        10.9300   16.9410   39.7350 C.3   175  SER175      0.2020
     15  C         11.9340   16.5970   40.8340 C.2   175  SER175      0.2619
     16  O         12.6460   15.5760   40.7290 O.2   175  SER175     -0.2717
     17  CB         9.5070   16.5540   40.1800 C.3   175  SER175      0.2103
     18  OG         9.4540   15.2160   40.6720 O.3   175  SER175     -0.2182
     19  N         11.9880   17.4270   41.8860 N.am  176  CYS176     -0.1955
     20  CA        12.5820   16.9830   43.1560 C.3   176  CYS176      0.1843
     21  C         11.6410   15.9070   43.7110 C.2   176  CYS176      0.2625
     22  O         10.6250   15.6120   43.0930 O.2   176  CYS176     -0.2714
     23  CB        12.7420   18.1450   44.1480 C.3   176  CYS176      0.0997
     24  SG        11.2100   18.7170   44.8300 S.3   176  CYS176     -0.0797
     25  N         11.9820   15.3050   44.8450 N.am  177  LEU177     -0.1977
     26  CA        11.1600   14.2190   45.3820 C.3   177  LEU177      0.1596
     27  C          9.8650   14.7360   46.0420 C.2   177  LEU177      0.2287
     28  O          9.0060   13.9450   46.4480 O.2   177  LEU177     -0.2864
     29  CB        11.9690   13.2950   46.3230 C.3   177  LEU177      0.0297
     30  CG        12.7930   13.8690   47.4880 C.3   177  LEU177      0.0022
     31  CD1       11.9370   14.2630   48.7000 C.3   177  LEU177      0.0001
     32  CD2       13.9120   12.9170   47.9070 C.3   177  LEU177      0.0001
     33  N          8.9220   12.8180   50.6360 N.3   181  ARG181     -0.1231
     34  CA         9.8870   12.7410   51.7410 C.3   181  ARG181      0.1694
     35  C         10.5700   14.0920   52.0940 C.2   181  ARG181      0.2592
     36  O         11.7910   14.1610   52.3130 O.2   181  ARG181     -0.2718
     37  CB        10.9400   11.6650   51.4330 C.3   181  ARG181      0.0321
     38  CG        11.6620   11.1120   52.6710 C.3   181  ARG181      0.0489
     39  CD        12.9170   10.3450   52.2700 C.3   181  ARG181      0.2205
     40  NE        13.9700   11.2200   51.7520 N.pl3 181  ARG181     -0.0865
     41  CZ        14.9660   10.8160   50.9540 C.cat 181  ARG181      0.5346
     42  NH1       15.0500    9.5360   50.5800 N.pl3 181  ARG181      0.1354
     43  NH2       15.9030   11.6890   50.5480 N.pl3 181  ARG181      0.1354
     44  N          9.7880   15.1640   52.1490 N.am  182  CYS182     -0.1956
     45  CA        10.3260   16.4840   52.4900 C.3   182  CYS182      0.1843
     46  C          9.2250   17.3040   53.1330 C.2   182  CYS182      0.2625
     47  O          8.1060   17.3120   52.6440 O.2   182  CYS182     -0.2714
     48  CB        10.8790   17.1980   51.2380 C.3   182  CYS182      0.0997
     49  SG        11.5870   18.8430   51.6020 S.3   182  CYS182     -0.0797
     50  N          9.5440   17.9750   54.2350 N.am  183  GLU183     -0.1963
     51  CA         8.5780   18.8290   54.9360 C.3   183  GLU183      0.1733
     52  C          8.3420   20.1940   54.2710 C.2   183  GLU183      0.2616
     53  O          7.4850   20.9430   54.7060 O.2   183  GLU183     -0.2715
     54  CB         8.9690   19.0220   56.4170 C.3   183  GLU183      0.0429
     55  CG        10.2750   19.8020   56.6810 C.3   183  GLU183      0.1163
     56  CD        11.5210   18.9200   56.6360 C.2   183  GLU183      0.3649
     57  OE1       11.6140   18.0170   55.7730 O.co2 183  GLU183     -0.2457
     58  OE2       12.4320   19.1360   57.4780 O.co2 183  GLU183     -0.2457
     59  N          9.0850   20.5200   53.2150 N.am  184  TRP184     -0.1974
     60  CA         8.9770   21.8650   52.6080 C.3   184  TRP184      0.1640
     61  C          8.2770   21.9240   51.2540 C.2   184  TRP184      0.2290
     62  O          8.0770   22.9860   50.7310 O.2   184  TRP184     -0.2864
     63  CB        10.3460   22.5020   52.4830 C.3   184  TRP184      0.0576
     64  CG        11.0600   22.6590   53.7870 C.ar  184  TRP184      0.0006
     65  CD1       10.5250   23.0420   54.9880 C.ar  184  TRP184      0.0946
     66  CD2       12.4480   22.4660   54.0130 C.ar  184  TRP184      0.0152
     67  NE1       11.5030   23.0820   55.9540 N.ar  184  TRP184     -0.2442
     68  CE2       12.6940   22.7390   55.3850 C.ar  184  TRP184      0.0810
     69  CE3       13.5110   22.0730   53.1980 C.ar  184  TRP184      0.0012
     70  CZ2       13.9630   22.6380   55.9580 C.ar  184  TRP184      0.0191
     71  CZ3       14.7730   21.9710   53.7630 C.ar  184  TRP184      0.0001
     72  CH2       14.9940   22.2670   55.1300 C.ar  184  TRP184      0.0015
     73  N         14.6800   25.9620   47.4920 N.3   222  ASN222     -0.1225
     74  CA        15.9740   25.2830   47.6010 C.3   222  ASN222      0.1785
     75  C         16.4350   24.7180   46.2520 C.2   222  ASN222      0.2598
     76  O         17.6360   24.6870   45.9640 O.2   222  ASN222     -0.2718
     77  CB        15.9900   24.2200   48.7220 C.3   222  ASN222      0.1169
     78  CG        16.0510   24.8530   50.1350 C.2   222  ASN222      0.2627
     79  OD1       16.5790   25.9660   50.2980 O.2   222  ASN222     -0.2716
     80  ND2       15.5190   24.1560   51.1440 N.am  222  ASN222     -0.0877
     81  N         15.4970   24.2930   45.4070 N.am  223  GLY223     -0.1942
     82  CA        15.8450   24.0410   43.9950 C.3   223  GLY223      0.2014
     83  C         16.5950   22.7380   43.7680 C.2   223  GLY223      0.2639
     84  O         17.4980   22.6640   42.9400 O.2   223  GLY223     -0.2714
     85  N         16.1800   21.7010   44.4880 N.am  224  CYS224     -0.1953
     86  CA        16.8310   20.4090   44.4660 C.3   224  CYS224      0.1843
     87  C         16.8060   19.6590   43.0920 C.2   224  CYS224      0.2625
     88  O         17.5130   18.6510   42.9180 O.2   224  CYS224     -0.2714
     89  CB        16.2550   19.5280   45.5800 C.3   224  CYS224      0.0997
     90  SG        16.5000   20.1280   47.2800 S.3   224  CYS224     -0.0797
     91  N         16.0030   20.1140   42.1280 N.am  225  VAL225     -0.1963
     92  CA        16.1200   19.5620   40.7980 C.3   225  VAL225      0.1727
     93  C         16.7670   20.5950   39.8910 C.2   225  VAL225      0.2616
     94  O         16.9940   20.3570   38.7030 O.2   225  VAL225     -0.2715
     95  CB        14.7470   19.0110   40.2690 C.3   225  VAL225      0.0290
     96  CG1       13.7700   20.1140   39.8620 C.3   225  VAL225      0.0023
     97  CG2       14.9480   18.0000   39.1430 C.3   225  VAL225      0.0023
     98  N         17.0760   21.7560   40.4840 N.am  226  ALA226     -0.1977
     99  CA        17.7370   22.8800   39.7870 C.3   226  ALA226      0.1597
    100  C         16.9620   23.4000   38.5770 C.2   226  ALA226      0.2287
    101  O         17.5740   23.7930   37.5740 O.2   226  ALA226     -0.2864
    102  CB        19.2000   22.5260   39.3880 C.3   226  ALA226      0.0319
    103  N         18.1240   24.8360   34.5460 N.3   230  ARG230     -0.1245
    104  CA        18.1690   23.7090   33.6290 C.3   230  ARG230      0.1563
    105  C         16.7850   23.3700   33.0640 C.2   230  ARG230      0.2260
    106  O         16.5370   22.2290   32.6750 O.2   230  ARG230     -0.2867
    107  CB        18.7950   22.4680   34.3200 C.3   230  ARG230      0.0307
    108  CG        20.2350   22.6630   34.7880 C.3   230  ARG230      0.0489
    109  CD        20.6880   21.6350   35.8510 C.3   230  ARG230      0.2205
    110  NE        20.4170   20.2610   35.4250 N.pl3 230  ARG230     -0.0865
    111  CZ        20.6990   19.1660   36.1300 C.cat 230  ARG230      0.5346
    112  NH1       21.3040   19.2390   37.3160 N.pl3 230  ARG230      0.1354
    113  NH2       20.3790   17.9810   35.6350 N.pl3 230  ARG230      0.1354
    114  N         20.1200   23.1850   61.5640 N.3   261  ASN261     -0.1240
    115  CA        20.2510   22.6890   60.1780 C.3   261  ASN261      0.1653
    116  C         20.1950   21.1640   60.1280 C.2   261  ASN261      0.2266
    117  O         20.7920   20.5380   59.2530 O.2   261  ASN261     -0.2867
    118  CB        21.5500   23.1930   59.5330 C.3   261  ASN261      0.1155
    119  CG        21.3780   23.5530   58.0420 C.2   261  ASN261      0.2627
    120  OD1       21.5030   24.7310   57.6450 O.2   261  ASN261     -0.2716
    121  ND2       21.0930   22.5390   57.2110 N.am  261  ASN261     -0.0877
    122  N         23.6190   19.2520   59.9020 N.3   264  ALA264     -0.1245
    123  CA        24.3940   19.3310   58.6510 C.3   264  ALA264      0.1562
    124  C         25.8330   19.7290   58.8690 C.2   264  ALA264      0.2260
    125  O         26.7000   19.4340   58.0530 O.2   264  ALA264     -0.2867
    126  CB        23.7360   20.2910   57.6380 C.3   264  ALA264      0.0290
    127  N         15.6530   26.2710   56.7840 N.3   310  ASN310     -0.1240
    128  CA        16.7270   25.2980   56.6550 C.3   310  ASN310      0.1653
    129  C         17.5560   25.1470   57.9450 C.2   310  ASN310      0.2266
    130  O         18.0210   24.0490   58.2650 O.2   310  ASN310     -0.2867
    131  CB        17.6440   25.6420   55.4720 C.3   310  ASN310      0.1155
    132  CG        16.8940   25.7160   54.1340 C.2   310  ASN310      0.2627
    133  OD1       15.9090   25.0030   53.9080 O.2   310  ASN310     -0.2716
    134  ND2       17.3970   26.5520   53.2230 N.am  310  ASN310     -0.0877
@<TRIPOS>BOND
     1   106   105    2
     2   105   104    1
     3   104   107    1
     4   104   103    1
     5   107   108    1
     6   108   109    1
     7   110   109    1
     8   110   111    2
     9   113   111    1
    10   111   112    1
    11   101   100    2
    12    13    14    1
    13   100    99    1
    14    94    93    2
    15    97    95    1
    16    10    11    1
    17    10     9    1
    18    11    12    1
    19   102    99    1
    20    14    17    1
    21    14    15    1
    22    99    98    1
    23    96    95    1
    24    93    98   am
    25    93    92    1
    26    17    18    1
    27    95    92    1
    28     9     6    1
    29    16    15    2
    30    92    91    1
    31     6     5    1
    32     6     7    1
    33    15    19   am
    34     1     2    1
    35     5     3   am
    36    19    20    1
    37     7     8    2
    38    91    87   am
    39     3     2    1
    40     3     4    2
    41    88    87    2
    42    84    83    2
    43    87    86    1
    44    22    21    2
    45    20    21    1
    46    20    23    1
    47    21    25   am
    48    83    82    1
    49    83    85   am
    50    82    81    1
    51    23    24    1
    52    86    85    1
    53    86    89    1
    54    25    26    1
    55    26    27    1
    56    26    29    1
    57    81    75   am
    58    89    90    1
    59    76    75    2
    60    27    28    2
    61    75    74    1
    62    29    30    1
    63    30    32    1
    64    30    31    1
    65    73    74    1
    66    74    77    1
    67    77    78    1
    68    78    79    2
    69    78    80   am
    70    43    41    1
    71    42    41    1
    72    33    34    1
    73    62    61    2
    74    41    40    2
    75    48    49    1
    76    48    45    1
    77    61    60    1
    78    37    34    1
    79    37    38    1
    80    34    35    1
    81    40    39    1
    82    35    44   am
    83    35    36    2
    84    44    45    1
    85    39    38    1
    86    63    60    1
    87    63    64    1
    88    45    46    1
    89    60    59    1
    90    47    46    2
    91    46    50   am
    92    69    71   ar
    93    69    66   ar
    94    59    52   am
    95   134   132   am
    96    71    72   ar
    97    64    66   ar
    98    64    65   ar
    99   133   132    2
   100    66    68   ar
   101   132   131    1
   102    50    51    1
   103    52    53    2
   104    52    51    1
   105    51    54    1
   106    65    67   ar
   107    72    70   ar
   108    68    67   ar
   109    68    70   ar
   110   131   128    1
   111    57    56   ar
   112    54    55    1
   113    56    55    1
   114    56    58   ar
   115   128   127    1
   116   128   129    1
   117   121   119   am
   118   126   123    1
   119   120   119    2
   120   129   130    2
   121   119   118    1
   122   125   124    2
   123   123   124    1
   124   123   122    1
   125   117   116    2
   126   118   115    1
   127   116   115    1
   128   115   114    1
