@<TRIPOS>MOLECULE
tmp/2xsjD01.pdb
 212 196 0 0 0
SMALL
GASTEIGER

@<TRIPOS>ATOM
      1  N         27.1890   12.5030   15.1420 N.3    67  GLY67      -0.1225
      2  CA        25.7280   12.3880   15.0280 C.3    67  GLY67       0.1811
      3  C         25.1580   10.9760   15.0330 C.2    67  GLY67       0.2280
      4  O         25.6570   10.0910   15.7350 O.2    67  GLY67      -0.2866
      5  N         19.5130    8.3280   20.9210 N.3    80  ILE80      -0.1245
      6  CA        20.6670    9.0570   20.4010 C.3    80  ILE80       0.1561
      7  C         21.5150    8.0170   19.6840 C.2    80  ILE80       0.2260
      8  O         22.1350    7.1700   20.3340 O.2    80  ILE80      -0.2867
      9  CB        21.4750    9.7190   21.5570 C.3    80  ILE80       0.0252
     10  CG1       20.5370   10.5160   22.4940 C.3    80  ILE80       0.0019
     11  CG2       22.6590   10.5410   21.0380 C.3    80  ILE80       0.0019
     12  CD1       19.9010   11.7620   21.9000 C.3    80  ILE80       0.0001
     13  N         24.6400    6.3790   17.5850 N.3    82  ARG82      -0.1245
     14  CA        26.0820    6.5810   17.6130 C.3    82  ARG82       0.1563
     15  C         26.8300    5.4410   16.9410 C.2    82  ARG82       0.2260
     16  O         26.4700    4.2670   17.0940 O.2    82  ARG82      -0.2867
     17  CB        26.5880    6.7510   19.0610 C.3    82  ARG82       0.0307
     18  CG        27.8710    7.6080   19.1780 C.3    82  ARG82       0.0489
     19  CD        27.6380    9.0780   18.7320 C.3    82  ARG82       0.2205
     20  NE        27.1050    9.9050   19.8240 N.pl3  82  ARG82      -0.0865
     21  CZ        26.3320   10.9890   19.6720 C.cat  82  ARG82       0.5346
     22  NH1       25.9540   11.4190   18.4640 N.pl3  82  ARG82       0.1354
     23  NH2       25.9340   11.6600   20.7380 N.pl3  82  ARG82       0.1354
     24  N         22.1850    5.0340   22.3760 N.3    98  THR98      -0.1218
     25  CA        21.5960    5.2200   23.7070 C.3    98  THR98       0.1862
     26  C         20.0770    5.3450   23.6220 C.2    98  THR98       0.2287
     27  O         19.5610    6.0930   22.7900 O.2    98  THR98      -0.2866
     28  CB        22.1510    6.4720   24.3890 C.3    98  THR98       0.1770
     29  OG1       23.4470    6.1730   24.9330 O.3    98  THR98      -0.2211
     30  CG2       21.2350    6.9180   25.4930 C.3    98  THR98       0.0375
     31  N         16.7240    6.4860   25.6880 N.3   100  ARG100     -0.1245
     32  CA        16.3130    7.3190   26.8010 C.3   100  ARG100      0.1563
     33  C         14.9600    6.8090   27.2690 C.2   100  ARG100      0.2260
     34  O         13.9760    6.8700   26.5230 O.2   100  ARG100     -0.2867
     35  CB        16.2310    8.7820   26.3660 C.3   100  ARG100      0.0307
     36  CG        17.5950    9.3880   26.0310 C.3   100  ARG100      0.0489
     37  CD        17.5000   10.8510   25.7080 C.3   100  ARG100      0.2205
     38  NE        18.8240   11.4600   25.5170 N.pl3 100  ARG100     -0.0865
     39  CZ        19.0340   12.7610   25.3140 C.cat 100  ARG100      0.5346
     40  NH1       18.0090   13.6140   25.2840 N.pl3 100  ARG100      0.1354
     41  NH2       20.2650   13.2090   25.1310 N.pl3 100  ARG100      0.1354
     42  N         23.1660    4.5850   32.3310 N.3   130  ASN130     -0.1240
     43  CA        23.4100    5.7350   33.1870 C.3   130  ASN130      0.1653
     44  C         22.1660    5.8700   34.0480 C.2   130  ASN130      0.2266
     45  O         21.0540    5.9920   33.5130 O.2   130  ASN130     -0.2867
     46  CB        23.5380    7.0570   32.3890 C.3   130  ASN130      0.1155
     47  CG        24.8540    7.2130   31.6680 C.2   130  ASN130      0.2627
     48  OD1       25.6600    6.3020   31.5990 O.2   130  ASN130     -0.2716
     49  ND2       25.0730    8.3880   31.1200 N.am  130  ASN130     -0.0877
     50  N         21.1810    8.6650   36.7230 N.3   132  HIS132     -0.1226
     51  CA        20.2820    8.8940   35.5800 C.3   132  HIS132      0.1752
     52  C         20.9010    9.9260   34.6290 C.2   132  HIS132      0.2597
     53  O         21.9230   10.5690   34.9700 O.2   132  HIS132     -0.2718
     54  CB        18.9250    9.4270   36.0840 C.3   132  HIS132      0.0759
     55  CG        18.0570    8.3850   36.7290 C.ar  132  HIS132      0.0818
     56  ND1       18.2720    7.9230   38.0120 N.ar  132  HIS132     -0.2268
     57  CD2       16.9620    7.7290   36.2750 C.ar  132  HIS132      0.1154
     58  CE1       17.3490    7.0270   38.3210 C.ar  132  HIS132      0.1986
     59  NE2       16.5360    6.8990   37.2870 N.ar  132  HIS132     -0.2212
     60  N         20.3000   10.0890   33.4510 N.am  133  GLY133     -0.1942
     61  CA        20.6270   11.2130   32.5720 C.3   133  GLY133      0.2014
     62  C         20.3340   12.5520   33.2380 C.2   133  GLY133      0.2639
     63  O         19.4880   12.6470   34.1540 O.2   133  GLY133     -0.2714
     64  N         21.0570   13.5890   32.8170 N.am  134  ALA134     -0.1963
     65  CA        20.9860   14.8830   33.4720 C.3   134  ALA134      0.1728
     66  C         19.5600   15.4470   33.4620 C.2   134  ALA134      0.2617
     67  O         19.1340   16.0550   34.4280 O.2   134  ALA134     -0.2715
     68  CB        21.9640   15.8630   32.8210 C.3   134  ALA134      0.0334
     69  N         18.8370   15.2410   32.3650 N.am  135  THR135     -0.1937
     70  CA        17.4480   15.6630   32.2600 C.3   135  THR135      0.2028
     71  C         16.5600   14.7690   33.1120 C.2   135  THR135      0.2643
     72  O         15.4740   15.1790   33.4780 O.2   135  THR135     -0.2714
     73  CB        16.9110   15.6600   30.7830 C.3   135  THR135      0.1808
     74  OG1       17.9090   16.1580   29.8790 O.3   135  THR135     -0.2208
     75  CG2       15.6750   16.5340   30.6550 C.3   135  THR135      0.0379
     76  N         17.0200   13.5540   33.4290 N.am  136  GLY136     -0.1939
     77  CA        16.2860   12.6350   34.3380 C.3   136  GLY136      0.2014
     78  C         15.9450   11.2490   33.7690 C.2   136  GLY136      0.2638
     79  O         15.4500   10.3630   34.4840 O.2   136  GLY136     -0.2714
     80  N         16.1840   11.0360   32.4860 N.am  137  ASP137     -0.1971
     81  CA        15.8800    9.7440   31.9020 C.3   137  ASP137      0.1709
     82  C         16.6770    8.5650   32.4940 C.2   137  ASP137      0.2293
     83  O         17.7970    8.7250   33.0040 O.2   137  ASP137     -0.2864
     84  CB        16.0740    9.8050   30.4010 C.3   137  ASP137      0.1436
     85  CG        15.0460   10.6790   29.7310 C.2   137  ASP137      0.3671
     86  OD1       13.8180   10.3860   29.8500 O.co2 137  ASP137     -0.2456
     87  OD2       15.4560   11.6650   29.0760 O.co2 137  ASP137     -0.2456
     88  N         18.9130    5.9840   31.3280 N.3   139  VAL139     -0.1245
     89  CA        19.7050    5.9290   30.1230 C.3   139  VAL139      0.1561
     90  C         20.2090    4.5140   29.9380 C.2   139  VAL139      0.2260
     91  O         20.8480    3.9470   30.8260 O.2   139  VAL139     -0.2867
     92  CB        20.8690    6.9410   30.1560 C.3   139  VAL139      0.0252
     93  CG1       21.9010    6.6090   29.0860 C.3   139  VAL139      0.0019
     94  CG2       20.3370    8.3130   29.9550 C.3   139  VAL139      0.0019
     95  N         22.7230    2.5190   27.6550 N.3   141  LEU141     -0.1245
     96  CA        23.8960    2.9250   26.8970 C.3   141  LEU141      0.1561
     97  C         24.4190    1.8230   25.9770 C.2   141  LEU141      0.2260
     98  O         25.1630    0.9580   26.4080 O.2   141  LEU141     -0.2867
     99  CB        25.0160    3.3340   27.8750 C.3   141  LEU141      0.0270
    100  CG        26.3020    3.9130   27.3040 C.3   141  LEU141      0.0019
    101  CD1       26.0510    5.3570   26.9350 C.3   141  LEU141      0.0001
    102  CD2       27.4220    3.8200   28.3210 C.3   141  LEU141      0.0001
    103  N         11.2350   17.8420   26.2140 N.3   171  ARG171     -0.1245
    104  CA        12.0720   16.8340   26.8040 C.3   171  ARG171      0.1563
    105  C         11.4260   16.2440   28.0590 C.2   171  ARG171      0.2260
    106  O         10.3920   16.7430   28.5260 O.2   171  ARG171     -0.2867
    107  CB        13.4210   17.4370   27.1410 C.3   171  ARG171      0.0307
    108  CG        14.1540   17.9310   25.9570 C.3   171  ARG171      0.0489
    109  CD        14.3940   16.8070   24.9970 C.3   171  ARG171      0.2205
    110  NE        15.1320   17.3160   23.8600 N.pl3 171  ARG171     -0.0865
    111  CZ        16.4350   17.5840   23.8990 C.cat 171  ARG171      0.5346
    112  NH1       17.1170   17.3840   25.0380 N.pl3 171  ARG171      0.1354
    113  NH2       17.0500   18.0820   22.8190 N.pl3 171  ARG171      0.1354
    114  N         12.9710   24.4710   18.6600 N.3   211  TYR211     -0.1227
    115  CA        14.1620   23.9500   19.3460 C.3   211  TYR211      0.1736
    116  C         13.7000   23.1080   20.5320 C.2   211  TYR211      0.2595
    117  O         12.5150   22.7940   20.6360 O.2   211  TYR211     -0.2718
    118  CB        15.0750   25.1140   19.7620 C.3   211  TYR211      0.0548
    119  CG        16.5310   24.7930   20.0220 C.ar  211  TYR211     -0.0200
    120  CD1       17.0840   23.5510   19.6680 C.ar  211  TYR211     -0.0009
    121  CD2       17.3620   25.7470   20.6280 C.ar  211  TYR211     -0.0009
    122  CE1       18.4500   23.2490   19.9320 C.ar  211  TYR211      0.0417
    123  CE2       18.7150   25.4760   20.8970 C.ar  211  TYR211      0.0417
    124  CZ        19.2560   24.2260   20.5490 C.ar  211  TYR211      0.1957
    125  OH        20.5830   23.9690   20.8030 O.3   211  TYR211     -0.2866
    126  N         14.6250   22.7000   21.3930 N.am  212  LYS212     -0.1980
    127  CA        14.2670   21.8920   22.5620 C.3   212  LYS212      0.1596
    128  C         13.5750   22.7730   23.6200 C.2   212  LYS212      0.2287
    129  O         13.6930   24.0000   23.5980 O.2   212  LYS212     -0.2864
    130  CB        15.5090   21.1910   23.1580 C.3   212  LYS212      0.0298
    131  CG        16.3230   22.1030   24.0570 C.3   212  LYS212      0.0038
    132  CD        17.6500   21.5250   24.4510 C.3   212  LYS212      0.0206
    133  CE        18.6470   21.5760   23.3070 C.3   212  LYS212      0.1093
    134  NZ        19.8540   20.7610   23.6740 N.3   212  LYS212     -0.1314
    135  N         12.4730   22.3220   27.9890 N.3   214  LYS214     -0.1245
    136  CA        12.4050   21.4850   29.2170 C.3   214  LYS214      0.1561
    137  C         11.5110   22.0580   30.3530 C.2   214  LYS214      0.2260
    138  O         11.4110   23.2810   30.5180 O.2   214  LYS214     -0.2867
    139  CB        13.8180   21.2050   29.7440 C.3   214  LYS214      0.0271
    140  CG        14.6880   20.4070   28.7800 C.3   214  LYS214      0.0035
    141  CD        16.1640   20.5680   29.0640 C.3   214  LYS214      0.0206
    142  CE        16.9720   19.6660   28.1340 C.3   214  LYS214      0.1093
    143  NZ        18.4610   19.8610   28.3370 N.3   214  LYS214     -0.1314
    144  N         11.0050   21.5950   34.6340 N.3   216  LYS216     -0.1245
    145  CA        11.4880   21.0210   35.8790 C.3   216  LYS216      0.1561
    146  C         10.6820   21.5880   37.0270 C.2   216  LYS216      0.2260
    147  O         10.2450   22.7560   36.9590 O.2   216  LYS216     -0.2867
    148  CB        12.9730   21.2670   36.0810 C.3   216  LYS216      0.0271
    149  CG        13.8470   20.2650   35.3520 C.3   216  LYS216      0.0035
    150  CD        15.3340   20.5560   35.5460 C.3   216  LYS216      0.0206
    151  CE        16.2280   19.4260   34.9980 C.3   216  LYS216      0.1093
    152  NZ        16.4700   19.5850   33.5360 N.3   216  LYS216     -0.1314
    153  N         17.9390   26.6990   36.5870 N.3   229  ALA229     -0.1231
    154  CA        19.1300   26.7260   35.7120 C.3   229  ALA229      0.1694
    155  C         19.0510   25.7900   34.5170 C.2   229  ALA229      0.2591
    156  O         19.8130   25.9510   33.5700 O.2   229  ALA229     -0.2718
    157  CB        20.3620   26.4290   36.5020 C.3   229  ALA229      0.0304
    158  N         18.1240   24.8360   34.5460 N.am  230  ARG230     -0.1980
    159  CA        18.1690   23.7090   33.6290 C.3   230  ARG230      0.1597
    160  C         16.7850   23.3700   33.0640 C.2   230  ARG230      0.2287
    161  O         16.5370   22.2290   32.6750 O.2   230  ARG230     -0.2864
    162  CB        18.7950   22.4680   34.3200 C.3   230  ARG230      0.0334
    163  CG        20.2350   22.6630   34.7880 C.3   230  ARG230      0.0492
    164  CD        20.6880   21.6350   35.8510 C.3   230  ARG230      0.2205
    165  NE        20.4170   20.2610   35.4250 N.pl3 230  ARG230     -0.0865
    166  CZ        20.6990   19.1660   36.1300 C.cat 230  ARG230      0.5346
    167  NH1       21.3040   19.2390   37.3160 N.pl3 230  ARG230      0.1354
    168  NH2       20.3790   17.9810   35.6350 N.pl3 230  ARG230      0.1354
    169  N         18.8390   28.3110   30.1940 N.3   331  LYS331     -0.1231
    170  CA        19.5270   27.5530   29.1530 C.3   331  LYS331      0.1693
    171  C         21.0410   27.6820   29.2880 C.2   331  LYS331      0.2591
    172  O         21.5280   28.6730   29.8700 O.2   331  LYS331     -0.2718
    173  CB        19.0790   27.9670   27.7410 C.3   331  LYS331      0.0285
    174  CG        19.1380   29.4500   27.4610 C.3   331  LYS331      0.0035
    175  CD        19.4320   29.6720   25.9930 C.3   331  LYS331      0.0206
    176  CE        20.5530   30.6060   25.8460 C.3   331  LYS331      0.1093
    177  NZ        21.3480   30.1480   24.7350 N.3   331  LYS331     -0.1314
    178  N         21.7750   26.6740   28.7810 N.am  332  ALA332     -0.1980
    179  CA        23.2390   26.7270   28.6280 C.3   332  ALA332      0.1597
    180  C         23.6420   27.8360   27.6490 C.2   332  ALA332      0.2287
    181  O         22.7710   28.3540   26.9370 O.2   332  ALA332     -0.2864
    182  CB        23.7500   25.4010   28.1570 C.3   332  ALA332      0.0319
    183  N         25.3700   28.5340   24.5400 N.3   334  ILE334     -0.1245
    184  CA        25.1330   28.6560   23.1150 C.3   334  ILE334      0.1561
    185  C         23.6520   28.9160   22.8780 C.2   334  ILE334      0.2260
    186  O         22.8370   28.1840   23.4110 O.2   334  ILE334     -0.2867
    187  CB        25.5820   27.3870   22.3710 C.3   334  ILE334      0.0252
    188  CG1       27.0520   27.5000   21.9980 C.3   334  ILE334      0.0019
    189  CG2       24.7460   27.1690   21.0830 C.3   334  ILE334      0.0019
    190  CD1       27.8030   26.2210   22.2190 C.3   334  ILE334      0.0001
    191  N         16.4310   26.8040   15.9110 N.3   375  ARG375     -0.1245
    192  CA        17.3960   26.6340   16.9970 C.3   375  ARG375      0.1563
    193  C         17.4960   27.8410   17.9450 C.2   375  ARG375      0.2260
    194  O         18.5580   28.1010   18.5230 O.2   375  ARG375     -0.2867
    195  CB        18.7810   26.2580   16.4520 C.3   375  ARG375      0.0307
    196  CG        18.9020   24.8100   16.0030 C.3   375  ARG375      0.0489
    197  CD        20.3340   24.4700   15.5880 C.3   375  ARG375      0.2205
    198  NE        21.3540   24.6660   16.6470 N.pl3 375  ARG375     -0.0865
    199  CZ        21.6850   23.7580   17.5830 C.cat 375  ARG375      0.5346
    200  NH1       21.0530   22.5820   17.6330 N.pl3 375  ARG375      0.1354
    201  NH2       22.6580   24.0160   18.4690 N.pl3 375  ARG375      0.1354
    202  N         16.2550   29.0660   21.4590 N.3   377  ARG377     -0.1245
    203  CA        15.5900   28.7530   22.7230 C.3   377  ARG377      0.1563
    204  C         14.6370   29.8730   23.1140 C.2   377  ARG377      0.2260
    205  O         14.7990   31.0490   22.7020 O.2   377  ARG377     -0.2867
    206  CB        16.5970   28.5630   23.8720 C.3   377  ARG377      0.0307
    207  CG        17.5950   27.4170   23.7320 C.3   377  ARG377      0.0489
    208  CD        16.9510   26.0210   23.7670 C.3   377  ARG377      0.2205
    209  NE        16.5780   25.5580   25.1040 N.pl3 377  ARG377     -0.0865
    210  CZ        17.4070   24.9560   25.9560 C.cat 377  ARG377      0.5346
    211  NH1       18.6720   24.7470   25.6310 N.pl3 377  ARG377      0.1354
    212  NH2       16.9640   24.5620   27.1430 N.pl3 377  ARG377      0.1354
@<TRIPOS>BOND
     1     2     3    1
     2     2     1    1
     3     3     4    2
     4   197   196    1
     5   197   198    1
     6   191   192    1
     7   196   195    1
     8   195   192    1
     9   198   199    2
    10    15    16    2
    11    15    14    1
    12   192   193    1
    13   199   200    1
    14   199   201    1
    15    13    14    1
    16    14    17    1
    17   193   194    2
    18    22    21    1
    19   114   115    1
    20    19    18    1
    21    19    20    1
    22    17    18    1
    23   115   118    1
    24   115   116    1
    25   120   122   ar
    26   120   119   ar
    27    21    20    2
    28    21    23    1
    29     7     8    2
    30     7     6    1
    31   118   119    1
    32   122   124   ar
    33   119   121   ar
    34     6     5    1
    35     6     9    1
    36   116   117    2
    37   116   126   am
    38   124   125    1
    39   124   123   ar
    40   121   123   ar
    41    11     9    1
    42   189   187    1
    43   126   127    1
    44   202   203    1
    45     9    10    1
    46    12    10    1
    47   188   190    1
    48   188   187    1
    49   187   184    1
    50    24    25    1
    51   127   130    1
    52   127   128    1
    53   205   204    2
    54   203   204    1
    55   203   206    1
    56    27    26    2
    57   113   111    1
    58   185   184    1
    59   185   186    2
    60   184   183    1
    61   130   131    1
    62   133   134    1
    63   133   132    1
    64   129   128    2
    65    26    25    1
    66    25    28    1
    67   207   208    1
    68   207   206    1
    69   208   209    1
    70   110   111    2
    71   110   109    1
    72   111   112    1
    73   131   132    1
    74    28    29    1
    75    28    30    1
    76   177   176    1
    77   109   108    1
    78   209   210    2
    79    41    39    1
    80    40    39    1
    81    39    38    2
    82    38    37    1
    83   211   210    1
    84    31    32    1
    85    37    36    1
    86   176   175    1
    87   210   212    1
    88   108   107    1
    89    97    98    2
    90    97    96    1
    91   175   174    1
    92    36    35    1
    93   103   104    1
    94    35    32    1
    95    34    33    2
    96    32    33    1
    97   104   107    1
    98   104   105    1
    99    96    95    1
   100    96    99    1
   101   101   100    1
   102   181   180    2
   103   100    99    1
   104   100   102    1
   105   174   173    1
   106   180   179    1
   107   173   170    1
   108   135   136    1
   109   105   106    2
   110   142   143    1
   111   142   141    1
   112   182   179    1
   113   179   178    1
   114   140   141    1
   115   140   139    1
   116   178   171   am
   117    87    85   ar
   118    93    92    1
   119   170   171    1
   120   170   169    1
   121   136   139    1
   122   136   137    1
   123   171   172    2
   124    85    86   ar
   125    85    84    1
   126    74    73    1
   127    90    89    1
   128    90    91    2
   129    94    92    1
   130    89    92    1
   131    89    88    1
   132   137   138    2
   133    84    81    1
   134    75    73    1
   135    73    70    1
   136    49    47   am
   137    48    47    2
   138    47    46    1
   139    81    80    1
   140    81    82    1
   141    70    69    1
   142    70    71    1
   143    42    43    1
   144    69    66   am
   145    46    43    1
   146    80    78   am
   147    82    83    2
   148    61    62    1
   149    61    60    1
   150   161   160    2
   151    64    62   am
   152    64    65    1
   153    68    65    1
   154   160   159    1
   155    71    76   am
   156    71    72    2
   157    43    44    1
   158    62    63    2
   159    76    77    1
   160    60    52   am
   161    66    65    1
   162    66    67    2
   163    45    44    2
   164   152   151    1
   165   156   155    2
   166   159   162    1
   167   159   158    1
   168    78    77    1
   169    78    79    2
   170   162   163    1
   171   155   158   am
   172   155   154    1
   173    52    53    2
   174    52    51    1
   175   144   145    1
   176   163   164    1
   177   151   150    1
   178   149   150    1
   179   149   148    1
   180   165   164    1
   181   165   166    2
   182    51    54    1
   183    51    50    1
   184   168   166    1
   185   154   157    1
   186   154   153    1
   187   145   148    1
   188   145   146    1
   189    54    55    1
   190   166   167    1
   191    57    55   ar
   192    57    59   ar
   193    55    56   ar
   194   147   146    2
   195    59    58   ar
   196    56    58   ar
