@<TRIPOS>MOLECULE
tmp/2xspA01.pdb
 161 153 0 0 0
SMALL
GASTEIGER

@<TRIPOS>ATOM
      1  N         10.3780  -23.0850   22.5460 N.3   107  ARG107     -0.1245
      2  CA        10.2410  -22.4350   21.2480 C.3   107  ARG107      0.1563
      3  C          9.1920  -21.3520   21.4020 C.2   107  ARG107      0.2260
      4  O          8.1150  -21.6190   21.9420 O.2   107  ARG107     -0.2867
      5  CB         9.7910  -23.4600   20.1850 C.3   107  ARG107      0.0307
      6  CG         9.6770  -22.8250   18.7980 C.3   107  ARG107      0.0489
      7  CD         9.5910  -23.8850   17.7100 C.3   107  ARG107      0.2205
      8  NE         8.3210  -24.6390   17.7110 N.pl3 107  ARG107     -0.0865
      9  CZ         8.2280  -25.9580   17.8790 C.cat 107  ARG107      0.5346
     10  NH1        9.3340  -26.6810   18.1160 N.pl3 107  ARG107      0.1354
     11  NH2        7.0310  -26.5590   17.8180 N.pl3 107  ARG107      0.1354
     12  N         18.3660  -21.2230   18.2560 N.3   144  ALA144     -0.1245
     13  CA        17.9750  -20.9950   16.8730 C.3   144  ALA144      0.1562
     14  C         17.1320  -19.7500   16.7770 C.2   144  ALA144      0.2260
     15  O         16.3010  -19.4920   17.6360 O.2   144  ALA144     -0.2867
     16  CB        17.2060  -22.1790   16.3330 C.3   144  ALA144      0.0290
     17  N         14.9630  -17.9600   13.6050 N.3   146  TYR146     -0.1241
     18  CA        14.6280  -18.3040   12.2480 C.3   146  TYR146      0.1605
     19  C         13.2360  -17.8690   11.9130 C.2   146  TYR146      0.2264
     20  O         12.4820  -17.4100   12.7940 O.2   146  TYR146     -0.2867
     21  CB        14.8030  -19.8100   12.0280 C.3   146  TYR146      0.0534
     22  CG        13.9740  -20.7610   12.8990 C.ar  146  TYR146     -0.0201
     23  CD1       14.3140  -21.0120   14.2440 C.ar  146  TYR146     -0.0009
     24  CD2       12.9140  -21.4850   12.3430 C.ar  146  TYR146     -0.0009
     25  CE1       13.5860  -21.9250   15.0160 C.ar  146  TYR146      0.0417
     26  CE2       12.1580  -22.4230   13.1060 C.ar  146  TYR146      0.0417
     27  CZ        12.4990  -22.6250   14.4380 C.ar  146  TYR146      0.1957
     28  OH        11.7920  -23.5710   15.1610 O.3   146  TYR146     -0.2866
     29  N          2.5090  -24.2710   14.2880 N.3   172  TYR172     -0.1241
     30  CA         3.9100  -24.4090   13.8810 C.3   172  TYR172      0.1605
     31  C          4.0570  -25.2990   12.6290 C.2   172  TYR172      0.2264
     32  O          3.2690  -26.2190   12.4080 O.2   172  TYR172     -0.2867
     33  CB         4.7650  -24.9730   15.0220 C.3   172  TYR172      0.0534
     34  CG         6.2360  -25.0350   14.6460 C.ar  172  TYR172     -0.0201
     35  CD1        6.9680  -23.8580   14.4490 C.ar  172  TYR172     -0.0009
     36  CD2        6.8850  -26.2700   14.4890 C.ar  172  TYR172     -0.0009
     37  CE1        8.3250  -23.8980   14.1260 C.ar  172  TYR172      0.0417
     38  CE2        8.2390  -26.3230   14.1240 C.ar  172  TYR172      0.0417
     39  CZ         8.9390  -25.1340   13.9570 C.ar  172  TYR172      0.1957
     40  OH        10.2630  -25.1530   13.6070 O.3   172  TYR172     -0.2866
     41  N          7.6410  -26.3130    9.7260 N.3   174  ASP174     -0.1239
     42  CA         8.9710  -25.9770    9.1820 C.3   174  ASP174      0.1674
     43  C          9.3200  -26.9870    8.1080 C.2   174  ASP174      0.2266
     44  O          8.4880  -27.8460    7.7670 O.2   174  ASP174     -0.2867
     45  CB        10.0260  -25.8580   10.3030 C.3   174  ASP174      0.1410
     46  CG        10.3760  -27.2000   10.9850 C.2   174  ASP174      0.3668
     47  OD1       10.2540  -28.2860   10.3810 O.co2 174  ASP174     -0.2456
     48  OD2       10.7920  -27.1660   12.1670 O.co2 174  ASP174     -0.2456
     49  N         11.2520  -29.4880    8.0860 N.3   176  GLN176     -0.1245
     50  CA        11.3640  -30.8660    8.5580 C.3   176  GLN176      0.1566
     51  C         10.0270  -31.6220    8.5810 C.2   176  GLN176      0.2260
     52  O          9.9980  -32.8340    8.8450 O.2   176  GLN176     -0.2867
     53  CB        12.0470  -30.9200    9.9390 C.3   176  GLN176      0.0367
     54  CG        13.3660  -30.1120    9.9890 C.3   176  GLN176      0.0905
     55  CD        14.3820  -30.5560    8.9290 C.2   176  GLN176      0.2608
     56  OE1       14.6030  -31.7610    8.7360 O.2   176  GLN176     -0.2717
     57  NE2       14.9850  -29.5880    8.2260 N.am  176  GLN176     -0.0878
     58  N          7.5810  -31.6490   10.7730 N.3   178  PRO178     -0.2116
     59  CA         7.5900  -32.4050   12.0260 C.3   178  PRO178      0.1372
     60  C          6.2600  -33.0700   12.3160 C.2   178  PRO178      0.2244
     61  O          5.1850  -32.4540   12.1860 O.2   178  PRO178     -0.2868
     62  CB         7.8600  -31.3160   13.0840 C.3   178  PRO178      0.0268
     63  CG         7.4440  -30.0360   12.4250 C.3   178  PRO178      0.0207
     64  CD         7.8830  -30.2220   11.0060 C.3   178  PRO178      0.0892
     65  N          5.8120  -34.5750   15.3110 N.3   180  ASP180     -0.1239
     66  CA         5.6640  -34.5340   16.7820 C.3   180  ASP180      0.1674
     67  C          4.6980  -33.4350   17.2580 C.2   180  ASP180      0.2266
     68  O          4.4140  -33.3070   18.4500 O.2   180  ASP180     -0.2867
     69  CB         7.0530  -34.3340   17.4410 C.3   180  ASP180      0.1410
     70  CG         7.6400  -32.9650   17.1440 C.2   180  ASP180      0.3668
     71  OD1        7.8040  -32.1460   18.0900 O.co2 180  ASP180     -0.2456
     72  OD2        7.9160  -32.6790   15.9670 O.co2 180  ASP180     -0.2456
     73  N         12.8220  -39.5370   24.2320 N.3   199  ASP199     -0.1239
     74  CA        12.2240  -38.3170   24.7550 C.3   199  ASP199      0.1674
     75  C         10.8880  -38.6400   25.4180 C.2   199  ASP199      0.2266
     76  O          9.8960  -38.8850   24.7400 O.2   199  ASP199     -0.2867
     77  CB        12.0550  -37.2950   23.6310 C.3   199  ASP199      0.1410
     78  CG        11.6130  -35.9270   24.1280 C.2   199  ASP199      0.3668
     79  OD1       11.0980  -35.8020   25.2600 O.co2 199  ASP199     -0.2456
     80  OD2       11.7670  -34.9620   23.3570 O.co2 199  ASP199     -0.2456
     81  N         11.1390  -22.2660    5.3240 N.3   213  GLU213     -0.1245
     82  CA        11.8620  -21.9730    6.5620 C.3   213  GLU213      0.1567
     83  C         13.1920  -21.3100    6.2290 C.2   213  GLU213      0.2260
     84  O         13.9900  -21.8690    5.4660 O.2   213  GLU213     -0.2867
     85  CB        12.0920  -23.2710    7.3190 C.3   213  GLU213      0.0388
     86  CG        12.9740  -23.1170    8.5270 C.3   213  GLU213      0.1160
     87  CD        13.2430  -24.4500    9.1960 C.2   213  GLU213      0.3649
     88  OE1       12.8650  -25.5230    8.6500 O.co2 213  GLU213     -0.2457
     89  OE2       13.8640  -24.4260   10.2640 O.co2 213  GLU213     -0.2457
     90  N         16.4380  -20.3840    8.0610 N.3   215  ASP215     -0.1239
     91  CA        17.1600  -20.5020    9.3270 C.3   215  ASP215      0.1674
     92  C         18.2660  -19.4590    9.3430 C.2   215  ASP215      0.2266
     93  O         19.3650  -19.6880    8.8410 O.2   215  ASP215     -0.2867
     94  CB        17.7180  -21.9220    9.5440 C.3   215  ASP215      0.1410
     95  CG        16.6430  -22.9450    9.7660 C.2   215  ASP215      0.3668
     96  OD1       15.6540  -22.6720   10.4840 O.co2 215  ASP215     -0.2456
     97  OD2       16.7870  -24.0370    9.2080 O.co2 215  ASP215     -0.2456
     98  N         21.4450  -20.9640   13.4610 N.3   218  GLU218     -0.1245
     99  CA        21.3900  -22.1470   14.3000 C.3   218  GLU218      0.1567
    100  C         22.7980  -22.3180   14.8080 C.2   218  GLU218      0.2260
    101  O         23.7220  -22.3890   14.0060 O.2   218  GLU218     -0.2867
    102  CB        20.9950  -23.3640   13.4770 C.3   218  GLU218      0.0388
    103  CG        19.5070  -23.3590   13.0470 C.3   218  GLU218      0.1160
    104  CD        19.1590  -24.6060   12.2980 C.2   218  GLU218      0.3649
    105  OE1       19.5040  -24.6950   11.0930 O.co2 218  GLU218     -0.2457
    106  OE2       18.5420  -25.5280   12.9060 O.co2 218  GLU218     -0.2457
    107  N         14.3580  -20.2910   19.5870 N.3   372  SER372     -0.1217
    108  CA        14.2780  -21.5650   20.3310 C.3   372  SER372      0.1889
    109  C         15.6010  -21.9760   20.9210 C.2   372  SER372      0.2288
    110  O         16.6640  -21.4930   20.5230 O.2   372  SER372     -0.2866
    111  CB        13.7570  -22.7250   19.4500 C.3   372  SER372      0.2089
    112  OG        14.6490  -22.9450   18.3670 O.3   372  SER372     -0.2183
    113  N         17.1690  -25.9210   21.9210 N.3   374  TRP374     -0.1227
    114  CA        16.8160  -27.3490   21.8510 C.3   374  TRP374      0.1737
    115  C         18.0400  -28.2640   21.8240 C.2   374  TRP374      0.2595
    116  O         19.1560  -27.8480   21.4580 O.2   374  TRP374     -0.2718
    117  CB        15.8760  -27.6380   20.6680 C.3   374  TRP374      0.0564
    118  CG        16.3970  -27.2910   19.2820 C.ar  374  TRP374      0.0003
    119  CD1       16.5580  -26.0350   18.7400 C.ar  374  TRP374      0.0946
    120  CD2       16.7500  -28.2130   18.2500 C.ar  374  TRP374      0.0152
    121  NE1       17.0030  -26.1280   17.4370 N.ar  374  TRP374     -0.2442
    122  CE2       17.1270  -27.4530   17.1090 C.ar  374  TRP374      0.0810
    123  CE3       16.7640  -29.6140   18.1640 C.ar  374  TRP374      0.0012
    124  CZ2       17.5370  -28.0560   15.9000 C.ar  374  TRP374      0.0191
    125  CZ3       17.1770  -30.2050   16.9680 C.ar  374  TRP374      0.0001
    126  CH2       17.5730  -29.4080   15.8540 C.ar  374  TRP374      0.0015
    127  N         17.8410  -29.4960   22.3060 N.am  375  ASP375     -0.1960
    128  CA        18.7470  -30.5890   21.9770 C.3   375  ASP375      0.1840
    129  C         18.0700  -31.5410   20.9870 C.2   375  ASP375      0.2622
    130  O         16.8550  -31.4460   20.7350 O.2   375  ASP375     -0.2715
    131  CB        19.3310  -31.2990   23.2210 C.3   375  ASP375      0.1450
    132  CG        18.2730  -31.8910   24.1540 C.2   375  ASP375      0.3671
    133  OD1       18.6560  -32.2890   25.2910 O.co2 375  ASP375     -0.2456
    134  OD2       17.0930  -31.9890   23.7760 O.co2 375  ASP375     -0.2456
    135  N         18.8490  -32.4630   20.4330 N.am  376  ASP376     -0.1957
    136  CA        18.4820  -33.1900   19.2000 C.3   376  ASP376      0.1840
    137  C         18.4510  -34.7150   19.4000 C.2   376  ASP376      0.2622
    138  O         19.4950  -35.3590   19.4310 O.2   376  ASP376     -0.2715
    139  CB        19.5340  -32.8200   18.1330 C.3   376  ASP376      0.1450
    140  CG        19.3040  -33.4850   16.7890 C.2   376  ASP376      0.3671
    141  OD1       20.1990  -33.3030   15.9310 O.co2 376  ASP376     -0.2456
    142  OD2       18.2830  -34.1920   16.5900 O.co2 376  ASP376     -0.2456
    143  N         17.2580  -35.2890   19.5120 N.am  377  HIS377     -0.1959
    144  CA        17.1360  -36.7180   19.7790 C.3   377  HIS377      0.1787
    145  C         17.4580  -37.5460   18.5400 C.2   377  HIS377      0.2620
    146  O         17.9100  -38.6890   18.6500 O.2   377  HIS377     -0.2715
    147  CB        15.7400  -37.0400   20.3310 C.3   377  HIS377      0.0785
    148  CG        15.5810  -36.6530   21.7660 C.ar  377  HIS377      0.0821
    149  ND1       15.7510  -37.5500   22.7970 N.ar  377  HIS377     -0.2267
    150  CD2       15.2980  -35.4610   22.3400 C.ar  377  HIS377      0.1154
    151  CE1       15.5740  -36.9240   23.9480 C.ar  377  HIS377      0.1986
    152  NE2       15.3030  -35.6560   23.6980 N.ar  377  HIS377     -0.2212
    153  N         17.3220  -36.9320   17.3710 N.am  378  GLU378     -0.1977
    154  CA        17.5530  -37.6460   16.1200 C.3   378  GLU378      0.1602
    155  C         19.0350  -37.7780   15.7440 C.2   378  GLU378      0.2287
    156  O         19.4650  -38.8630   15.3730 O.2   378  GLU378     -0.2864
    157  CB        16.7310  -37.0260   14.9860 C.3   378  GLU378      0.0415
    158  CG        16.9800  -37.6640   13.6190 C.3   378  GLU378      0.1163
    159  CD        15.7670  -37.5950   12.6920 C.2   378  GLU378      0.3649
    160  OE1       15.8920  -37.0050   11.5930 O.co2 378  GLU378     -0.2457
    161  OE2       14.6930  -38.1350   13.0570 O.co2 378  GLU378     -0.2457
@<TRIPOS>BOND
     1    81    82    1
     2    84    83    2
     3    83    82    1
     4    82    85    1
     5    85    86    1
     6    44    43    2
     7    90    91    1
     8    49    50    1
     9    43    42    1
    10    57    55   am
    11    86    87    1
    12    50    51    1
    13    50    53    1
    14    51    52    2
    15    88    87   ar
    16    56    55    2
    17    93    92    2
    18    55    54    1
    19    42    41    1
    20    42    45    1
    21    87    89   ar
    22    97    95   ar
    23    91    92    1
    24    91    94    1
    25    94    95    1
    26    95    96   ar
    27    53    54    1
    28    45    46    1
    29    47    46   ar
    30    58    64    1
    31    58    59    1
    32    46    48   ar
    33    64    63    1
    34   105   104   ar
    35   160   159   ar
    36    19    18    1
    37    19    20    2
    38    59    60    1
    39    59    62    1
    40    21    18    1
    41    21    22    1
    42    61    60    2
    43    18    17    1
    44   104   106   ar
    45   104   103    1
    46    24    22   ar
    47    24    26   ar
    48    32    31    2
    49    63    62    1
    50    31    30    1
    51   159   161   ar
    52   159   158    1
    53    22    23   ar
    54   103   102    1
    55    26    27   ar
    56    98    99    1
    57   102    99    1
    58    40    39    1
    59   158   157    1
    60    30    29    1
    61    30    33    1
    62    39    38   ar
    63    39    37   ar
    64   101   100    2
    65    38    36   ar
    66    37    35   ar
    67    23    25   ar
    68    99   100    1
    69    27    25   ar
    70    27    28    1
    71    35    34   ar
    72    36    34   ar
    73    34    33    1
    74   157   154    1
    75    65    66    1
    76   156   155    2
    77   155   154    1
    78   126   124   ar
    79   126   125   ar
    80   124   122   ar
    81   141   140   ar
    82    72    70   ar
    83   154   153    1
    84    16    13    1
    85   142   140   ar
    86    14    13    1
    87    14    15    2
    88    66    67    1
    89    66    69    1
    90   140   139    1
    91    13    12    1
    92   125   123   ar
    93   122   121   ar
    94   122   120   ar
    95    70    69    1
    96    70    71   ar
    97    67    68    2
    98   153   145   am
    99   121   119   ar
   100     7     8    1
   101     7     6    1
   102     8     9    2
   103    11     9    1
   104     9    10    1
   105   139   136    1
   106   123   120   ar
   107   120   118   ar
   108   112   111    1
   109   145   146    2
   110   145   144    1
   111   119   118   ar
   112     6     5    1
   113   136   137    1
   114   136   135    1
   115   118   117    1
   116   137   138    2
   117   137   143   am
   118   111   108    1
   119   143   144    1
   120   107   108    1
   121   144   147    1
   122     5     2    1
   123   147   148    1
   124   108   109    1
   125   135   129   am
   126   110   109    2
   127   117   114    1
   128   130   129    2
   129   129   128    1
   130     2     3    1
   131     2     1    1
   132     3     4    2
   133   116   115    2
   134   148   150   ar
   135   148   149   ar
   136   115   114    1
   137   115   127   am
   138   114   113    1
   139   128   127    1
   140   128   131    1
   141   150   152   ar
   142   149   151   ar
   143   131   132    1
   144    80    78   ar
   145    77    78    1
   146    77    74    1
   147   152   151   ar
   148   134   132   ar
   149    78    79   ar
   150   132   133   ar
   151    73    74    1
   152    76    75    2
   153    74    75    1
