@<TRIPOS>MOLECULE
tmp/2xspA02.pdb
 152 143 0 0 0
SMALL
GASTEIGER

@<TRIPOS>ATOM
      1  N         11.2520  -29.4880    8.0860 N.3   176  GLN176     -0.1245
      2  CA        11.3640  -30.8660    8.5580 C.3   176  GLN176      0.1566
      3  C         10.0270  -31.6220    8.5810 C.2   176  GLN176      0.2260
      4  O          9.9980  -32.8340    8.8450 O.2   176  GLN176     -0.2867
      5  CB        12.0470  -30.9200    9.9390 C.3   176  GLN176      0.0367
      6  CG        13.3660  -30.1120    9.9890 C.3   176  GLN176      0.0905
      7  CD        14.3820  -30.5560    8.9290 C.2   176  GLN176      0.2608
      8  OE1       14.6030  -31.7610    8.7360 O.2   176  GLN176     -0.2717
      9  NE2       14.9850  -29.5880    8.2260 N.am  176  GLN176     -0.0878
     10  N         11.1390  -22.2660    5.3240 N.3   213  GLU213     -0.1245
     11  CA        11.8620  -21.9730    6.5620 C.3   213  GLU213      0.1567
     12  C         13.1920  -21.3100    6.2290 C.2   213  GLU213      0.2260
     13  O         13.9900  -21.8690    5.4660 O.2   213  GLU213     -0.2867
     14  CB        12.0920  -23.2710    7.3190 C.3   213  GLU213      0.0388
     15  CG        12.9740  -23.1170    8.5270 C.3   213  GLU213      0.1160
     16  CD        13.2430  -24.4500    9.1960 C.2   213  GLU213      0.3649
     17  OE1       12.8650  -25.5230    8.6500 O.co2 213  GLU213     -0.2457
     18  OE2       13.8640  -24.4260   10.2640 O.co2 213  GLU213     -0.2457
     19  N         16.4380  -20.3840    8.0610 N.3   215  ASP215     -0.1239
     20  CA        17.1600  -20.5020    9.3270 C.3   215  ASP215      0.1674
     21  C         18.2660  -19.4590    9.3430 C.2   215  ASP215      0.2266
     22  O         19.3650  -19.6880    8.8410 O.2   215  ASP215     -0.2867
     23  CB        17.7180  -21.9220    9.5440 C.3   215  ASP215      0.1410
     24  CG        16.6430  -22.9450    9.7660 C.2   215  ASP215      0.3668
     25  OD1       15.6540  -22.6720   10.4840 O.co2 215  ASP215     -0.2456
     26  OD2       16.7870  -24.0370    9.2080 O.co2 215  ASP215     -0.2456
     27  N         21.4450  -20.9640   13.4610 N.3   218  GLU218     -0.1245
     28  CA        21.3900  -22.1470   14.3000 C.3   218  GLU218      0.1567
     29  C         22.7980  -22.3180   14.8080 C.2   218  GLU218      0.2260
     30  O         23.7220  -22.3890   14.0060 O.2   218  GLU218     -0.2867
     31  CB        20.9950  -23.3640   13.4770 C.3   218  GLU218      0.0388
     32  CG        19.5070  -23.3590   13.0470 C.3   218  GLU218      0.1160
     33  CD        19.1590  -24.6060   12.2980 C.2   218  GLU218      0.3649
     34  OE1       19.5040  -24.6950   11.0930 O.co2 218  GLU218     -0.2457
     35  OE2       18.5420  -25.5280   12.9060 O.co2 218  GLU218     -0.2457
     36  N         20.8400  -21.0440    6.9360 N.3   227  THR227     -0.1218
     37  CA        20.3080  -22.0370    5.9780 C.3   227  THR227      0.1862
     38  C         18.8680  -21.7250    5.5190 C.2   227  THR227      0.2287
     39  O         17.9150  -21.9760    6.2590 O.2   227  THR227     -0.2866
     40  CB        20.2730  -23.4360    6.6370 C.3   227  THR227      0.1770
     41  OG1       21.5360  -23.7260    7.2850 O.3   227  THR227     -0.2211
     42  CG2       20.0220  -24.5350    5.5940 C.3   227  THR227      0.0375
     43  N         15.6320  -23.0170    3.5060 N.3   229  HIS229     -0.1241
     44  CA        15.0390  -24.2770    3.0780 C.3   229  HIS229      0.1621
     45  C         13.7140  -23.9070    2.4000 C.2   229  HIS229      0.2264
     46  O         12.9610  -23.0610    2.9300 O.2   229  HIS229     -0.2867
     47  CB        14.6260  -25.1410    4.2590 C.3   229  HIS229      0.0745
     48  CG        15.7210  -25.5560    5.1990 C.ar  229  HIS229      0.0817
     49  ND1       16.1230  -26.8720    5.3260 N.ar  229  HIS229     -0.2268
     50  CD2       16.3430  -24.8780    6.1910 C.ar  229  HIS229      0.1154
     51  CE1       17.0260  -26.9590    6.2920 C.ar  229  HIS229      0.1986
     52  NE2       17.1730  -25.7660    6.8360 N.ar  229  HIS229     -0.2212
     53  N         13.3610  -39.0660    2.5990 N.3   250  ARG250     -0.1245
     54  CA        13.9250  -37.7370    2.8980 C.3   250  ARG250      0.1563
     55  C         13.8670  -36.7670    1.7230 C.2   250  ARG250      0.2260
     56  O         13.5130  -35.5860    1.9060 O.2   250  ARG250     -0.2867
     57  CB        15.3690  -37.8560    3.4170 C.3   250  ARG250      0.0307
     58  CG        15.9790  -36.4980    3.8300 C.3   250  ARG250      0.0489
     59  CD        17.3270  -36.6500    4.5560 C.3   250  ARG250      0.2205
     60  NE        17.7870  -35.3670    5.1000 N.pl3 250  ARG250     -0.0865
     61  CZ        17.3960  -34.8510    6.2670 C.cat 250  ARG250      0.5346
     62  NH1       16.5330  -35.4990    7.0400 N.pl3 250  ARG250      0.1354
     63  NH2       17.8740  -33.6760    6.6720 N.pl3 250  ARG250      0.1354
     64  N         14.7350  -30.7940    3.2890 N.3   257  LYS257     -0.1231
     65  CA        15.1350  -30.9830    4.6880 C.3   257  LYS257      0.1693
     66  C         16.5500  -30.5150    4.9860 C.2   257  LYS257      0.2592
     67  O         16.8370  -30.1130    6.1160 O.2   257  LYS257     -0.2718
     68  CB        14.9720  -32.4560    5.1130 C.3   257  LYS257      0.0285
     69  CG        13.4930  -32.8240    5.2320 C.3   257  LYS257      0.0035
     70  CD        13.2110  -34.1240    5.9850 C.3   257  LYS257      0.0206
     71  CE        11.7110  -34.4020    5.8540 C.3   257  LYS257      0.1093
     72  NZ        11.0150  -34.8400    7.0790 N.3   257  LYS257     -0.1314
     73  N         17.4410  -30.5980    4.0020 N.am  258  ASP258     -0.1974
     74  CA        18.8560  -30.3070    4.2680 C.3   258  ASP258      0.1709
     75  C         19.1010  -28.8110    4.1930 C.2   258  ASP258      0.2293
     76  O         19.9130  -28.2490    4.9670 O.2   258  ASP258     -0.2864
     77  CB        19.7590  -31.0070    3.2360 C.3   258  ASP258      0.1436
     78  CG        19.7810  -32.5450    3.3910 C.2   258  ASP258      0.3671
     79  OD1       19.2870  -33.0760    4.4100 O.co2 258  ASP258     -0.2456
     80  OD2       20.2960  -33.2250    2.4760 O.co2 258  ASP258     -0.2456
     81  N         22.9550  -24.6400    3.1740 N.3   261  ASP261     -0.1239
     82  CA        23.5980  -24.1170    4.3860 C.3   261  ASP261      0.1674
     83  C         24.9560  -23.4600    4.1590 C.2   261  ASP261      0.2266
     84  O         25.7310  -23.8910    3.3000 O.2   261  ASP261     -0.2867
     85  CB        23.8020  -25.2740    5.3900 C.3   261  ASP261      0.1410
     86  CG        24.6820  -26.4050    4.8300 C.2   261  ASP261      0.3668
     87  OD1       24.3740  -26.9440    3.7350 O.co2 261  ASP261     -0.2456
     88  OD2       25.6780  -26.7520    5.5130 O.co2 261  ASP261     -0.2456
     89  N         17.1690  -25.9210   21.9210 N.3   374  TRP374     -0.1241
     90  CA        16.8160  -27.3490   21.8510 C.3   374  TRP374      0.1605
     91  C         18.0400  -28.2640   21.8240 C.2   374  TRP374      0.2264
     92  O         19.1560  -27.8480   21.4580 O.2   374  TRP374     -0.2867
     93  CB        15.8760  -27.6380   20.6680 C.3   374  TRP374      0.0550
     94  CG        16.3970  -27.2910   19.2820 C.ar  374  TRP374      0.0003
     95  CD1       16.5580  -26.0350   18.7400 C.ar  374  TRP374      0.0946
     96  CD2       16.7500  -28.2130   18.2500 C.ar  374  TRP374      0.0152
     97  NE1       17.0030  -26.1280   17.4370 N.ar  374  TRP374     -0.2442
     98  CE2       17.1270  -27.4530   17.1090 C.ar  374  TRP374      0.0810
     99  CE3       16.7640  -29.6140   18.1640 C.ar  374  TRP374      0.0012
    100  CZ2       17.5370  -28.0560   15.9000 C.ar  374  TRP374      0.0191
    101  CZ3       17.1770  -30.2050   16.9680 C.ar  374  TRP374      0.0001
    102  CH2       17.5730  -29.4080   15.8540 C.ar  374  TRP374      0.0015
    103  N         18.8490  -32.4630   20.4330 N.3   376  ASP376     -0.1239
    104  CA        18.4820  -33.1900   19.2000 C.3   376  ASP376      0.1674
    105  C         18.4510  -34.7150   19.4000 C.2   376  ASP376      0.2266
    106  O         19.4950  -35.3590   19.4310 O.2   376  ASP376     -0.2867
    107  CB        19.5340  -32.8200   18.1330 C.3   376  ASP376      0.1410
    108  CG        19.3040  -33.4850   16.7890 C.2   376  ASP376      0.3668
    109  OD1       20.1990  -33.3030   15.9310 O.co2 376  ASP376     -0.2456
    110  OD2       18.2830  -34.1920   16.5900 O.co2 376  ASP376     -0.2456
    111  N         19.8050  -36.6880   15.8350 N.3   379  ALA379     -0.1245
    112  CA        21.1860  -36.6770   15.3500 C.3   379  ALA379      0.1562
    113  C         22.1860  -36.0260   16.3060 C.2   379  ALA379      0.2260
    114  O         23.3340  -35.7900   15.9200 O.2   379  ALA379     -0.2867
    115  CB        21.2750  -36.0070   13.9470 C.3   379  ALA379      0.0290
    116  N         25.3190  -32.7290   13.1300 N.3   383  TRP383     -0.1241
    117  CA        25.2540  -32.0200   11.8450 C.3   383  TRP383      0.1605
    118  C         25.6740  -30.5520   11.9550 C.2   383  TRP383      0.2264
    119  O         26.0530  -29.9250   10.9600 O.2   383  TRP383     -0.2867
    120  CB        23.8210  -32.1130   11.2990 C.3   383  TRP383      0.0550
    121  CG        22.8070  -31.5440   12.2190 C.ar  383  TRP383      0.0003
    122  CD1       22.1250  -32.2020   13.2260 C.ar  383  TRP383      0.0946
    123  CD2       22.3810  -30.1920   12.2630 C.ar  383  TRP383      0.0152
    124  NE1       21.2840  -31.3300   13.8710 N.ar  383  TRP383     -0.2442
    125  CE2       21.4150  -30.0900   13.3000 C.ar  383  TRP383      0.0810
    126  CE3       22.6830  -29.0590   11.4900 C.ar  383  TRP383      0.0012
    127  CZ2       20.7520  -28.8940   13.5960 C.ar  383  TRP383      0.0191
    128  CZ3       22.0460  -27.8530   11.7970 C.ar  383  TRP383      0.0001
    129  CH2       21.0870  -27.7870   12.8510 C.ar  383  TRP383      0.0015
    130  N         29.7780  -35.3710   10.5270 N.3   388  TYR388     -0.1241
    131  CA        28.4630  -35.9030   10.1990 C.3   388  TYR388      0.1605
    132  C         28.3570  -36.1920    8.6950 C.2   388  TYR388      0.2264
    133  O         28.7190  -35.3500    7.8750 O.2   388  TYR388     -0.2867
    134  CB        27.3660  -34.9230   10.6410 C.3   388  TYR388      0.0534
    135  CG        25.9660  -35.4320   10.4730 C.ar  388  TYR388     -0.0201
    136  CD1       25.3840  -36.2810   11.4180 C.ar  388  TYR388     -0.0009
    137  CD2       25.2140  -35.0720    9.3550 C.ar  388  TYR388     -0.0009
    138  CE1       24.0660  -36.7530   11.2440 C.ar  388  TYR388      0.0417
    139  CE2       23.9150  -35.5390    9.1720 C.ar  388  TYR388      0.0417
    140  CZ        23.3480  -36.3660   10.1160 C.ar  388  TYR388      0.1957
    141  OH        22.0510  -36.7900    9.9040 O.3   388  TYR388     -0.2866
    142  N         31.8560  -30.3040   10.5870 N.3   401  ARG401     -0.1245
    143  CA        31.0960  -29.0600   10.7850 C.3   401  ARG401      0.1563
    144  C         31.4930  -28.3370   12.0540 C.2   401  ARG401      0.2260
    145  O         31.1270  -27.1690   12.2470 O.2   401  ARG401     -0.2867
    146  CB        29.5880  -29.3290   10.7720 C.3   401  ARG401      0.0307
    147  CG        29.0850  -29.9380    9.4700 C.3   401  ARG401      0.0489
    148  CD        28.7240  -31.4410    9.7120 C.3   401  ARG401      0.2205
    149  NE        28.2940  -32.1260    8.4800 N.pl3 401  ARG401     -0.0865
    150  CZ        27.1330  -31.9700    7.8570 C.cat 401  ARG401      0.5346
    151  NH1       26.1950  -31.1310    8.3110 N.pl3 401  ARG401      0.1354
    152  NH2       26.9070  -32.6660    6.7340 N.pl3 401  ARG401      0.1354
@<TRIPOS>BOND
     1    55    56    2
     2    55    54    1
     3    45    46    2
     4    45    44    1
     5    80    78   ar
     6    53    54    1
     7    54    57    1
     8    44    43    1
     9    44    47    1
    10    81    82    1
    11    77    78    1
    12    77    74    1
    13    64    65    1
    14    84    83    2
    15    78    79   ar
    16    57    58    1
    17    87    86   ar
    18    58    59    1
    19    73    74    1
    20    73    66   am
    21    83    82    1
    22    75    74    1
    23    75    76    2
    24    47    48    1
    25    82    85    1
    26    59    60    1
    27    65    66    1
    28    65    68    1
    29    86    85    1
    30    86    88   ar
    31    66    67    2
    32    60    61    2
    33    68    69    1
    34    48    49   ar
    35    48    50   ar
    36    69    70    1
    37    10    11    1
    38    49    51   ar
    39    13    12    2
    40    38    37    1
    41    38    39    2
    42    42    40    1
    43    71    70    1
    44    71    72    1
    45    37    40    1
    46    37    36    1
    47    50    52   ar
    48    12    11    1
    49    61    63    1
    50    61    62    1
    51    51    52   ar
    52    11    14    1
    53    40    41    1
    54   152   150    1
    55    14    15    1
    56   150   151    1
    57   150   149    2
    58   133   132    2
    59    19    20    1
    60     1     2    1
    61     9     7   am
    62   149   148    1
    63    15    16    1
    64     2     3    1
    65     2     5    1
    66     3     4    2
    67    17    16   ar
    68   132   131    1
    69     8     7    2
    70    22    21    2
    71     7     6    1
    72   139   137   ar
    73   139   140   ar
    74    16    18   ar
    75    26    24   ar
    76    20    21    1
    77    20    23    1
    78   137   135   ar
    79   147   148    1
    80   147   146    1
    81    23    24    1
    82    24    25   ar
    83   141   140    1
    84     5     6    1
    85   140   138   ar
    86   131   130    1
    87   131   134    1
    88   135   134    1
    89   135   136   ar
    90   142   143    1
    91   146   143    1
    92   143   144    1
    93   119   118    2
    94    34    33   ar
    95   138   136   ar
    96   120   117    1
    97   120   121    1
    98   126   128   ar
    99   126   123   ar
   100   128   129   ar
   101   117   118    1
   102   117   116    1
   103   144   145    2
   104   121   123   ar
   105   121   122   ar
   106   123   125   ar
   107    33    35   ar
   108    33    32    1
   109   129   127   ar
   110    32    31    1
   111   122   124   ar
   112   125   127   ar
   113   125   124   ar
   114    27    28    1
   115    31    28    1
   116   115   112    1
   117    30    29    2
   118    28    29    1
   119   112   111    1
   120   112   113    1
   121   102   100   ar
   122   102   101   ar
   123   100    98   ar
   124   114   113    2
   125   109   108   ar
   126   110   108   ar
   127   108   107    1
   128   101    99   ar
   129    98    97   ar
   130    98    96   ar
   131    97    95   ar
   132   107   104    1
   133    99    96   ar
   134    96    94   ar
   135    95    94   ar
   136   104   105    1
   137   104   103    1
   138    94    93    1
   139   105   106    2
   140    93    90    1
   141    92    91    2
   142    91    90    1
   143    90    89    1
