@<TRIPOS>MOLECULE
tmp/2xsqA00.pdb
 109 104 0 0 0
SMALL
GASTEIGER

@<TRIPOS>ATOM
      1  N         63.7300   34.2730   22.0650 N.3    19  VAL19      -0.1245
      2  CA        64.1600   34.8890   20.8090 C.3    19  VAL19       0.1561
      3  C         62.9300   35.1480   19.9690 C.2    19  VAL19       0.2260
      4  O         61.9590   34.3720   20.0220 O.2    19  VAL19      -0.2867
      5  CB        65.1420   34.0120   19.9970 C.3    19  VAL19       0.0252
      6  CG1       66.4950   34.0200   20.6340 C.3    19  VAL19       0.0019
      7  CG2       64.6260   32.5790   19.8380 C.3    19  VAL19       0.0019
      8  N         61.5890   36.4960   15.9840 N.3    21  HIS21      -0.1241
      9  CA        61.8980   36.7640   14.5740 C.3    21  HIS21       0.1621
     10  C         60.6330   37.1530   13.8270 C.2    21  HIS21       0.2264
     11  O         59.5330   36.7910   14.2380 O.2    21  HIS21      -0.2867
     12  CB        62.5790   35.5560   13.9310 C.3    21  HIS21       0.0745
     13  CG        63.8530   35.1690   14.6100 C.ar   21  HIS21       0.0817
     14  ND1       63.9120   34.1950   15.5870 N.ar   21  HIS21      -0.2268
     15  CD2       65.1070   35.6700   14.5000 C.ar   21  HIS21       0.1154
     16  CE1       65.1550   34.1020   16.0320 C.ar   21  HIS21       0.1986
     17  NE2       65.9000   34.9800   15.3840 N.ar   21  HIS21      -0.2212
     18  N         72.4640   34.6120    6.8610 N.3    47  ARG47      -0.1231
     19  CA        73.1080   34.7760    8.1620 C.3    47  ARG47       0.1694
     20  C         74.5990   34.4570    8.0810 C.2    47  ARG47       0.2592
     21  O         75.0630   33.7890    7.1470 O.2    47  ARG47      -0.2718
     22  CB        72.4740   33.8150    9.1710 C.3    47  ARG47       0.0321
     23  CG        70.9590   33.9910    9.4040 C.3    47  ARG47       0.0489
     24  CD        70.3310   32.6890    9.9250 C.3    47  ARG47       0.2205
     25  NE        71.1870   32.0230   10.9030 N.pl3  47  ARG47      -0.0865
     26  CZ        71.2670   32.3390   12.1940 C.cat  47  ARG47       0.5346
     27  NH1       70.5030   33.2980   12.7140 N.pl3  47  ARG47       0.1354
     28  NH2       72.1130   31.6820   12.9870 N.pl3  47  ARG47       0.1354
     29  N         75.3180   34.9040    9.1080 N.am   48  PHE48      -0.1976
     30  CA        76.7560   34.6420    9.2840 C.3    48  PHE48       0.1639
     31  C         77.1250   33.1570    9.1840 C.2    48  PHE48       0.2290
     32  O         78.2460   32.8190    8.7940 O.2    48  PHE48      -0.2864
     33  CB        77.2410   35.2010   10.6340 C.3    48  PHE48       0.0560
     34  CG        76.6750   34.4810   11.8290 C.ar   48  PHE48      -0.0200
     35  CD1       77.3770   33.4350   12.4280 C.ar   48  PHE48      -0.0042
     36  CD2       75.4430   34.8250   12.3410 C.ar   48  PHE48      -0.0042
     37  CE1       76.8450   32.7560   13.5190 C.ar   48  PHE48      -0.0003
     38  CE2       74.9000   34.1420   13.4530 C.ar   48  PHE48      -0.0003
     39  CZ        75.6040   33.1130   14.0270 C.ar   48  PHE48      -0.0000
     40  N         67.5470   32.8010    7.3260 N.3    53  GLY53      -0.1210
     41  CA        66.6600   32.9770    8.4480 C.3    53  GLY53       0.1956
     42  C         65.8970   34.2800    8.3730 C.2    53  GLY53       0.2611
     43  O         65.9240   34.9870    7.3570 O.2    53  GLY53      -0.2717
     44  N         65.1970   34.5720    9.4550 N.am   54  PHE54      -0.1976
     45  CA        64.4400   35.8030    9.5830 C.3    54  PHE54       0.1639
     46  C         65.1390   36.8090   10.4860 C.2    54  PHE54       0.2290
     47  O         65.9010   36.4390   11.3960 O.2    54  PHE54      -0.2864
     48  CB        63.0160   35.4950   10.0900 C.3    54  PHE54       0.0560
     49  CG        62.1600   34.7710    9.0760 C.ar   54  PHE54      -0.0200
     50  CD1       61.6080   35.4570    8.0090 C.ar   54  PHE54      -0.0042
     51  CD2       61.9270   33.3920    9.1820 C.ar   54  PHE54      -0.0042
     52  CE1       60.8200   34.8040    7.0510 C.ar   54  PHE54      -0.0003
     53  CE2       61.1470   32.7260    8.2260 C.ar   54  PHE54      -0.0003
     54  CZ        60.5910   33.4330    7.1650 C.ar   54  PHE54      -0.0000
     55  N         67.4940   38.0080   20.3660 N.3    58  PHE58      -0.1241
     56  CA        67.1680   37.7140   21.7580 C.3    58  PHE58       0.1605
     57  C         66.5330   38.8720   22.4970 C.2    58  PHE58       0.2264
     58  O         66.9940   40.0210   22.4000 O.2    58  PHE58      -0.2867
     59  CB        68.4120   37.2880   22.5210 C.3    58  PHE58       0.0534
     60  CG        68.8190   35.8640   22.2670 C.ar   58  PHE58      -0.0203
     61  CD1       68.1730   34.8210   22.9140 C.ar   58  PHE58      -0.0042
     62  CD2       69.8550   35.5730   21.3930 C.ar   58  PHE58      -0.0042
     63  CE1       68.5520   33.4940   22.6750 C.ar   58  PHE58      -0.0003
     64  CE2       70.2400   34.2580   21.1600 C.ar   58  PHE58      -0.0003
     65  CZ        69.5860   33.2220   21.8050 C.ar   58  PHE58      -0.0000
     66  N         65.9340   27.7410   24.8590 N.3   103  VAL103     -0.1245
     67  CA        65.5180   28.8830   24.0470 C.3   103  VAL103      0.1561
     68  C         64.1290   28.6070   23.5160 C.2   103  VAL103      0.2260
     69  O         63.8630   27.5080   23.0180 O.2   103  VAL103     -0.2867
     70  CB        66.4540   29.1030   22.8510 C.3   103  VAL103      0.0252
     71  CG1       65.9190   30.2470   21.9390 C.3   103  VAL103      0.0019
     72  CG2       67.8830   29.3980   23.3120 C.3   103  VAL103      0.0019
     73  N         61.5160   30.1840   20.6690 N.3   105  ALA105     -0.1245
     74  CA        61.5310   31.0330   19.4740 C.3   105  ALA105      0.1562
     75  C         60.1190   31.4750   19.1000 C.2   105  ALA105      0.2260
     76  O         59.2680   30.6480   18.7450 O.2   105  ALA105     -0.2867
     77  CB        62.1970   30.2890   18.3150 C.3   105  ALA105      0.0290
     78  N         68.0310   28.1120    9.2040 N.3   161  ILE161     -0.1231
     79  CA        68.3230   28.0450   10.6300 C.3   161  ILE161      0.1692
     80  C         67.0960   27.5600   11.4190 C.2   161  ILE161      0.2593
     81  O         65.9640   28.0040   11.1820 O.2   161  ILE161     -0.2718
     82  CB        68.8120   29.4080   11.1830 C.3   161  ILE161      0.0266
     83  CG1       69.2410   29.3000   12.6540 C.3   161  ILE161      0.0019
     84  CG2       67.7270   30.5020   11.0100 C.3   161  ILE161      0.0020
     85  CD1       70.4750   28.4090   12.9100 C.3   161  ILE161      0.0001
     86  N         67.3350   26.6350   12.3440 N.am  162  GLY162     -0.1942
     87  CA        66.2940   26.1720   13.2620 C.3   162  GLY162      0.2014
     88  C         65.0010   25.8250   12.5520 C.2   162  GLY162      0.2640
     89  O         65.0010   25.0310   11.6080 O.2   162  GLY162     -0.2714
     90  N         63.9080   26.4360   13.0090 N.am  163  SER163     -0.1935
     91  CA        62.5630   26.1900   12.4780 C.3   163  SER163      0.2055
     92  C         62.1490   27.2190   11.4120 C.2   163  SER163      0.2642
     93  O         60.9640   27.3470   11.0770 O.2   163  SER163     -0.2714
     94  CB        61.5450   26.2080   13.6250 C.3   163  SER163      0.2130
     95  OG        61.7680   25.1600   14.5580 O.3   163  SER163     -0.2179
     96  N         63.1060   27.9670   10.8710 N.am  164  ALA164     -0.1977
     97  CA        62.7580   29.0330    9.9140 C.3   164  ALA164      0.1597
     98  C         62.0130   28.5480    8.6590 C.2   164  ALA164      0.2287
     99  O         61.1150   29.2340    8.1660 O.2   164  ALA164     -0.2864
    100  CB        64.0050   29.8460    9.5230 C.3   164  ALA164      0.0319
    101  N         58.4310   27.9400    9.7170 N.3   167  GLN167     -0.1245
    102  CA        57.7980   29.2370    9.9570 C.3   167  GLN167      0.1566
    103  C         57.4080   29.9030    8.6300 C.2   167  GLN167      0.2260
    104  O         56.2920   30.4370    8.4920 O.2   167  GLN167     -0.2867
    105  CB        58.7340   30.1500   10.7530 C.3   167  GLN167      0.0367
    106  CG        58.9500   29.7500   12.2110 C.3   167  GLN167      0.0905
    107  CD        60.1040   30.5050   12.8650 C.2   167  GLN167      0.2608
    108  OE1       61.0410   30.9420   12.1830 O.2   167  GLN167     -0.2717
    109  NE2       60.0430   30.6660   14.1860 N.am  167  GLN167     -0.0878
@<TRIPOS>BOND
     1    18    19    1
     2    52    54   ar
     3    52    50   ar
     4    21    20    2
     5    54    53   ar
     6    40    41    1
     7    43    42    2
     8    50    49   ar
     9    20    19    1
    10    20    29   am
    11    19    22    1
    12    99    98    2
    13    53    51   ar
    14    42    41    1
    15    42    44   am
    16   104   103    2
    17   103   102    1
    18    98    97    1
    19    32    31    2
    20    49    51   ar
    21    49    48    1
    22    29    30    1
    23    22    23    1
    24    31    30    1
    25    78    79    1
    26    30    33    1
    27    23    24    1
    28    44    45    1
    29   100    97    1
    30    45    48    1
    31    45    46    1
    32   101   102    1
    33    97    96    1
    34    24    25    1
    35   102   105    1
    36    46    47    2
    37    79    82    1
    38    79    80    1
    39    33    34    1
    40   105   106    1
    41    96    92   am
    42    25    26    2
    43    84    82    1
    44    93    92    2
    45    81    80    2
    46    82    83    1
    47    92    91    1
    48    80    86   am
    49    89    88    2
    50    34    36   ar
    51    34    35   ar
    52   108   107    2
    53    26    27    1
    54    26    28    1
    55   106   107    1
    56    36    38   ar
    57    86    87    1
    58    35    37   ar
    59    91    90    1
    60    91    94    1
    61    88    90   am
    62    88    87    1
    63    83    85    1
    64   107   109   am
    65    38    39   ar
    66    37    39   ar
    67    94    95    1
    68    10    11    2
    69    10     9    1
    70    12     9    1
    71    12    13    1
    72    15    13   ar
    73    15    17   ar
    74     9     8    1
    75    13    14   ar
    76    17    16   ar
    77    14    16   ar
    78    77    74    1
    79    76    75    2
    80    75    74    1
    81    74    73    1
    82     7     5    1
    83     3     4    2
    84     3     2    1
    85     5     6    1
    86     5     2    1
    87    55    56    1
    88     2     1    1
    89    64    62   ar
    90    64    65   ar
    91    62    60   ar
    92    56    57    1
    93    56    59    1
    94    65    63   ar
    95    71    70    1
    96    60    59    1
    97    60    61   ar
    98    58    57    2
    99    63    61   ar
   100    70    72    1
   101    70    67    1
   102    69    68    2
   103    68    67    1
   104    67    66    1
