@<TRIPOS>MOLECULE
tmp/2xsvA00.pdb
 177 165 0 0 0
SMALL
GASTEIGER

@<TRIPOS>ATOM
      1  N         27.0830  -13.8550   34.6470 N.3    40  LEU40      -0.1245
      2  CA        27.9760  -12.9870   35.4490 C.3    40  LEU40       0.1561
      3  C         28.2310  -13.5750   36.8470 C.2    40  LEU40       0.2260
      4  O         29.3780  -13.6170   37.2940 O.2    40  LEU40      -0.2867
      5  CB        27.4230  -11.5550   35.5700 C.3    40  LEU40       0.0270
      6  CG        28.2620  -10.5830   36.4250 C.3    40  LEU40       0.0019
      7  CD1       29.7130  -10.4310   35.8640 C.3    40  LEU40       0.0001
      8  CD2       27.5450   -9.2460   36.5050 C.3    40  LEU40       0.0001
      9  N         31.8300  -14.7540   38.3450 N.3    44  ILE44      -0.1245
     10  CA        32.2860  -14.2790   39.6660 C.3    44  ILE44       0.1561
     11  C         32.6840  -15.4650   40.5730 C.2    44  ILE44       0.2260
     12  O         33.7310  -15.4320   41.2120 O.2    44  ILE44      -0.2867
     13  CB        31.2130  -13.3560   40.3570 C.3    44  ILE44       0.0252
     14  CG1       31.1290  -12.0370   39.5880 C.3    44  ILE44       0.0019
     15  CG2       31.5370  -13.1510   41.8990 C.3    44  ILE44       0.0019
     16  CD1       29.8590  -11.1910   39.8850 C.3    44  ILE44       0.0001
     17  N         35.8540  -13.5750   41.8310 N.3    49  ILE49      -0.1245
     18  CA        36.0060  -12.1480   41.5920 C.3    49  ILE49       0.1561
     19  C         35.5840  -11.4170   42.8600 C.2    49  ILE49       0.2260
     20  O         34.5030  -11.6460   43.3780 O.2    49  ILE49      -0.2867
     21  CB        35.2060  -11.6690   40.3280 C.3    49  ILE49       0.0252
     22  CG1       35.6180  -12.5180   39.1040 C.3    49  ILE49       0.0019
     23  CG2       35.4780  -10.1840   40.0620 C.3    49  ILE49       0.0019
     24  CD1       34.9140  -12.0670   37.7590 C.3    49  ILE49       0.0001
     25  N         37.0380   -5.7900   42.7140 N.3    53  GLU53      -0.1231
     26  CA        37.1700   -6.0450   41.2790 C.3    53  GLU53       0.1699
     27  C         35.8940   -5.7380   40.5230 C.2    53  GLU53       0.2592
     28  O         35.9220   -5.1420   39.4330 O.2    53  GLU53      -0.2718
     29  CB        37.6310   -7.4950   41.0250 C.3    53  GLU53       0.0402
     30  CG        39.0880   -7.6740   41.3960 C.3    53  GLU53       0.1161
     31  CD        39.5410   -9.1330   41.2590 C.2    53  GLU53       0.3649
     32  OE1       38.7870  -10.0590   41.6510 O.co2  53  GLU53      -0.2457
     33  OE2       40.6730   -9.3520   40.7740 O.co2  53  GLU53      -0.2457
     34  N         34.7640   -6.1700   41.0750 N.am   54  VAL54      -0.1980
     35  CA        33.4970   -5.8510   40.4490 C.3    54  VAL54       0.1595
     36  C         33.2750   -4.3350   40.3500 C.2    54  VAL54       0.2287
     37  O         32.8880   -3.8200   39.2890 O.2    54  VAL54      -0.2864
     38  CB        32.3310   -6.5450   41.1950 C.3    54  VAL54       0.0276
     39  CG1       30.9890   -6.0520   40.6540 C.3    54  VAL54       0.0022
     40  CG2       32.4210   -8.0660   41.0750 C.3    54  VAL54       0.0022
     41  N         35.5250   -1.9540   40.3580 N.3    56  LYS56      -0.1231
     42  CA        36.4290   -1.3920   39.3240 C.3    56  LYS56       0.1693
     43  C         35.8960   -1.5840   37.9220 C.2    56  LYS56       0.2593
     44  O         36.0360   -0.6730   37.0500 O.2    56  LYS56      -0.2718
     45  CB        37.8550   -1.9620   39.4370 C.3    56  LYS56       0.0285
     46  CG        38.6900   -1.1390   40.4310 C.3    56  LYS56       0.0035
     47  CD        40.0960   -1.7040   40.7250 C.3    56  LYS56       0.0206
     48  CE        40.7160   -0.9900   41.9690 C.3    56  LYS56       0.1093
     49  NZ        40.2640   -1.6220   43.2670 N.3    56  LYS56      -0.1314
     50  N         35.3420   -2.7660   37.6700 N.am   57  GLY57      -0.1942
     51  CA        34.7280   -3.0820   36.3700 C.3    57  GLY57       0.2014
     52  C         33.5750   -2.1440   36.0490 C.2    57  GLY57       0.2639
     53  O         33.4760   -1.6120   34.9410 O.2    57  GLY57      -0.2714
     54  N         32.6820   -1.9450   37.0260 N.am   58  LEU58      -0.1963
     55  CA        31.5330   -1.0390   36.8280 C.3    58  LEU58       0.1728
     56  C         31.9470    0.4250   36.6840 C.2    58  LEU58       0.2616
     57  O         31.3450    1.1860   35.9140 O.2    58  LEU58      -0.2715
     58  CB        30.5610   -1.1490   38.0090 C.3    58  LEU58       0.0311
     59  CG        29.7570   -2.4410   38.1330 C.3    58  LEU58       0.0022
     60  CD1       28.6800   -2.2020   39.2290 C.3    58  LEU58       0.0001
     61  CD2       29.0710   -2.8730   36.8230 C.3    58  LEU58       0.0001
     62  N         32.9660    0.8260   37.4360 N.am   59  GLU59      -0.1963
     63  CA        33.4830    2.1820   37.3200 C.3    59  GLU59       0.1733
     64  C         34.0780    2.3910   35.9130 C.2    59  GLU59       0.2616
     65  O         33.9110    3.4530   35.3050 O.2    59  GLU59      -0.2715
     66  CB        34.4860    2.4650   38.4230 C.3    59  GLU59       0.0429
     67  CG        33.7950    2.6260   39.7850 C.3    59  GLU59       0.1163
     68  CD        34.6460    2.1760   40.9970 C.2    59  GLU59       0.3649
     69  OE1       35.9080    2.0640   40.8870 O.co2  59  GLU59      -0.2457
     70  OE2       34.0210    1.9380   42.0750 O.co2  59  GLU59      -0.2457
     71  N         34.7720    1.3750   35.4100 N.am   60  TYR60      -0.1960
     72  CA        35.3720    1.4590   34.0600 C.3    60  TYR60       0.1771
     73  C         34.2480    1.6260   33.0230 C.2    60  TYR60       0.2619
     74  O         34.2900    2.5290   32.1570 O.2    60  TYR60      -0.2715
     75  CB        36.1710    0.1850   33.7710 C.3    60  TYR60       0.0574
     76  CG        36.6440    0.1730   32.3340 C.ar   60  TYR60      -0.0198
     77  CD1       37.7840    0.8740   31.9530 C.ar   60  TYR60      -0.0009
     78  CD2       35.9150   -0.5240   31.3370 C.ar   60  TYR60      -0.0009
     79  CE1       38.2140    0.9040   30.5910 C.ar   60  TYR60       0.0417
     80  CE2       36.3210   -0.4850   29.9880 C.ar   60  TYR60       0.0417
     81  CZ        37.4740    0.2300   29.6350 C.ar   60  TYR60       0.1957
     82  OH        37.8820    0.2780   28.3110 O.3    60  TYR60      -0.2866
     83  N         33.2170    0.7980   33.1350 N.am   61  LEU61      -0.1977
     84  CA        32.0670    0.9200   32.2380 C.3    61  LEU61       0.1596
     85  C         31.3710    2.2830   32.3170 C.2    61  LEU61       0.2287
     86  O         30.9830    2.8350   31.2780 O.2    61  LEU61      -0.2864
     87  CB        31.0760   -0.2420   32.4250 C.3    61  LEU61       0.0297
     88  CG        31.6830   -1.5950   31.9730 C.3    61  LEU61       0.0022
     89  CD1       30.6960   -2.7200   32.2820 C.3    61  LEU61       0.0001
     90  CD2       32.1260   -1.6680   30.4560 C.3    61  LEU61       0.0001
     91  N         32.8710    5.1220   33.1480 N.3    63  ASP63      -0.1239
     92  CA        33.8040    6.0810   32.5450 C.3    63  ASP63       0.1674
     93  C         33.7500    5.9640   31.0210 C.2    63  ASP63       0.2266
     94  O         33.7880    6.9860   30.3140 O.2    63  ASP63      -0.2867
     95  CB        35.2500    5.8390   33.0130 C.3    63  ASP63       0.1410
     96  CG        35.4890    6.2170   34.5030 C.2    63  ASP63       0.3668
     97  OD1       34.6100    6.8570   35.1320 O.co2  63  ASP63      -0.2456
     98  OD2       36.5450    5.7960   35.0240 O.co2  63  ASP63      -0.2456
     99  N         32.0150    3.1990   24.4090 N.3    70  LEU70      -0.1245
    100  CA        31.5810    1.8000   24.4040 C.3    70  LEU70       0.1561
    101  C         31.4570    1.2030   22.9920 C.2    70  LEU70       0.2260
    102  O         31.6370    0.0050   22.8120 O.2    70  LEU70      -0.2867
    103  CB        30.2860    1.5640   25.2260 C.3    70  LEU70       0.0270
    104  CG        30.4640    1.7150   26.7370 C.3    70  LEU70       0.0019
    105  CD1       29.0840    1.6040   27.4190 C.3    70  LEU70       0.0001
    106  CD2       31.4380    0.5990   27.2510 C.3    70  LEU70       0.0001
    107  N         34.8910    0.3210   22.1860 N.3    73  LEU73      -0.1231
    108  CA        35.2710   -0.8690   22.9780 C.3    73  LEU73       0.1693
    109  C         34.6880   -2.1420   22.3360 C.2    73  LEU73       0.2591
    110  O         35.3950   -3.1510   22.2080 O.2    73  LEU73      -0.2718
    111  CB        34.7570   -0.7490   24.4270 C.3    73  LEU73       0.0284
    112  CG        35.1900   -1.9050   25.3780 C.3    73  LEU73       0.0019
    113  CD1       36.7080   -1.9910   25.5150 C.3    73  LEU73       0.0001
    114  CD2       34.5330   -1.6850   26.7180 C.3    73  LEU73       0.0001
    115  N         33.4170   -2.0810   21.9250 N.am   74  ALA74      -0.1980
    116  CA        32.8140   -3.1950   21.1620 C.3    74  ALA74       0.1597
    117  C         33.6590   -3.5870   19.9140 C.2    74  ALA74       0.2287
    118  O         33.8280   -4.7770   19.5820 O.2    74  ALA74      -0.2864
    119  CB        31.3650   -2.8620   20.7760 C.3    74  ALA74       0.0319
    120  N         37.3280   -5.1270   21.2510 N.3    77  LEU77      -0.1245
    121  CA        37.2920   -6.4580   21.8530 C.3    77  LEU77       0.1561
    122  C         36.8790   -7.5170   20.7990 C.2    77  LEU77       0.2260
    123  O         36.9970   -8.7260   21.0460 O.2    77  LEU77      -0.2867
    124  CB        36.3420   -6.4760   23.0880 C.3    77  LEU77       0.0270
    125  CG        36.7840   -5.6150   24.2960 C.3    77  LEU77       0.0019
    126  CD1       35.8340   -5.7270   25.4870 C.3    77  LEU77       0.0001
    127  CD2       38.2260   -5.9390   24.7350 C.3    77  LEU77       0.0001
    128  N         33.8010   -7.7820   19.5000 N.3    79  LEU79      -0.1245
    129  CA        32.3400   -8.0280   19.5090 C.3    79  LEU79       0.1561
    130  C         31.6460   -7.5670   18.1900 C.2    79  LEU79       0.2260
    131  O         30.7780   -8.2480   17.6620 O.2    79  LEU79      -0.2867
    132  CB        31.7250   -7.3340   20.7340 C.3    79  LEU79       0.0270
    133  CG        30.1990   -7.2720   20.7880 C.3    79  LEU79       0.0019
    134  CD1       29.5810   -8.6660   20.8410 C.3    79  LEU79       0.0001
    135  CD2       29.7330   -6.4250   22.0010 C.3    79  LEU79       0.0001
    136  N         44.5870    8.7710   25.9620 N.3   203  GLU203     -0.1231
    137  CA        44.2690    8.8720   27.3820 C.3   203  GLU203      0.1699
    138  C         42.8350    8.4120   27.6960 C.2   203  GLU203      0.2593
    139  O         42.3450    8.5630   28.8320 O.2   203  GLU203     -0.2718
    140  CB        44.5000   10.3090   27.8880 C.3   203  GLU203      0.0402
    141  CG        45.9010   10.8440   27.6090 C.3   203  GLU203      0.1161
    142  CD        46.9970   10.0140   28.2660 C.2   203  GLU203      0.3649
    143  OE1       46.8570    9.6690   29.4520 O.co2 203  GLU203     -0.2457
    144  OE2       48.0130    9.7030   27.6020 O.co2 203  GLU203     -0.2457
    145  N         42.1870    7.8130   26.7050 N.am  204  GLY204     -0.1942
    146  CA        40.7740    7.4000   26.8360 C.3   204  GLY204      0.2014
    147  C         40.6270    6.0110   27.4580 C.2   204  GLY204      0.2639
    148  O         41.6190    5.3150   27.7270 O.2   204  GLY204     -0.2714
    149  N         39.3840    5.5900   27.6710 N.am  205  THR205     -0.1950
    150  CA        39.1280    4.3330   28.3480 C.3   205  THR205      0.1897
    151  C         39.4500    3.1180   27.4690 C.2   205  THR205      0.2313
    152  O         39.8670    2.0700   27.9870 O.2   205  THR205     -0.2863
    153  CB        37.6400    4.2390   28.8300 C.3   205  THR205      0.1794
    154  OG1       36.7800    4.3940   27.7090 O.3   205  THR205     -0.2208
    155  CG2       37.3300    5.3350   29.9070 C.3   205  THR205      0.0378
    156  N         43.1480    2.5900   27.5910 N.3   208  ALA208     -0.1231
    157  CA        43.4790    2.1370   28.9410 C.3   208  ALA208      0.1694
    158  C         43.3290    0.5990   29.1130 C.2   208  ALA208      0.2591
    159  O         44.2360   -0.0820   29.6210 O.2   208  ALA208     -0.2718
    160  CB        42.6730    2.9310   29.9790 C.3   208  ALA208      0.0304
    161  N         42.2280    0.0190   28.6390 N.am  209  LEU209     -0.1980
    162  CA        42.0650   -1.4210   28.7320 C.3   209  LEU209      0.1596
    163  C         43.0110   -2.1660   27.7560 C.2   209  LEU209      0.2287
    164  O         43.6560   -3.1790   28.1230 O.2   209  LEU209     -0.2864
    165  CB        40.5880   -1.8050   28.4330 C.3   209  LEU209      0.0297
    166  CG        40.2170   -3.3010   28.5050 C.3   209  LEU209      0.0022
    167  CD1       40.7120   -3.9650   29.8270 C.3   209  LEU209      0.0001
    168  CD2       38.6870   -3.4250   28.3930 C.3   209  LEU209      0.0001
    169  N         46.3370   -2.7130   29.2290 N.3   212  LYS212     -0.1245
    170  CA        46.3620   -3.8410   30.1620 C.3   212  LYS212      0.1561
    171  C         46.4520   -5.1940   29.4480 C.2   212  LYS212      0.2260
    172  O         47.0170   -6.1590   29.9830 O.2   212  LYS212     -0.2867
    173  CB        45.1420   -3.8180   31.0930 C.3   212  LYS212      0.0271
    174  CG        44.9840   -2.5370   31.9460 C.3   212  LYS212      0.0035
    175  CD        46.1090   -2.4020   32.9500 C.3   212  LYS212      0.0206
    176  CE        45.8500   -1.2650   33.9470 C.3   212  LYS212      0.1093
    177  NZ        46.8820   -1.2680   35.0610 N.3   212  LYS212     -0.1314
@<TRIPOS>BOND
     1   131   130    2
     2   130   129    1
     3   128   129    1
     4   129   132    1
     5   118   117    2
     6   117   116    1
     7   132   133    1
     8   119   116    1
     9   133   134    1
    10   133   135    1
    11   122   123    2
    12   122   121    1
    13   116   115    1
    14   120   121    1
    15   121   124    1
    16   115   109   am
    17   107   108    1
    18   110   109    2
    19   109   108    1
    20   102   101    2
    21   108   111    1
    22   101   100    1
    23   124   125    1
    24   125   127    1
    25   125   126    1
    26   100    99    1
    27   100   103    1
    28   111   112    1
    29   103   104    1
    30   112   113    1
    31   112   114    1
    32   136   137    1
    33   145   146    1
    34   145   138   am
    35   104   106    1
    36   104   105    1
    37   146   147    1
    38   137   138    1
    39   137   140    1
    40   147   149   am
    41   147   148    2
    42   151   152    2
    43   151   150    1
    44   156   157    1
    45   144   142   ar
    46   141   140    1
    47   141   142    1
    48   149   150    1
    49   138   139    2
    50   154   153    1
    51   163   164    2
    52   163   162    1
    53   142   143   ar
    54    82    81    1
    55   150   153    1
    56   168   166    1
    57   165   166    1
    58   165   162    1
    59   166   167    1
    60   161   162    1
    61   161   158   am
    62   153   155    1
    63   157   158    1
    64   157   160    1
    65   158   159    2
    66   169   170    1
    67   171   172    2
    68   171   170    1
    69    81    80   ar
    70    81    79   ar
    71    80    78   ar
    72   170   173    1
    73    94    93    2
    74    90    88    1
    75    79    77   ar
    76    93    92    1
    77   173   174    1
    78    86    85    2
    79    78    76   ar
    80   174   175    1
    81    77    76   ar
    82    88    89    1
    83    88    87    1
    84    74    73    2
    85    84    85    1
    86    84    87    1
    87    84    83    1
    88    76    75    1
    89    92    95    1
    90    92    91    1
    91   175   176    1
    92    95    96    1
    93    73    83   am
    94    73    72    1
    95    75    72    1
    96   176   177    1
    97    72    71    1
    98    96    98   ar
    99    96    97   ar
   100     1     2    1
   101    53    52    2
   102    65    64    2
   103    71    64   am
   104     2     5    1
   105     2     3    1
   106     5     6    1
   107     7     6    1
   108    64    63    1
   109    57    56    2
   110    52    51    1
   111    52    54   am
   112    51    50    1
   113     6     8    1
   114    56    55    1
   115    56    62   am
   116    61    59    1
   117    55    54    1
   118    55    58    1
   119     3     4    2
   120    44    43    2
   121    63    62    1
   122    63    66    1
   123    50    43   am
   124    24    22    1
   125    43    42    1
   126    58    59    1
   127    59    60    1
   128     9    10    1
   129    66    67    1
   130    22    21    1
   131    37    36    2
   132    42    45    1
   133    42    41    1
   134    28    27    2
   135    45    46    1
   136    14    16    1
   137    14    13    1
   138    10    13    1
   139    10    11    1
   140    67    68    1
   141    23    21    1
   142    21    18    1
   143    36    35    1
   144    13    15    1
   145    46    47    1
   146    35    34    1
   147    35    38    1
   148    27    34   am
   149    27    26    1
   150    11    12    2
   151    39    38    1
   152    47    48    1
   153    33    31   ar
   154    69    68   ar
   155    68    70   ar
   156    29    26    1
   157    29    30    1
   158    40    38    1
   159    31    30    1
   160    31    32   ar
   161    26    25    1
   162    18    17    1
   163    18    19    1
   164    48    49    1
   165    19    20    2
