@<TRIPOS>MOLECULE
tmp/2xszE00.pdb
 193 185 0 0 0
SMALL
GASTEIGER

@<TRIPOS>ATOM
      1  N         24.0460   19.9180   34.3820 N.3     3  ALA3       -0.1231
      2  CA        23.8670   19.8270   32.9320 C.3     3  ALA3        0.1694
      3  C         24.3950   18.5280   32.3340 C.2     3  ALA3        0.2592
      4  O         23.8940   18.0880   31.3000 O.2     3  ALA3       -0.2718
      5  CB        24.5140   21.0190   32.2510 C.3     3  ALA3        0.0304
      6  N         25.4050   17.9260   32.9710 N.am    4  HIS4       -0.1976
      7  CA        26.0200   16.6960   32.4820 C.3     4  HIS4        0.1656
      8  C         25.8030   15.5200   33.4420 C.2     4  HIS4        0.2291
      9  O         26.5950   14.5730   33.4600 O.2     4  HIS4       -0.2864
     10  CB        27.5100   16.9270   32.1610 C.3     4  HIS4        0.0771
     11  CG        27.7530   18.0890   31.2400 C.ar    4  HIS4        0.0820
     12  ND1       27.7710   17.9310   29.8630 N.ar    4  HIS4       -0.2267
     13  CD2       27.9690   19.3930   31.5290 C.ar    4  HIS4        0.1154
     14  CE1       27.9850   19.1400   29.3640 C.ar    4  HIS4        0.1986
     15  NE2       28.1160   20.0500   30.3270 N.ar    4  HIS4       -0.2212
     16  N         23.7130   13.0650   33.3490 N.3     6  HIS6       -0.1226
     17  CA        23.5040   11.8010   32.6460 C.3     6  HIS6        0.1752
     18  C         24.7940   11.1240   32.2190 C.2     6  HIS6        0.2595
     19  O         24.8070    9.9050   32.0950 O.2     6  HIS6       -0.2718
     20  CB        22.6140   12.0230   31.4280 C.3     6  HIS6        0.0759
     21  CG        23.1400   13.0540   30.4820 C.ar    6  HIS6        0.0818
     22  ND1       23.0230   14.4010   30.7530 N.ar    6  HIS6       -0.2268
     23  CD2       23.7630   12.8980   29.2920 C.ar    6  HIS6        0.1154
     24  CE1       23.5870   15.0190   29.7330 C.ar    6  HIS6        0.1986
     25  NE2       24.0440   14.1570   28.8250 N.ar    6  HIS6       -0.2212
     26  N         25.8610   11.9110   31.9540 N.am    7  ILE7       -0.1980
     27  CA        27.1760   11.4210   31.5130 C.3     7  ILE7        0.1595
     28  C         27.8260   10.6250   32.6450 C.2     7  ILE7        0.2287
     29  O         28.1370   11.1850   33.6970 O.2     7  ILE7       -0.2864
     30  CB        28.0910   12.5720   30.9760 C.3     7  ILE7        0.0276
     31  CG1       27.4010   13.4350   29.8780 C.3     7  ILE7        0.0022
     32  CG2       29.4310   12.0360   30.5190 C.3     7  ILE7        0.0022
     33  CD1       27.1940   12.7940   28.4730 C.3     7  ILE7        0.0001
     34  N         25.3450    7.3380   29.0600 N.3    24  GLY24      -0.1225
     35  CA        24.7860    8.6810   28.9760 C.3    24  GLY24       0.1811
     36  C         25.1580    9.4380   27.7150 C.2    24  GLY24       0.2280
     37  O         24.5960   10.5010   27.4550 O.2    24  GLY24      -0.2866
     38  N         25.5160    9.8890   23.5310 N.3    25  VAL25      -0.1231
     39  CA        24.7790    9.6180   22.3090 C.3    25  VAL25       0.1692
     40  C         25.5970   10.1240   21.1260 C.2    25  VAL25       0.2593
     41  O         26.1210   11.2480   21.1770 O.2    25  VAL25      -0.2718
     42  CB        23.3660   10.2340   22.3880 C.3    25  VAL25       0.0266
     43  CG1       22.8810   10.7690   21.0390 C.3    25  VAL25       0.0020
     44  CG2       22.3850    9.2220   22.9610 C.3    25  VAL25       0.0020
     45  N         25.7170    9.2960   20.0850 N.am   26  GLY26      -0.1942
     46  CA        26.4520    9.6380   18.8720 C.3    26  GLY26       0.2014
     47  C         27.8120   10.2390   19.1620 C.2    26  GLY26       0.2638
     48  O         28.5030    9.7720   20.0680 O.2    26  GLY26      -0.2714
     49  N         28.1960   11.2980   18.4300 N.am   27  GLN27      -0.1977
     50  CA        29.5100   11.9510   18.5670 C.3    27  GLN27       0.1601
     51  C         30.6040   10.8810   18.6710 C.2    27  GLN27       0.2287
     52  O         31.4590   10.9030   19.5580 O.2    27  GLN27      -0.2864
     53  CB        29.5280   12.9390   19.7570 C.3    27  GLN27       0.0394
     54  CG        30.5130   14.0960   19.5860 C.3    27  GLN27       0.0908
     55  CD        30.2710   14.8650   18.3130 C.2    27  GLN27       0.2608
     56  OE1       30.9940   14.7200   17.3220 O.2    27  GLN27      -0.2717
     57  NE2       29.2250   15.6620   18.2990 N.am   27  GLN27      -0.0878
     58  N         34.4440   10.6770   20.6930 N.3    31  ARG31      -0.1245
     59  CA        34.4100    9.7420   21.8140 C.3    31  ARG31       0.1563
     60  C         35.5370    8.6990   21.6910 C.2    31  ARG31       0.2260
     61  O         36.2090    8.4070   22.6880 O.2    31  ARG31      -0.2867
     62  CB        33.0430    9.0600   21.8870 C.3    31  ARG31       0.0307
     63  CG        31.9920    9.8730   22.6260 C.3    31  ARG31       0.0489
     64  CD        30.5960    9.3040   22.4100 C.3    31  ARG31       0.2205
     65  NE        30.4010    7.9850   23.0210 N.pl3  31  ARG31      -0.0865
     66  CZ        29.4830    7.1080   22.6280 C.cat  31  ARG31       0.5346
     67  NH1       28.6710    7.3950   21.6190 N.pl3  31  ARG31       0.1354
     68  NH2       29.3780    5.9330   23.2330 N.pl3  31  ARG31       0.1354
     69  N         29.4420   25.2700   19.2160 N.3    56  PRO56      -0.2102
     70  CA        28.7890   25.1290   20.5190 C.3    56  PRO56       0.1504
     71  C         27.6690   24.0930   20.5100 C.2    56  PRO56       0.2576
     72  O         26.9780   23.9360   19.4920 O.2    56  PRO56      -0.2718
     73  CB        28.2640   26.5350   20.7980 C.3    56  PRO56       0.0282
     74  CG        29.0570   27.4090   19.9420 C.3    56  PRO56       0.0208
     75  CD        29.2710   26.6370   18.7040 C.3    56  PRO56       0.0893
     76  N         27.5340   23.3810   21.6330 N.am   57  GLY57      -0.1943
     77  CA        26.5080   22.3630   21.8410 C.3    57  GLY57       0.2014
     78  C         26.7530   21.0600   21.1080 C.2    57  GLY57       0.2640
     79  O         25.7950   20.3800   20.7200 O.2    57  GLY57      -0.2714
     80  N         28.0420   20.7120   20.9210 N.am   58  THR58      -0.1936
     81  CA        28.4710   19.4760   20.2750 C.3    58  THR58       0.2028
     82  C         29.1020   18.4890   21.2780 C.2    58  THR58       0.2643
     83  O         29.7810   17.5350   20.8770 O.2    58  THR58      -0.2714
     84  CB        29.3650   19.7540   19.0850 C.3    58  THR58       0.1808
     85  OG1       30.4650   20.5350   19.5230 O.3    58  THR58      -0.2208
     86  CG2       28.6340   20.4220   17.9550 C.3    58  THR58       0.0379
     87  N         28.8460   18.7070   22.5680 N.am   59  GLY59      -0.1939
     88  CA        29.3230   17.8350   23.6350 C.3    59  GLY59       0.2014
     89  C         30.7990   17.9070   23.9540 C.2    59  GLY59       0.2639
     90  O         31.3710   16.9240   24.4240 O.2    59  GLY59      -0.2714
     91  N         31.4260   19.0690   23.7350 N.am   60  LYS60      -0.1963
     92  CA        32.8450   19.2560   24.0640 C.3    60  LYS60       0.1728
     93  C         32.9840   19.0710   25.5840 C.2    60  LYS60       0.2617
     94  O         33.7730   18.2290   26.0120 O.2    60  LYS60      -0.2715
     95  CB        33.3720   20.6360   23.6170 C.3    60  LYS60       0.0311
     96  CG        33.1820   20.9650   22.1380 C.3    60  LYS60       0.0038
     97  CD        33.7680   22.3250   21.7690 C.3    60  LYS60       0.0206
     98  CE        33.0490   23.5160   22.3400 C.3    60  LYS60       0.1093
     99  NZ        31.7510   23.7450   21.6670 N.3    60  LYS60      -0.1314
    100  N         32.1400   19.7670   26.3870 N.am   61  THR61      -0.1937
    101  CA        32.1290   19.6340   27.8450 C.3    61  THR61       0.2028
    102  C         31.7160   18.2120   28.2370 C.2    61  THR61       0.2642
    103  O         32.3400   17.6350   29.1200 O.2    61  THR61      -0.2714
    104  CB        31.2050   20.6620   28.4900 C.3    61  THR61       0.1808
    105  OG1       31.3280   21.9260   27.8340 O.3    61  THR61      -0.2208
    106  CG2       31.4650   20.8160   29.9560 C.3    61  THR61       0.0379
    107  N         30.6790   17.6480   27.5730 N.am   62  ALA62      -0.1963
    108  CA        30.1750   16.3030   27.8370 C.3    62  ALA62       0.1728
    109  C         31.2550   15.2320   27.6500 C.2    62  ALA62       0.2616
    110  O         31.3820   14.3680   28.5120 O.2    62  ALA62      -0.2715
    111  CB        28.9720   16.0130   26.9650 C.3    62  ALA62       0.0334
    112  N         32.0790   15.3300   26.5750 N.am   63  ILE63      -0.1977
    113  CA        33.1960   14.4120   26.3050 C.3    63  ILE63       0.1596
    114  C         34.2340   14.5220   27.4180 C.2    63  ILE63       0.2287
    115  O         34.6530   13.4970   27.9610 O.2    63  ILE63      -0.2864
    116  CB        33.7820   14.6100   24.8870 C.3    63  ILE63       0.0276
    117  CG1       32.8710   13.9490   23.8560 C.3    63  ILE63       0.0022
    118  CG2       35.1660   14.0080   24.7780 C.3    63  ILE63       0.0022
    119  CD1       32.9300   14.5120   22.5190 C.3    63  ILE63       0.0001
    120  N         36.7110   25.8710   28.9630 N.3   153  ASP153     -0.1239
    121  CA        35.8030   26.2300   27.8650 C.3   153  ASP153      0.1674
    122  C         36.1570   27.6580   27.4370 C.2   153  ASP153      0.2266
    123  O         36.7530   28.3910   28.2460 O.2   153  ASP153     -0.2867
    124  CB        34.3330   26.1820   28.3330 C.3   153  ASP153      0.1410
    125  CG        33.2960   25.9160   27.2440 C.2   153  ASP153      0.3668
    126  OD1       33.6100   26.1370   26.0460 O.co2 153  ASP153     -0.2456
    127  OD2       32.1700   25.4840   27.5910 O.co2 153  ASP153     -0.2456
    128  N         25.3630   17.6210   15.5630 N.3   213  TYR213     -0.1241
    129  CA        24.3620   16.5610   15.6830 C.3   213  TYR213      0.1605
    130  C         23.2950   16.5260   14.6040 C.2   213  TYR213      0.2264
    131  O         22.9210   17.5620   14.0370 O.2   213  TYR213     -0.2867
    132  CB        23.7190   16.5370   17.0770 C.3   213  TYR213      0.0534
    133  CG        24.7020   16.2940   18.1920 C.ar  213  TYR213     -0.0201
    134  CD1       25.4120   15.0990   18.2730 C.ar  213  TYR213     -0.0009
    135  CD2       24.9030   17.2420   19.1840 C.ar  213  TYR213     -0.0009
    136  CE1       26.3140   14.8670   19.3020 C.ar  213  TYR213      0.0417
    137  CE2       25.8050   17.0220   20.2180 C.ar  213  TYR213      0.0417
    138  CZ        26.5190   15.8390   20.2630 C.ar  213  TYR213      0.1957
    139  OH        27.4310   15.6260   21.2590 O.3   213  TYR213     -0.2866
    140  N         19.4590   13.4720   22.8280 N.3   221  ILE221     -0.1245
    141  CA        20.0310   14.2940   23.8900 C.3   221  ILE221      0.1561
    142  C         18.8980   14.9440   24.7020 C.2   221  ILE221      0.2260
    143  O         18.9010   14.8310   25.9290 O.2   221  ILE221     -0.2867
    144  CB        21.1520   15.2540   23.3940 C.3   221  ILE221      0.0252
    145  CG1       22.3980   14.4260   22.9980 C.3   221  ILE221      0.0019
    146  CG2       21.5080   16.2850   24.4720 C.3   221  ILE221      0.0019
    147  CD1       23.2160   14.9770   21.9140 C.3   221  ILE221      0.0001
    148  N         17.1290   12.4410   26.8520 N.3   224  ILE224     -0.1231
    149  CA        17.9640   12.1570   28.0180 C.3   224  ILE224      0.1692
    150  C         17.8210   13.2870   29.0450 C.2   224  ILE224      0.2591
    151  O         17.6260   13.0140   30.2320 O.2   224  ILE224     -0.2718
    152  CB        19.4390   11.9170   27.5970 C.3   224  ILE224      0.0266
    153  CG1       19.6260   10.5420   26.9330 C.3   224  ILE224      0.0019
    154  CG2       20.3700   12.0460   28.7770 C.3   224  ILE224      0.0020
    155  CD1       20.9770   10.3660   26.1750 C.3   224  ILE224      0.0001
    156  N         17.9100   14.5520   28.5780 N.am  225  ARG225     -0.1980
    157  CA        17.8070   15.7420   29.4220 C.3   225  ARG225      0.1597
    158  C         16.4680   15.8930   30.1170 C.2   225  ARG225      0.2287
    159  O         16.4260   16.3840   31.2490 O.2   225  ARG225     -0.2864
    160  CB        18.1890   17.0150   28.6600 C.3   225  ARG225      0.0334
    161  CG        19.6940   17.1430   28.3860 C.3   225  ARG225      0.0492
    162  CD        20.5900   16.9120   29.6040 C.3   225  ARG225      0.2205
    163  NE        20.1620   17.6850   30.7660 N.pl3 225  ARG225     -0.0865
    164  CZ        20.5020   17.4010   32.0150 C.cat 225  ARG225      0.5346
    165  NH1       21.2940   16.3710   32.2760 N.pl3 225  ARG225      0.1354
    166  NH2       20.0550   18.1470   33.0150 N.pl3 225  ARG225      0.1354
    167  N         21.0380   23.7340   20.7440 N.3   249  LEU249     -0.1231
    168  CA        20.6530   22.6610   21.6570 C.3   249  LEU249      0.1693
    169  C         20.4170   23.2930   23.0530 C.2   249  LEU249      0.2591
    170  O         19.4680   22.9070   23.7400 O.2   249  LEU249     -0.2718
    171  CB        21.7650   21.5860   21.6730 C.3   249  LEU249      0.0284
    172  CG        21.6130   20.3600   22.5850 C.3   249  LEU249      0.0019
    173  CD1       20.4610   19.4670   22.1530 C.3   249  LEU249      0.0001
    174  CD2       22.9120   19.5720   22.6310 C.3   249  LEU249      0.0001
    175  N         21.2420   24.3210   23.4170 N.am  250  ARG250     -0.1980
    176  CA        21.1450   25.0970   24.6610 C.3   250  ARG250      0.1597
    177  C         19.7500   25.6920   24.7770 C.2   250  ARG250      0.2287
    178  O         19.1180   25.5410   25.8260 O.2   250  ARG250     -0.2864
    179  CB        22.2030   26.2220   24.6820 C.3   250  ARG250      0.0334
    180  CG        21.9170   27.3870   25.6640 C.3   250  ARG250      0.0492
    181  CD        22.5130   28.7240   25.2110 C.3   250  ARG250      0.2205
    182  NE        21.7740   29.3690   24.1210 N.pl3 250  ARG250     -0.0865
    183  CZ        20.7700   30.2260   24.2940 C.cat 250  ARG250      0.5346
    184  NH1       20.3580   30.5420   25.5180 N.pl3 250  ARG250      0.1354
    185  NH2       20.1660   30.7710   23.2440 N.pl3 250  ARG250      0.1354
    186  N         17.0920   22.9960   25.2360 N.3   253  ILE253     -0.1245
    187  CA        17.1230   22.4990   26.6140 C.3   253  ILE253      0.1561
    188  C         16.5300   23.5430   27.5620 C.2   253  ILE253      0.2260
    189  O         15.7720   23.2040   28.4860 O.2   253  ILE253     -0.2867
    190  CB        18.5450   22.0200   27.0240 C.3   253  ILE253      0.0252
    191  CG1       18.9850   20.8090   26.1470 C.3   253  ILE253      0.0019
    192  CG2       18.5950   21.6560   28.5260 C.3   253  ILE253      0.0019
    193  CD1       20.4930   20.4800   26.1430 C.3   253  ILE253      0.0001
@<TRIPOS>BOND
     1   131   130    2
     2   130   129    1
     3   128   129    1
     4   129   132    1
     5   132   133    1
     6    56    55    2
     7    86    84    1
     8   133   134   ar
     9   133   135   ar
    10   134   136   ar
    11    57    55   am
    12    55    54    1
    13    49    50    1
    14    49    47   am
    15    50    51    1
    16    50    53    1
    17    51    52    2
    18    75    69    1
    19    75    74    1
    20    46    47    1
    21    46    45    1
    22    84    85    1
    23    84    81    1
    24    47    48    2
    25   135   137   ar
    26    69    70    1
    27   136   138   ar
    28    72    71    2
    29    54    53    1
    30    74    73    1
    31    45    40   am
    32   137   138   ar
    33   138   139    1
    34    81    80    1
    35    81    82    1
    36    71    70    1
    37    71    76   am
    38    70    73    1
    39    58    59    1
    40    79    78    2
    41   167   168    1
    42    83    82    2
    43    80    78   am
    44    43    42    1
    45    78    77    1
    46    40    41    2
    47    40    39    1
    48    82    87   am
    49    67    66    1
    50    76    77    1
    51   168   171    1
    52   168   169    1
    53    99    98    1
    54   171   172    1
    55    60    59    1
    56    60    61    2
    57    97    96    1
    58    97    98    1
    59    59    62    1
    60    62    63    1
    61   147   145    1
    62    96    95    1
    63   173   172    1
    64    39    42    1
    65    39    38    1
    66    42    44    1
    67    64    63    1
    68    64    65    1
    69   119   117    1
    70    87    88    1
    71   172   174    1
    72    66    65    2
    73    66    68    1
    74   140   141    1
    75   145   144    1
    76   169   175   am
    77   169   170    2
    78   185   183    1
    79   144   141    1
    80   144   146    1
    81   175   176    1
    82    95    92    1
    83    88    89    1
    84    91    89   am
    85    91    92    1
    86   117   116    1
    87   141   142    1
    88    89    90    2
    89    92    93    1
    90   182   183    2
    91   182   181    1
    92   183   184    1
    93   176   179    1
    94   176   177    1
    95   179   180    1
    96   142   143    2
    97   177   178    2
    98   118   116    1
    99   116   113    1
   100   181   180    1
   101   186   187    1
   102    93    94    2
   103    93   100   am
   104   126   125   ar
   105   193   191    1
   106   191   190    1
   107   155   153    1
   108   113   112    1
   109   113   114    1
   110   100   101    1
   111   112   109   am
   112   187   190    1
   113   187   188    1
   114   148   149    1
   115   153   152    1
   116   111   108    1
   117   190   192    1
   118   125   127   ar
   119   125   124    1
   120   114   115    2
   121   122   121    1
   122   122   123    2
   123    37    36    2
   124   188   189    2
   125   107   108    1
   126   107   102   am
   127   152   149    1
   128   152   154    1
   129   109   108    1
   130   109   110    2
   131    36    35    1
   132   105   104    1
   133   101   102    1
   134   101   104    1
   135   121   124    1
   136   121   120    1
   137   149   150    1
   138   102   103    2
   139   161   160    1
   140   161   162    1
   141    33    31    1
   142   104   106    1
   143   156   150   am
   144   156   157    1
   145   160   157    1
   146    25    23   ar
   147    25    24   ar
   148    35    34    1
   149   150   151    2
   150    23    21   ar
   151    14    12   ar
   152    14    15   ar
   153   157   158    1
   154   162   163    1
   155    24    22   ar
   156    12    11   ar
   157    31    30    1
   158   158   159    2
   159    15    13   ar
   160    21    22   ar
   161    21    20    1
   162    32    30    1
   163   163   164    2
   164    30    27    1
   165    11    13   ar
   166    11    10    1
   167     4     3    2
   168    20    17    1
   169    27    26    1
   170    27    28    1
   171    26    18   am
   172   164   165    1
   173   164   166    1
   174    19    18    2
   175    10     7    1
   176    18    17    1
   177     5     2    1
   178     3     2    1
   179     3     6   am
   180     7     6    1
   181     7     8    1
   182    28    29    2
   183    17    16    1
   184     2     1    1
   185     8     9    2
