@<TRIPOS>MOLECULE
tmp/2xszB00.pdb
 221 213 0 0 0
SMALL
GASTEIGER

@<TRIPOS>ATOM
      1  N          8.6610   57.0230   38.0600 N.3    13  SER13      -0.1202
      2  CA         8.0140   57.0160   36.7540 C.3    13  SER13       0.2020
      3  C          7.0860   55.8110   36.5730 C.2    13  SER13       0.2618
      4  O          6.2720   55.8010   35.6460 O.2    13  SER13      -0.2717
      5  CB         9.0790   57.0260   35.6610 C.3    13  SER13       0.2103
      6  OG         8.5430   57.4770   34.4260 O.3    13  SER13      -0.2182
      7  N          7.2160   54.7960   37.4560 N.am   14  HIS14      -0.1975
      8  CA         6.4520   53.5450   37.4100 C.3    14  HIS14       0.1656
      9  C          5.4970   53.3710   38.5960 C.2    14  HIS14       0.2291
     10  O          5.0000   52.2660   38.8130 O.2    14  HIS14      -0.2864
     11  CB         7.4010   52.3380   37.3170 C.3    14  HIS14       0.0771
     12  CG         8.5880   52.5570   36.4400 C.ar   14  HIS14       0.0820
     13  ND1        8.5110   52.3950   35.0710 N.ar   14  HIS14      -0.2267
     14  CD2        9.8480   52.9160   36.7710 C.ar   14  HIS14       0.1154
     15  CE1        9.7230   52.6580   34.6110 C.ar   14  HIS14       0.1986
     16  NE2       10.5610   52.9810   35.5960 N.ar   14  HIS14      -0.2212
     17  N          2.5260   53.7460   38.9380 N.3    16  HIS16      -0.1241
     18  CA         1.2850   53.1370   38.4550 C.3    16  HIS16       0.1621
     19  C          1.3540   51.6090   38.2330 C.2    16  HIS16       0.2264
     20  O          0.3010   50.9680   38.1730 O.2    16  HIS16      -0.2867
     21  CB         0.8420   53.8430   37.1650 C.3    16  HIS16       0.0745
     22  CG         1.7260   53.5450   35.9980 C.ar   16  HIS16       0.0817
     23  ND1        2.9970   54.0720   35.9070 N.ar   16  HIS16      -0.2268
     24  CD2        1.5110   52.7280   34.9430 C.ar   16  HIS16       0.1154
     25  CE1        3.5090   53.5710   34.7990 C.ar   16  HIS16       0.1986
     26  NE2        2.6510   52.7590   34.1830 N.ar   16  HIS16      -0.2212
     27  N         -2.0150   48.2950   36.0280 N.3    34  GLY34      -0.1210
     28  CA        -1.2740   49.4790   35.6110 C.3    34  GLY34       0.1956
     29  C         -0.6360   49.3360   34.2450 C.2    34  GLY34       0.2612
     30  O         -0.2780   50.3380   33.6220 O.2    34  GLY34      -0.2717
     31  N         -0.4860   48.0850   33.7670 N.am   35  LEU35      -0.1965
     32  CA         0.1210   47.7750   32.4750 C.3    35  LEU35       0.1728
     33  C         -0.8730   47.7770   31.3270 C.2    35  LEU35       0.2616
     34  O         -1.9910   47.2790   31.4710 O.2    35  LEU35      -0.2715
     35  CB         0.9220   46.4650   32.5200 C.3    35  LEU35       0.0311
     36  CG         2.1210   46.4360   33.4700 C.3    35  LEU35       0.0022
     37  CD1        2.8660   45.1290   33.3700 C.3    35  LEU35       0.0001
     38  CD2        3.0810   47.5670   33.1810 C.3    35  LEU35       0.0001
     39  N         -0.4540   48.3650   30.1950 N.am   36  VAL36      -0.1963
     40  CA        -1.2130   48.4810   28.9460 C.3    36  VAL36       0.1727
     41  C         -0.4470   47.7700   27.8450 C.2    36  VAL36       0.2617
     42  O          0.7660   47.9390   27.7420 O.2    36  VAL36      -0.2715
     43  CB        -1.4920   49.9630   28.5880 C.3    36  VAL36       0.0290
     44  CG1       -1.7800   50.1500   27.0980 C.3    36  VAL36       0.0023
     45  CG2       -2.6310   50.5130   29.4280 C.3    36  VAL36       0.0023
     46  N         -1.1510   46.9800   27.0430 N.am   37  GLY37      -0.1940
     47  CA        -0.5580   46.2510   25.9300 C.3    37  GLY37       0.2014
     48  C          0.6440   45.4360   26.3500 C.2    37  GLY37       0.2638
     49  O          0.6860   44.9700   27.4940 O.2    37  GLY37      -0.2714
     50  N          1.6480   45.2870   25.4480 N.am   38  GLN38      -0.1977
     51  CA         2.8740   44.5050   25.7010 C.3    38  GLN38       0.1601
     52  C          2.5010   43.1460   26.3040 C.2    38  GLN38       0.2287
     53  O          3.1320   42.6900   27.2620 O.2    38  GLN38      -0.2864
     54  CB         3.8160   45.2800   26.6480 C.3    38  GLN38       0.0394
     55  CG         5.2910   44.9230   26.5270 C.3    38  GLN38       0.0908
     56  CD         5.8650   45.4340   25.2410 C.2    38  GLN38       0.2608
     57  OE1        5.9650   44.7020   24.2450 O.2    38  GLN38      -0.2717
     58  NE2        6.2060   46.7170   25.2280 N.am   38  GLN38      -0.0878
     59  N          4.5530   40.4450   28.8260 N.3    42  ARG42      -0.1245
     60  CA         3.8930   40.3020   30.1190 C.3    42  ARG42       0.1563
     61  C          3.6430   38.8330   30.4500 C.2    42  ARG42       0.2260
     62  O          3.9470   38.4040   31.5660 O.2    42  ARG42      -0.2867
     63  CB         2.5900   41.1160   30.1640 C.3    42  ARG42       0.0307
     64  CG         2.8110   42.5840   30.5380 C.3    42  ARG42       0.0489
     65  CD         1.6470   43.4820   30.1740 C.3    42  ARG42       0.2205
     66  NE         0.4510   43.1660   30.9520 N.pl3  42  ARG42      -0.0865
     67  CZ        -0.7940   43.3490   30.5250 C.cat  42  ARG42       0.5346
     68  NH1       -1.0230   43.8600   29.3220 N.pl3  42  ARG42       0.1354
     69  NH2       -1.8200   43.0200   31.2970 N.pl3  42  ARG42       0.1354
     70  N         14.0790   51.5120   23.3290 N.3    67  PRO67      -0.2102
     71  CA        13.8480   52.3310   24.5240 C.3    67  PRO67       0.1504
     72  C         12.4150   52.8570   24.6110 C.2    67  PRO67       0.2576
     73  O         11.7980   53.2120   23.5890 O.2    67  PRO67      -0.2718
     74  CB        14.8400   53.4690   24.3440 C.3    67  PRO67       0.0282
     75  CG        15.0440   53.5510   22.8660 C.3    67  PRO67       0.0208
     76  CD        15.0910   52.1390   22.4610 C.3    67  PRO67       0.0893
     77  N         11.8990   52.8680   25.8360 N.am   68  GLY68      -0.1943
     78  CA        10.5500   53.3150   26.1340 C.3    68  GLY68       0.2014
     79  C          9.5020   52.3070   25.7220 C.2    68  GLY68       0.2640
     80  O          8.4730   52.7010   25.1680 O.2    68  GLY68      -0.2714
     81  N          9.7770   50.9910   25.9560 N.am   69  THR69      -0.1936
     82  CA         8.8560   49.8690   25.6670 C.3    69  THR69       0.2028
     83  C          8.5360   49.0650   26.9460 C.2    69  THR69       0.2643
     84  O          8.1040   47.9110   26.8690 O.2    69  THR69      -0.2714
     85  CB         9.3180   48.9820   24.4870 C.3    69  THR69       0.1808
     86  OG1       10.5820   48.4000   24.7830 O.3    69  THR69      -0.2208
     87  CG2        9.3570   49.7210   23.1660 C.3    69  THR69       0.0379
     88  N          8.7480   49.7020   28.0990 N.am   70  GLY70      -0.1939
     89  CA         8.4690   49.1420   29.4130 C.3    70  GLY70       0.2014
     90  C          9.3310   47.9990   29.8970 C.2    70  GLY70       0.2639
     91  O          8.8470   47.1920   30.6800 O.2    70  GLY70      -0.2714
     92  N         10.6090   47.9150   29.4960 N.am   71  LYS71      -0.1963
     93  CA        11.5070   46.8550   30.0120 C.3    71  LYS71       0.1728
     94  C         11.6600   47.0130   31.5450 C.2    71  LYS71       0.2617
     95  O         11.5770   46.0180   32.2620 O.2    71  LYS71      -0.2715
     96  CB        12.9040   46.9010   29.3480 C.3    71  LYS71       0.0311
     97  CG        12.9530   46.3860   27.9150 C.3    71  LYS71       0.0038
     98  CD        14.3600   46.4810   27.3210 C.3    71  LYS71       0.0206
     99  CE        14.7900   47.8810   26.9880 C.3    71  LYS71       0.1093
    100  NZ        13.8760   48.5400   26.0200 N.3    71  LYS71      -0.1314
    101  N         11.8390   48.2820   32.0310 N.am   72  THR72      -0.1937
    102  CA        11.9700   48.6300   33.4470 C.3    72  THR72       0.2028
    103  C         10.6490   48.3950   34.1410 C.2    72  THR72       0.2642
    104  O         10.6370   47.7770   35.2100 O.2    72  THR72      -0.2714
    105  CB        12.3800   50.0800   33.6370 C.3    72  THR72       0.1808
    106  OG1       13.3450   50.4600   32.6490 O.3    72  THR72      -0.2208
    107  CG2       12.8840   50.3520   35.0540 C.3    72  THR72       0.0379
    108  N          9.5350   48.8950   33.5360 N.am   73  ALA73      -0.1963
    109  CA         8.1720   48.7310   34.0480 C.3    73  ALA73       0.1728
    110  C          7.8630   47.2290   34.2800 C.2    73  ALA73       0.2616
    111  O          7.3570   46.8830   35.3450 O.2    73  ALA73      -0.2715
    112  CB         7.1730   49.3570   33.0840 C.3    73  ALA73       0.0334
    113  N          8.2550   46.3420   33.3330 N.am   74  LEU74      -0.1977
    114  CA         8.0830   44.8910   33.4410 C.3    74  LEU74       0.1596
    115  C          8.9250   44.2850   34.5460 C.2    74  LEU74       0.2287
    116  O          8.4260   43.4170   35.2620 O.2    74  LEU74      -0.2864
    117  CB         8.4030   44.1700   32.1260 C.3    74  LEU74       0.0297
    118  CG         7.3830   44.2760   31.0120 C.3    74  LEU74       0.0022
    119  CD1        7.8580   43.5390   29.8030 C.3    74  LEU74       0.0001
    120  CD2        6.0450   43.7300   31.4340 C.3    74  LEU74       0.0001
    121  N         17.6380   44.8920   38.6550 N.3   163  PHE163     -0.1241
    122  CA        17.5000   45.2880   37.2590 C.3   163  PHE163      0.1605
    123  C         18.7030   46.0670   36.7950 C.2   163  PHE163      0.2264
    124  O         18.9840   47.1320   37.3400 O.2   163  PHE163     -0.2867
    125  CB        16.2170   46.0820   37.0380 C.3   163  PHE163      0.0534
    126  CG        15.9960   46.5450   35.6230 C.ar  163  PHE163     -0.0203
    127  CD1       15.6460   45.6440   34.6240 C.ar  163  PHE163     -0.0042
    128  CD2       16.0960   47.8880   35.2950 C.ar  163  PHE163     -0.0042
    129  CE1       15.3790   46.0850   33.3260 C.ar  163  PHE163     -0.0003
    130  CE2       15.8550   48.3230   33.9890 C.ar  163  PHE163     -0.0003
    131  CZ        15.4920   47.4200   33.0170 C.ar  163  PHE163     -0.0000
    132  N         20.1000   47.9320   33.6300 N.3   165  ASP165     -0.1225
    133  CA        19.8730   48.5350   32.3190 C.3   165  ASP165      0.1805
    134  C         21.2370   48.8580   31.6860 C.2   165  ASP165      0.2597
    135  O         22.2610   48.8550   32.3830 O.2   165  ASP165     -0.2718
    136  CB        18.9930   49.7960   32.4230 C.3   165  ASP165      0.1424
    137  CG        18.2320   50.1660   31.1390 C.2   165  ASP165      0.3668
    138  OD1       18.5390   49.5730   30.0600 O.co2 165  ASP165     -0.2456
    139  OD2       17.3260   51.0460   31.2090 O.co2 165  ASP165     -0.2456
    140  N         21.2510   49.1140   30.3580 N.am  166  GLU166     -0.1979
    141  CA        22.4560   49.4300   29.5810 C.3   166  GLU166      0.1602
    142  C         23.5210   48.4050   29.9110 C.2   166  GLU166      0.2287
    143  O         24.5860   48.7470   30.4220 O.2   166  GLU166     -0.2864
    144  CB        22.9410   50.8840   29.8420 C.3   166  GLU166      0.0415
    145  CG        22.0120   51.9810   29.3310 C.3   166  GLU166      0.1163
    146  CD        21.7770   52.0160   27.8310 C.2   166  GLU166      0.3649
    147  OE1       22.7160   52.3810   27.0840 O.co2 166  GLU166     -0.2457
    148  OE2       20.6420   51.6960   27.4050 O.co2 166  GLU166     -0.2457
    149  N         18.7930   47.3210   24.1340 N.3   194  ASN194     -0.1240
    150  CA        18.1970   47.7780   22.8750 C.3   194  ASN194      0.1653
    151  C         19.2650   47.7350   21.7570 C.2   194  ASN194      0.2266
    152  O         19.0800   48.3100   20.6820 O.2   194  ASN194     -0.2867
    153  CB        17.5220   49.1410   22.9850 C.3   194  ASN194      0.1155
    154  CG        18.3970   50.2320   23.4880 C.2   194  ASN194      0.2627
    155  OD1       19.6050   50.2820   23.2260 O.2   194  ASN194     -0.2716
    156  ND2       17.7890   51.1450   24.2240 N.am  194  ASN194     -0.0877
    157  N          4.8270   50.4610   21.1390 N.3   226  TYR226     -0.1241
    158  CA         3.4040   50.5910   21.3760 C.3   226  TYR226      0.1605
    159  C          2.6690   51.1810   20.2170 C.2   226  TYR226      0.2264
    160  O          3.1890   52.0700   19.5300 O.2   226  TYR226     -0.2867
    161  CB         3.1410   51.3880   22.6560 C.3   226  TYR226      0.0534
    162  CG         3.6410   50.6810   23.8920 C.ar  226  TYR226     -0.0201
    163  CD1        3.0060   49.5360   24.3690 C.ar  226  TYR226     -0.0009
    164  CD2        4.7550   51.1460   24.5790 C.ar  226  TYR226     -0.0009
    165  CE1        3.4750   48.8640   25.4920 C.ar  226  TYR226      0.0417
    166  CE2        5.2220   50.4940   25.7180 C.ar  226  TYR226      0.0417
    167  CZ         4.5780   49.3490   26.1700 C.ar  226  TYR226      0.1957
    168  OH         5.0430   48.6570   27.2650 O.3   226  TYR226     -0.2866
    169  N         -1.2350   54.6920   27.9750 N.3   233  ILE233     -0.1245
    170  CA        -0.1680   54.7870   28.9730 C.3   233  ILE233      0.1561
    171  C         -0.0530   56.2310   29.4810 C.2   233  ILE233      0.2260
    172  O         -0.1180   56.4460   30.6950 O.2   233  ILE233     -0.2867
    173  CB         1.1790   54.1820   28.4620 C.3   233  ILE233      0.0252
    174  CG1        1.0310   52.6590   28.2400 C.3   233  ILE233      0.0019
    175  CG2        2.3250   54.4820   29.4390 C.3   233  ILE233      0.0019
    176  CD1        2.0110   52.0310   27.3220 C.3   233  ILE233      0.0001
    177  N         -2.6680   57.1020   31.9670 N.3   236  ILE236     -0.1231
    178  CA        -2.4240   56.5170   33.2980 C.3   236  ILE236      0.1692
    179  C         -1.4510   57.4210   34.0650 C.2   236  ILE236      0.2591
    180  O         -1.7200   57.7760   35.2150 O.2   236  ILE236     -0.2718
    181  CB        -1.9290   55.0410   33.2560 C.3   236  ILE236      0.0266
    182  CG1       -2.9040   54.1400   32.5000 C.3   236  ILE236      0.0019
    183  CG2       -1.6930   54.4900   34.6710 C.3   236  ILE236      0.0020
    184  CD1       -2.2670   52.9040   32.0160 C.3   236  ILE236      0.0001
    185  N         -0.3590   57.8220   33.4040 N.am  237  ARG237     -0.1980
    186  CA         0.6540   58.7000   33.9660 C.3   237  ARG237      0.1597
    187  C          0.0690   60.0500   34.3900 C.2   237  ARG237      0.2287
    188  O          0.3530   60.5170   35.5020 O.2   237  ARG237     -0.2864
    189  CB         1.8160   58.8760   32.9780 C.3   237  ARG237      0.0334
    190  CG         2.6990   57.6320   32.8250 C.3   237  ARG237      0.0492
    191  CD         3.2220   57.0740   34.1470 C.3   237  ARG237      0.2205
    192  NE         3.8740   58.0870   34.9780 N.pl3 237  ARG237     -0.0865
    193  CZ         3.9610   58.0300   36.3020 C.cat 237  ARG237      0.5346
    194  NH1        3.4310   57.0120   36.9660 N.pl3 237  ARG237      0.1354
    195  NH2        4.5780   58.9910   36.9740 N.pl3 237  ARG237      0.1354
    196  N          8.0510   56.8870   24.1530 N.3   262  LEU262     -0.1231
    197  CA         6.9680   57.0010   25.1330 C.3   262  LEU262      0.1693
    198  C          7.4720   57.8030   26.3490 C.2   262  LEU262      0.2591
    199  O          6.7480   58.6820   26.8430 O.2   262  LEU262     -0.2718
    200  CB         6.4500   55.6040   25.5370 C.3   262  LEU262      0.0284
    201  CG         5.5300   55.4830   26.7620 C.3   262  LEU262      0.0019
    202  CD1        4.2050   56.1780   26.5460 C.3   262  LEU262      0.0001
    203  CD2        5.3110   54.0430   27.1080 C.3   262  LEU262      0.0001
    204  N          8.7330   57.5340   26.7760 N.am  263  ARG263     -0.1980
    205  CA         9.3840   58.2310   27.8800 C.3   263  ARG263      0.1597
    206  C          9.3630   59.7610   27.6500 C.2   263  ARG263      0.2287
    207  O          8.9780   60.4950   28.5680 O.2   263  ARG263     -0.2864
    208  CB        10.8210   57.6930   28.1040 C.3   263  ARG263      0.0334
    209  CG        11.6450   58.4540   29.1700 C.3   263  ARG263      0.0492
    210  CD        11.8010   57.6730   30.4650 C.3   263  ARG263      0.2205
    211  NE        12.8300   58.2570   31.3340 N.pl3 263  ARG263     -0.0865
    212  CZ        14.0470   57.7450   31.5070 C.cat 263  ARG263      0.5346
    213  NH1       14.4090   56.6360   30.8670 N.pl3 263  ARG263      0.1354
    214  NH2       14.9140   58.3400   32.3170 N.pl3 263  ARG263      0.1354
    215  N          5.6460   61.1610   28.0260 N.3   266  VAL266     -0.1245
    216  CA         5.2390   61.1450   29.4340 C.3   266  VAL266      0.1561
    217  C          5.8820   62.3320   30.1760 C.2   266  VAL266      0.2260
    218  O          5.2090   63.0430   30.9360 O.2   266  VAL266     -0.2867
    219  CB         5.5340   59.7640   30.0910 C.3   266  VAL266      0.0252
    220  CG1        5.3840   59.8020   31.6100 C.3   266  VAL266      0.0019
    221  CG2        4.6400   58.6870   29.5030 C.3   266  VAL266      0.0019
@<TRIPOS>BOND
     1   160   159    2
     2   159   158    1
     3   152   151    2
     4   157   158    1
     5   158   161    1
     6   151   150    1
     7    76    75    1
     8    76    70    1
     9   161   162    1
    10    75    74    1
    11   150   153    1
    12   150   149    1
    13   153   154    1
    14    87    85    1
    15   155   154    2
    16    70    71    1
    17   154   156   am
    18    73    72    2
    19   162   163   ar
    20   162   164   ar
    21   196   197    1
    22    57    56    2
    23    74    71    1
    24   163   165   ar
    25    85    86    1
    26    85    82    1
    27    71    72    1
    28   164   166   ar
    29    72    77   am
    30   197   200    1
    31   197   198    1
    32    80    79    2
    33    58    56   am
    34    56    55    1
    35    50    51    1
    36    50    48   am
    37   165   167   ar
    38   200   201    1
    39    82    81    1
    40    82    83    1
    41    51    52    1
    42    51    54    1
    43   166   167   ar
    44    79    81   am
    45    79    78    1
    46    77    78    1
    47    47    48    1
    48    47    46    1
    49   100    99    1
    50   167   168    1
    51    52    53    2
    52   198   204   am
    53   198   199    2
    54    48    49    2
    55    55    54    1
    56   202   201    1
    57   201   203    1
    58   204   205    1
    59    84    83    2
    60    83    88   am
    61    99    98    1
    62    46    41   am
    63   147   146   ar
    64    44    43    1
    65    98    97    1
    66   176   174    1
    67   148   146   ar
    68   206   205    1
    69   206   207    2
    70    42    41    2
    71   146   145    1
    72    41    40    1
    73   205   208    1
    74    97    96    1
    75   169   170    1
    76   215   216    1
    77    88    89    1
    78   208   209    1
    79   174   173    1
    80   173   170    1
    81   173   175    1
    82    43    40    1
    83    43    45    1
    84    59    60    1
    85    40    39    1
    86   170   171    1
    87   209   210    1
    88    68    67    1
    89   145   144    1
    90    96    93    1
    91    89    90    1
    92   216   219    1
    93   216   217    1
    94   171   172    2
    95    92    90   am
    96    92    93    1
    97   221   219    1
    98   141   144    1
    99   141   142    1
   100   141   140    1
   101   119   118    1
   102    90    91    2
   103   142   143    2
   104    93    94    1
   105   138   137   ar
   106   219   220    1
   107    60    63    1
   108    60    61    1
   109    63    64    1
   110    65    64    1
   111    65    66    1
   112   217   218    2
   113    39    33   am
   114   140   134   am
   115    61    62    2
   116   210   211    1
   117    67    66    2
   118    67    69    1
   119   213   212    1
   120   118   120    1
   121   118   117    1
   122   137   139   ar
   123   137   136    1
   124    33    34    2
   125    33    32    1
   126   211   212    2
   127   212   214    1
   128    94   101   am
   129    94    95    2
   130   134   133    1
   131   134   135    2
   132   177   178    1
   133   184   182    1
   134   101   102    1
   135   117   114    1
   136   133   136    1
   137   133   132    1
   138    32    35    1
   139    32    31    1
   140   182   181    1
   141    35    36    1
   142   106   105    1
   143   190   189    1
   144   190   191    1
   145   189   186    1
   146   131   129   ar
   147   131   130   ar
   148   112   109    1
   149    38    36    1
   150   181   178    1
   151   181   183    1
   152   178   179    1
   153   129   127   ar
   154   113   114    1
   155   113   110   am
   156    37    36    1
   157   185   186    1
   158   185   179   am
   159   114   115    1
   160   102   105    1
   161   102   103    1
   162   108   109    1
   163   108   103   am
   164    30    29    2
   165   105   107    1
   166    31    29   am
   167   186   187    1
   168   130   128   ar
   169   109   110    1
   170   179   180    2
   171   103   104    2
   172   191   192    1
   173    26    25   ar
   174    26    24   ar
   175    29    28    1
   176   110   111    2
   177   187   188    2
   178     6     5    1
   179   115   116    2
   180    15    13   ar
   181    15    16   ar
   182   127   126   ar
   183    25    23   ar
   184    24    22   ar
   185   192   193    2
   186    13    12   ar
   187   128   126   ar
   188    16    14   ar
   189    28    27    1
   190   126   125    1
   191     4     3    2
   192     5     2    1
   193    23    22   ar
   194    22    21    1
   195   193   194    1
   196   193   195    1
   197    12    14   ar
   198    12    11    1
   199     3     2    1
   200     3     7   am
   201     2     1    1
   202   123   122    1
   203   123   124    2
   204   125   122    1
   205    21    18    1
   206   122   121    1
   207    11     8    1
   208     8     7    1
   209     8     9    1
   210    20    19    2
   211    19    18    1
   212    18    17    1
   213     9    10    2
