@<TRIPOS>MOLECULE
tmp/2xszF00.pdb
 193 185 0 0 0
SMALL
GASTEIGER

@<TRIPOS>ATOM
      1  N         85.3020   46.9090   17.2130 N.3     3  ALA3       -0.1231
      2  CA        84.8780   47.1870   15.8350 C.3     3  ALA3        0.1694
      3  C         85.5110   48.4380   15.2450 C.2     3  ALA3        0.2592
      4  O         85.6570   48.5320   14.0260 O.2     3  ALA3       -0.2718
      5  CB        83.3660   47.2900   15.7600 C.3     3  ALA3        0.0304
      6  N         85.8710   49.4010   16.0990 N.am    4  HIS4       -0.1976
      7  CA        86.4600   50.6630   15.6530 C.3     4  HIS4        0.1656
      8  C         87.9000   50.8280   16.1370 C.2     4  HIS4        0.2291
      9  O         88.3810   51.9590   16.2750 O.2     4  HIS4       -0.2864
     10  CB        85.5670   51.8500   16.0710 C.3     4  HIS4        0.0771
     11  CG        84.1430   51.7140   15.6260 C.ar    4  HIS4        0.0820
     12  ND1       83.7240   52.1890   14.4010 N.ar    4  HIS4       -0.2267
     13  CD2       83.0930   51.1390   16.2530 C.ar    4  HIS4        0.1154
     14  CE1       82.4400   51.8890   14.3220 C.ar    4  HIS4        0.1986
     15  NE2       82.0160   51.2580   15.4140 N.ar    4  HIS4       -0.2212
     16  N         90.7160   50.3970   14.6370 N.3     6  HIS6       -0.1226
     17  CA        91.5640   51.0530   13.6510 C.3     6  HIS6        0.1752
     18  C         91.4500   52.5690   13.6730 C.2     6  HIS6        0.2595
     19  O         92.4080   53.2430   13.3070 O.2     6  HIS6       -0.2718
     20  CB        91.2550   50.5170   12.2530 C.3     6  HIS6        0.0759
     21  CG        89.8230   50.6590   11.8630 C.ar    6  HIS6        0.0818
     22  ND1       88.8520   49.8170   12.3630 N.ar    6  HIS6       -0.2268
     23  CD2       89.2400   51.5530   11.0320 C.ar    6  HIS6        0.1154
     24  CE1       87.7100   50.2330   11.8400 C.ar    6  HIS6        0.1986
     25  NE2       87.8960   51.2740   11.0270 N.ar    6  HIS6       -0.2212
     26  N         90.2740   53.1070   14.0530 N.am    7  ILE7       -0.1980
     27  CA        89.9940   54.5460   14.0880 C.3     7  ILE7        0.1595
     28  C         90.8180   55.1870   15.1910 C.2     7  ILE7        0.2287
     29  O         90.6110   54.8800   16.3690 O.2     7  ILE7       -0.2864
     30  CB        88.4810   54.8480   14.2430 C.3     7  ILE7        0.0276
     31  CG1       87.6060   54.1290   13.1890 C.3     7  ILE7        0.0022
     32  CG2       88.2170   56.3450   14.2840 C.3     7  ILE7        0.0022
     33  CD1       87.6700   54.6430   11.7460 C.3     7  ILE7        0.0001
     34  N         93.1470   55.7290   10.3200 N.3    24  GLY24      -0.1225
     35  CA        92.2520   54.5810   10.2480 C.3    24  GLY24       0.1811
     36  C         90.9860   54.8490    9.4620 C.2    24  GLY24       0.2280
     37  O         90.1910   53.9350    9.2580 O.2    24  GLY24      -0.2866
     38  N         88.8310   55.9460    6.0530 N.3    25  VAL25      -0.1231
     39  CA        88.8330   55.8320    4.6030 C.3    25  VAL25       0.1692
     40  C         87.6430   56.5540    4.0210 C.2    25  VAL25       0.2593
     41  O         86.5260   56.4120    4.5310 O.2    25  VAL25      -0.2718
     42  CB        88.8980   54.3350    4.2020 C.3    25  VAL25       0.0266
     43  CG1       88.1030   54.0270    2.9260 C.3    25  VAL25       0.0020
     44  CG2       90.3450   53.8750    4.0740 C.3    25  VAL25       0.0020
     45  N         87.8870   57.3280    2.9670 N.am   26  GLY26      -0.1942
     46  CA        86.8480   58.0910    2.2850 C.3    26  GLY26       0.2014
     47  C         85.9430   58.8350    3.2530 C.2    26  GLY26       0.2638
     48  O         86.4350   59.4130    4.2270 O.2    26  GLY26      -0.2714
     49  N         84.6130   58.7610    3.0380 N.am   27  GLN27      -0.1977
     50  CA        83.6160   59.4430    3.8630 C.3    27  GLN27       0.1601
     51  C         84.0890   60.8930    4.1470 C.2    27  GLN27       0.2287
     52  O         83.9850   61.3950    5.2710 O.2    27  GLN27      -0.2864
     53  CB        83.3310   58.6280    5.1430 C.3    27  GLN27       0.0394
     54  CG        81.9790   58.9260    5.8120 C.3    27  GLN27       0.0908
     55  CD        80.8150   58.9580    4.8610 C.2    27  GLN27       0.2608
     56  OE1       80.3110   60.0250    4.5010 O.2    27  GLN27      -0.2717
     57  NE2       80.4050   57.8040    4.3890 N.am   27  GLN27      -0.0878
     58  N         83.5910   63.7150    7.4470 N.3    31  ARG31      -0.1245
     59  CA        84.8200   63.7680    8.2260 C.3    31  ARG31       0.1563
     60  C         85.2410   65.2310    8.3710 C.2    31  ARG31       0.2260
     61  O         85.5050   65.6760    9.4870 O.2    31  ARG31      -0.2867
     62  CB        85.9240   62.9450    7.5540 C.3    31  ARG31       0.0307
     63  CG        86.0170   61.5130    8.0340 C.3    31  ARG31       0.0489
     64  CD        86.9780   60.6830    7.1910 C.3    31  ARG31       0.2205
     65  NE        88.3670   61.1530    7.2620 N.pl3  31  ARG31      -0.0865
     66  CZ        89.2870   60.9200    6.3310 C.cat  31  ARG31       0.5346
     67  NH1       88.9810   60.2230    5.2450 N.pl3  31  ARG31       0.1354
     68  NH2       90.5180   61.3900    6.4750 N.pl3  31  ARG31       0.1354
     69  N         72.7710   52.6740    7.3980 N.3    56  PRO56      -0.2102
     70  CA        73.6530   51.8650    8.2540 C.3    56  PRO56       0.1504
     71  C         74.9490   51.4710    7.5600 C.2    56  PRO56       0.2576
     72  O         74.9500   51.2480    6.3480 O.2    56  PRO56      -0.2718
     73  CB        72.7930   50.6530    8.5970 C.3    56  PRO56       0.0282
     74  CG        71.4130   51.0880    8.3610 C.3    56  PRO56       0.0208
     75  CD        71.4900   51.9770    7.1810 C.3    56  PRO56       0.0893
     76  N         76.0350   51.4380    8.3310 N.am   57  GLY57      -0.1943
     77  CA        77.3550   51.0520    7.8460 C.3    57  GLY57       0.2014
     78  C         78.0520   52.0960    7.0020 C.2    57  GLY57       0.2640
     79  O         78.8270   51.7480    6.0940 O.2    57  GLY57      -0.2714
     80  N         77.7750   53.3900    7.3030 N.am   58  THR58      -0.1936
     81  CA        78.3930   54.5370    6.6350 C.3    58  THR58       0.2028
     82  C         79.3750   55.2910    7.5540 C.2    58  THR58       0.2643
     83  O         79.7560   56.4260    7.2710 O.2    58  THR58      -0.2714
     84  CB        77.3490   55.4350    6.0270 C.3    58  THR58       0.1808
     85  OG1       76.4500   55.8110    7.0550 O.3    58  THR58      -0.2208
     86  CG2       76.6250   54.7890    4.8730 C.3    58  THR58       0.0379
     87  N         79.7990   54.6410    8.6270 N.am   59  GLY59      -0.1939
     88  CA        80.7600   55.1920    9.5690 C.3    59  GLY59       0.2014
     89  C         80.2540   56.2730   10.4950 C.2    59  GLY59       0.2639
     90  O         81.0530   57.1030   10.9340 O.2    59  GLY59      -0.2714
     91  N         78.9390   56.2690   10.8270 N.am   60  LYS60      -0.1963
     92  CA        78.3730   57.2370   11.7750 C.3    60  LYS60       0.1728
     93  C         79.0710   57.0460   13.1370 C.2    60  LYS60       0.2617
     94  O         79.6370   58.0030   13.6550 O.2    60  LYS60      -0.2715
     95  CB        76.8490   57.1010   11.9070 C.3    60  LYS60       0.0311
     96  CG        76.0710   57.1880   10.5900 C.3    60  LYS60       0.0038
     97  CD        74.5550   57.0880   10.8060 C.3    60  LYS60       0.0206
     98  CE        74.0620   55.7270   11.2650 C.3    60  LYS60       0.1093
     99  NZ        74.1080   54.7050   10.1910 N.3    60  LYS60      -0.1314
    100  N         79.1340   55.7910   13.6480 N.am   61  THR61      -0.1937
    101  CA        79.8340   55.4640   14.8910 C.3    61  THR61       0.2028
    102  C         81.3320   55.7300   14.7450 C.2    61  THR61       0.2642
    103  O         81.9290   56.3000   15.6710 O.2    61  THR61      -0.2714
    104  CB        79.5970   54.0300   15.3070 C.3    61  THR61       0.1808
    105  OG1       78.2370   53.6790   15.0610 O.3    61  THR61      -0.2208
    106  CG2       79.9590   53.7910   16.7700 C.3    61  THR61       0.0379
    107  N         81.9320   55.3350   13.5820 N.am   62  ALA62      -0.1963
    108  CA        83.3540   55.5330   13.2820 C.3    62  ALA62       0.1728
    109  C         83.7500   57.0210   13.3370 C.2    62  ALA62       0.2616
    110  O         84.7630   57.3400   13.9530 O.2    62  ALA62      -0.2715
    111  CB        83.7090   54.9180   11.9350 C.3    62  ALA62       0.0334
    112  N         82.9250   57.9260   12.7640 N.am   63  ILE63      -0.1977
    113  CA        83.1490   59.3790   12.8030 C.3    63  ILE63       0.1596
    114  C         83.0910   59.8890   14.2500 C.2    63  ILE63       0.2287
    115  O         83.9710   60.6430   14.6650 O.2    63  ILE63      -0.2864
    116  CB        82.1870   60.1290   11.8490 C.3    63  ILE63       0.0276
    117  CG1       82.6990   60.0110   10.4150 C.3    63  ILE63       0.0022
    118  CG2       82.0250   61.5900   12.2360 C.3    63  ILE63       0.0022
    119  CD1       81.6850   60.1270    9.3770 C.3    63  ILE63       0.0001
    120  N         73.2410   55.9890   19.1850 N.3   152  ASP152     -0.1239
    121  CA        72.8820   55.4080   17.8970 C.3   152  ASP152      0.1674
    122  C         71.4080   55.0790   18.0070 C.2   152  ASP152      0.2266
    123  O         70.8810   55.0700   19.1280 O.2   152  ASP152     -0.2867
    124  CB        73.7080   54.1390   17.6290 C.3   152  ASP152      0.1410
    125  CG        73.8950   53.7530   16.1570 C.2   152  ASP152      0.3668
    126  OD1       73.1020   54.2430   15.2940 O.co2 152  ASP152     -0.2456
    127  OD2       74.8090   52.9280   15.8680 O.co2 152  ASP152     -0.2456
    128  N         79.2340   54.0810    0.7560 N.3   212  TYR212     -0.1241
    129  CA        80.5520   53.7530    0.1970 C.3   212  TYR212      0.1605
    130  C         80.5500   53.1540   -1.1860 C.2   212  TYR212      0.2264
    131  O         79.6150   52.4460   -1.5750 O.2   212  TYR212     -0.2867
    132  CB        81.3830   52.8790    1.1510 C.3   212  TYR212      0.0534
    133  CG        81.6610   53.5300    2.4840 C.ar  212  TYR212     -0.0201
    134  CD1       82.4150   54.6980    2.5680 C.ar  212  TYR212     -0.0009
    135  CD2       81.1710   52.9800    3.6660 C.ar  212  TYR212     -0.0009
    136  CE1       82.6600   55.3110    3.7940 C.ar  212  TYR212      0.0417
    137  CE2       81.4140   53.5810    4.8960 C.ar  212  TYR212      0.0417
    138  CZ        82.1520   54.7520    4.9540 C.ar  212  TYR212      0.1957
    139  OH        82.3810   55.3570    6.1590 O.3   212  TYR212     -0.2866
    140  N         87.8490   49.3900    3.6770 N.3   220  ILE220     -0.1245
    141  CA        87.3720   49.1860    5.0410 C.3   220  ILE220      0.1561
    142  C         87.5990   47.7270    5.4110 C.2   220  ILE220      0.2260
    143  O         88.1870   47.4600    6.4720 O.2   220  ILE220     -0.2867
    144  CB        85.9480   49.7600    5.3110 C.3   220  ILE220      0.0252
    145  CG1       85.9960   51.3100    5.2860 C.3   220  ILE220      0.0019
    146  CG2       85.4040   49.2790    6.6510 C.3   220  ILE220      0.0019
    147  CD1       84.7970   51.9920    4.8140 C.3   220  ILE220      0.0001
    148  N         91.2160   46.9700    6.0020 N.3   223  ILE223     -0.1231
    149  CA        91.5830   47.5110    7.3140 C.3   223  ILE223      0.1692
    150  C         91.1210   46.5690    8.4220 C.2   223  ILE223      0.2591
    151  O         91.9040   46.2470    9.3270 O.2   223  ILE223     -0.2718
    152  CB        91.0490   48.9560    7.5090 C.3   223  ILE223      0.0266
    153  CG1       91.8650   49.9710    6.6860 C.3   223  ILE223      0.0019
    154  CG2       91.0510   49.3450    8.9730 C.3   223  ILE223      0.0020
    155  CD1       91.2080   51.3370    6.5430 C.3   223  ILE223      0.0001
    156  N         89.8500   46.1210    8.3380 N.am  224  ARG224     -0.1980
    157  CA        89.2480   45.2200    9.3150 C.3   224  ARG224      0.1597
    158  C         89.9320   43.8620    9.4130 C.2   224  ARG224      0.2287
    159  O         89.9940   43.2940   10.5060 O.2   224  ARG224     -0.2864
    160  CB        87.7390   45.0810    9.0860 C.3   224  ARG224      0.0334
    161  CG        86.9250   46.3200    9.5010 C.3   224  ARG224      0.0492
    162  CD        87.2430   46.8510   10.8950 C.3   224  ARG224      0.2205
    163  NE        87.2430   45.8000   11.9150 N.pl3 224  ARG224     -0.0865
    164  CZ        87.8480   45.9020   13.0920 C.cat 224  ARG224      0.5346
    165  NH1       88.4950   47.0090   13.4200 N.pl3 224  ARG224      0.1354
    166  NH2       87.7990   44.9000   13.9580 N.pl3 224  ARG224      0.1354
    167  N         77.8740   46.1410    4.9520 N.3   248  LEU248     -0.1231
    168  CA        79.2840   46.1400    5.3240 C.3   248  LEU248      0.1693
    169  C         79.4290   45.2900    6.6070 C.2   248  LEU248      0.2591
    170  O         80.3970   44.5320    6.7160 O.2   248  LEU248     -0.2718
    171  CB        79.7630   47.5920    5.5230 C.3   248  LEU248      0.0284
    172  CG        81.2010   47.8490    5.9740 C.3   248  LEU248      0.0019
    173  CD1       82.2130   47.4380    4.9190 C.3   248  LEU248      0.0001
    174  CD2       81.3740   49.3020    6.3580 C.3   248  LEU248      0.0001
    175  N         78.4130   45.3590    7.5180 N.am  249  ARG249     -0.1980
    176  CA        78.3440   44.5980    8.7580 C.3   249  ARG249      0.1597
    177  C         78.4460   43.1190    8.4380 C.2   249  ARG249      0.2287
    178  O         79.2450   42.4170    9.0640 O.2   249  ARG249     -0.2864
    179  CB        77.0250   44.9010    9.4970 C.3   249  ARG249      0.0334
    180  CG        76.5780   43.8570   10.5540 C.3   249  ARG249      0.0492
    181  CD        75.0600   43.7780   10.7280 C.3   249  ARG249      0.2205
    182  NE        74.3600   43.0810    9.6380 N.pl3 249  ARG249     -0.0865
    183  CZ        74.1190   41.7700    9.6030 C.cat 249  ARG249      0.5346
    184  NH1       74.5320   40.9830   10.5910 N.pl3 249  ARG249      0.1354
    185  NH2       73.4710   41.2350    8.5760 N.pl3 249  ARG249      0.1354
    186  N         81.9040   42.1820    6.9680 N.3   252  ILE252     -0.1245
    187  CA        82.8600   42.1380    8.0760 C.3   252  ILE252      0.1561
    188  C         82.6070   40.8750    8.9180 C.2   252  ILE252      0.2260
    189  O         83.5570   40.1490    9.2300 O.2   252  ILE252     -0.2867
    190  CB        82.8500   43.4570    8.9070 C.3   252  ILE252      0.0252
    191  CG1       83.3020   44.6640    8.0650 C.3   252  ILE252      0.0019
    192  CG2       83.7180   43.3430   10.1630 C.3   252  ILE252      0.0019
    193  CD1       82.9710   45.9980    8.7140 C.3   252  ILE252      0.0001
@<TRIPOS>BOND
     1   131   130    2
     2   130   129    1
     3   129   128    1
     4   129   132    1
     5   132   133    1
     6    46    45    1
     7    46    47    1
     8   133   134   ar
     9   133   135   ar
    10   134   136   ar
    11    43    42    1
    12    45    40   am
    13    49    47   am
    14    49    50    1
    15    47    48    2
    16   135   137   ar
    17   140   141    1
    18   136   138   ar
    19    50    51    1
    20    50    53    1
    21    40    41    2
    22    40    39    1
    23    44    42    1
    24    51    52    2
    25    42    39    1
    26    57    55   am
    27    56    55    2
    28    39    38    1
    29   147   145    1
    30    55    54    1
    31    86    84    1
    32   137   138   ar
    33   173   172    1
    34   167   168    1
    35   138   139    1
    36   141   144    1
    37   141   142    1
    38    53    54    1
    39    67    66    1
    40   145   144    1
    41   144   146    1
    42   168   171    1
    43   168   169    1
    44   142   143    2
    45   171   172    1
    46   172   174    1
    47   148   149    1
    48    84    81    1
    49    84    85    1
    50    79    78    2
    51    66    68    1
    52    66    65    2
    53    72    71    2
    54   155   153    1
    55   169   170    2
    56   169   175   am
    57    81    80    1
    58    81    82    1
    59   153   152    1
    60   186   187    1
    61    78    80   am
    62    78    77    1
    63    75    69    1
    64    75    74    1
    65    64    65    1
    66    64    63    1
    67    83    82    2
    68   149   152    1
    69   149   150    1
    70    69    70    1
    71    58    59    1
    72   152   154    1
    73   175   176    1
    74    62    63    1
    75    62    59    1
    76    82    87   am
    77    71    70    1
    78    71    76   am
    79    77    76    1
    80   191   193    1
    81   191   190    1
    82   187   190    1
    83   187   188    1
    84    59    60    1
    85    70    73    1
    86   156   150   am
    87   156   157    1
    88    74    73    1
    89    60    61    2
    90   150   151    2
    91   177   176    1
    92   177   178    2
    93   185   183    1
    94    87    88    1
    95   176   179    1
    96   190   192    1
    97   188   189    2
    98   160   157    1
    99   160   161    1
   100    37    36    2
   101   157   158    1
   102   119   117    1
   103   158   159    2
   104    36    35    1
   105   179   180    1
   106   161   162    1
   107    88    89    1
   108   183   182    2
   109   183   184    1
   110   182   181    1
   111    99    98    1
   112    35    34    1
   113   117   116    1
   114    89    91   am
   115    89    90    2
   116   180   181    1
   117    96    97    1
   118    96    95    1
   119    97    98    1
   120    91    92    1
   121   162   163    1
   122    25    23   ar
   123    25    24   ar
   124    23    21   ar
   125    33    31    1
   126    92    95    1
   127    92    93    1
   128    24    22   ar
   129   116   118    1
   130   116   113    1
   131    21    20    1
   132    21    22   ar
   133   163   164    2
   134   111   108    1
   135    20    17    1
   136   112   113    1
   137   112   109   am
   138   113   114    1
   139   164   165    1
   140   164   166    1
   141    93   100   am
   142    93    94    2
   143    31    30    1
   144   108   109    1
   145   108   107    1
   146    19    18    2
   147   109   110    2
   148   107   102   am
   149   100   101    1
   150    17    18    1
   151    17    16    1
   152    18    26   am
   153     4     3    2
   154    26    27    1
   155    27    30    1
   156    27    28    1
   157    30    32    1
   158   114   115    2
   159    14    12   ar
   160    14    15   ar
   161    12    11   ar
   162   102   101    1
   163   102   103    2
   164   101   104    1
   165   105   104    1
   166    28    29    2
   167     3     2    1
   168     3     6   am
   169   126   125   ar
   170   104   106    1
   171    15    13   ar
   172    11    10    1
   173    11    13   ar
   174     7    10    1
   175     7     6    1
   176     7     8    1
   177     5     2    1
   178     2     1    1
   179   127   125   ar
   180     8     9    2
   181   125   124    1
   182   124   121    1
   183   121   122    1
   184   121   120    1
   185   122   123    2
