@<TRIPOS>MOLECULE
tmp/2xt3A00.pdb
 123 120 0 0 0
SMALL
GASTEIGER

@<TRIPOS>ATOM
      1  N        -19.4310  -12.0940    9.9540 N.3    10  ARG10      -0.1231
      2  CA       -19.9150  -11.7400    8.6320 C.3    10  ARG10       0.1694
      3  C        -18.7710  -11.8070    7.6330 C.2    10  ARG10       0.2592
      4  O        -17.7800  -11.0980    7.7500 O.2    10  ARG10      -0.2718
      5  CB       -20.6080  -10.3700    8.5800 C.3    10  ARG10       0.0321
      6  CG       -21.3300  -10.1900    7.2320 C.3    10  ARG10       0.0489
      7  CD       -21.7830   -8.7450    6.9270 C.3    10  ARG10       0.2205
      8  NE       -22.6690   -8.7800    5.7590 N.pl3  10  ARG10      -0.0865
      9  CZ       -23.3020   -7.7370    5.2350 C.cat  10  ARG10       0.5346
     10  NH1      -24.0860   -7.9260    4.1880 N.pl3  10  ARG10       0.1354
     11  NH2      -23.1460   -6.5160    5.7480 N.pl3  10  ARG10       0.1354
     12  N        -18.9160  -12.6850    6.6540 N.am   11  VAL11      -0.1966
     13  CA       -17.8930  -12.8350    5.6320 C.3    11  VAL11       0.1727
     14  C        -18.3590  -12.1110    4.3860 C.2    11  VAL11       0.2616
     15  O        -19.4490  -12.3750    3.8840 O.2    11  VAL11      -0.2715
     16  CB       -17.6270  -14.3270    5.3100 C.3    11  VAL11       0.0290
     17  CG1      -16.4590  -14.4550    4.3340 C.3    11  VAL11       0.0023
     18  CG2      -17.3080  -15.0790    6.5920 C.3    11  VAL11       0.0023
     19  N        -17.5470  -11.1750    3.8910 N.am   12  ARG12      -0.1964
     20  CA       -17.9300  -10.4240    2.7210 C.3    12  ARG12       0.1714
     21  C        -17.4160  -11.1800    1.4910 C.2    12  ARG12       0.2458
     22  O        -16.5670  -12.0640    1.6300 O.2    12  ARG12      -0.2730
     23  CB       -17.3610   -8.9830    2.7750 C.3    12  ARG12       0.0347
     24  CG       -15.8300   -8.8380    2.6850 C.3    12  ARG12       0.0492
     25  CD       -15.4400   -7.4730    2.0650 C.3    12  ARG12       0.2205
     26  NE       -14.0230   -7.1050    2.2600 N.pl3  12  ARG12      -0.0865
     27  CZ       -12.9920   -7.6630    1.6120 C.cat  12  ARG12       0.5346
     28  NH1      -11.7480   -7.2440    1.8290 N.pl3  12  ARG12       0.1354
     29  NH2      -13.1940   -8.6510    0.7460 N.pl3  12  ARG12       0.1354
     30  N        -17.9540  -10.8500    0.3010 N.am   13  PRO13      -0.2727
     31  CA       -17.4160  -11.3970   -0.9560 C.3    13  PRO13       0.1402
     32  C        -15.9660  -11.0020   -1.1580 C.2    13  PRO13       0.2269
     33  O        -15.4760  -10.0250   -0.6170 O.2    13  PRO13      -0.2865
     34  CB       -18.2460  -10.6820   -2.0310 C.3    13  PRO13       0.0296
     35  CG       -19.4450  -10.1850   -1.3540 C.3    13  PRO13       0.0237
     36  CD       -19.0830   -9.9320    0.0600 C.3    13  PRO13       0.0939
     37  N        -13.5150   -9.0970   -3.2740 N.3    15  LEU15      -0.1245
     38  CA       -13.7510   -7.8770   -4.0320 C.3    15  LEU15       0.1561
     39  C        -13.0310   -7.9980   -5.3720 C.2    15  LEU15       0.2260
     40  O        -12.0130   -8.6710   -5.4560 O.2    15  LEU15      -0.2867
     41  CB       -13.2240   -6.6680   -3.2620 C.3    15  LEU15       0.0270
     42  CG       -13.7920   -6.4350   -1.8510 C.3    15  LEU15       0.0019
     43  CD1      -13.0720   -5.3040   -1.1500 C.3    15  LEU15       0.0001
     44  CD2      -15.2680   -6.1600   -1.8850 C.3    15  LEU15       0.0001
     45  N        -21.2010  -14.6880    2.2570 N.3    52  GLU52      -0.1245
     46  CA       -21.0630  -13.5490    1.3500 C.3    52  GLU52       0.1567
     47  C        -22.3730  -13.2360    0.6700 C.2    52  GLU52       0.2260
     48  O        -22.5900  -12.1280    0.2230 O.2    52  GLU52      -0.2867
     49  CB       -19.9900  -13.8280    0.2850 C.3    52  GLU52       0.0388
     50  CG       -20.3360  -15.0650   -0.5560 C.3    52  GLU52       0.1160
     51  CD       -19.3050  -15.3960   -1.6210 C.2    52  GLU52       0.3649
     52  OE1      -18.2150  -14.7950   -1.6180 O.co2  52  GLU52      -0.2457
     53  OE2      -19.5930  -16.2800   -2.4600 O.co2  52  GLU52      -0.2457
     54  N        -25.3390  -13.2800    2.1610 N.3    54  ALA54      -0.1245
     55  CA       -26.2940  -12.6750    3.0960 C.3    54  ALA54       0.1562
     56  C        -26.3550  -11.1560    2.9090 C.2    54  ALA54       0.2260
     57  O        -25.3570  -10.4510    3.0660 O.2    54  ALA54      -0.2867
     58  CB       -25.9280  -13.0280    4.5460 C.3    54  ALA54       0.0290
     59  N        -10.6520   -6.0540   10.4590 N.3    84  GLN84      -0.1231
     60  CA        -9.5810   -5.2360    9.8750 C.3    84  GLN84       0.1698
     61  C        -10.1640   -4.1960    8.9230 C.2    84  GLN84       0.2593
     62  O        -11.2650   -4.3310    8.3940 O.2    84  GLN84      -0.2718
     63  CB        -8.5560   -6.1260    9.1380 C.3    84  GLN84       0.0381
     64  CG        -9.0020   -6.4390    7.7500 C.3    84  GLN84       0.0905
     65  CD        -8.0560   -7.3670    7.0140 C.2    84  GLN84       0.2608
     66  OE1       -8.4440   -8.4560    6.6310 O.2    84  GLN84      -0.2717
     67  NE2       -6.8230   -6.9290    6.8020 N.am   84  GLN84      -0.0878
     68  N         -9.4110   -3.1330    8.6720 N.am   85  THR85      -0.1939
     69  CA        -9.8300   -2.1880    7.6480 C.3    85  THR85       0.2028
     70  C        -10.0280   -2.9190    6.3450 C.2    85  THR85       0.2643
     71  O         -9.1890   -3.7380    5.9650 O.2    85  THR85      -0.2714
     72  CB        -8.7430   -1.0980    7.4380 C.3    85  THR85       0.1808
     73  OG1       -8.4350   -0.5020    8.6970 O.3    85  THR85      -0.2208
     74  CG2       -9.2120   -0.0300    6.4570 C.3    85  THR85       0.0379
     75  N        -11.1250   -2.6210    5.6590 N.am   86  GLY86      -0.1939
     76  CA       -11.4470   -3.2670    4.3980 C.3    86  GLY86       0.2014
     77  C        -12.3750   -4.4720    4.5430 C.2    86  GLY86       0.2640
     78  O        -12.8670   -4.9760    3.5490 O.2    86  GLY86      -0.2714
     79  N        -12.6380   -4.8950    5.7790 N.am   87  SER87      -0.1935
     80  CA       -13.4580   -6.0950    6.0360 C.3    87  SER87       0.2055
     81  C        -14.9840   -5.9210    5.8760 C.2    87  SER87       0.2644
     82  O        -15.7040   -6.8890    5.5610 O.2    87  SER87      -0.2714
     83  CB       -13.0770   -6.7280    7.3990 C.3    87  SER87       0.2130
     84  OG       -13.4020   -5.8700    8.4910 O.3    87  SER87      -0.2179
     85  N        -15.4850   -4.7000    6.0960 N.am   88  GLY88      -0.1939
     86  CA       -16.8900   -4.3780    5.8560 C.3    88  GLY88       0.2014
     87  C        -17.6790   -3.7820    7.0400 C.2    88  GLY88       0.2639
     88  O        -18.9120   -3.8040    7.0330 O.2    88  GLY88      -0.2714
     89  N        -16.9650   -3.2500    8.0220 N.am   89  LYS89      -0.1963
     90  CA       -17.5870   -2.6920    9.2260 C.3    89  LYS89       0.1728
     91  C        -18.5370   -1.5540    8.8930 C.2    89  LYS89       0.2617
     92  O        -19.6850   -1.5570    9.2980 O.2    89  LYS89      -0.2715
     93  CB       -16.5120   -2.1810   10.1840 C.3    89  LYS89       0.0311
     94  CG       -15.5750   -3.2260   10.7350 C.3    89  LYS89       0.0038
     95  CD       -14.5310   -2.6180   11.6910 C.3    89  LYS89       0.0206
     96  CE       -13.6310   -1.5710   11.0040 C.3    89  LYS89       0.1093
     97  NZ       -12.8070   -2.1610    9.8850 N.3    89  LYS89      -0.1314
     98  N        -18.0580   -0.5790    8.1150 N.am   90  THR90      -0.1937
     99  CA       -18.8860    0.5890    7.8040 C.3    90  THR90       0.2028
    100  C        -20.0360    0.2240    6.9130 C.2    90  THR90       0.2642
    101  O        -21.1450    0.7310    7.0630 O.2    90  THR90      -0.2714
    102  CB       -18.0280    1.6930    7.1600 C.3    90  THR90       0.1808
    103  OG1      -16.9550    1.9720    8.0530 O.3    90  THR90      -0.2208
    104  CG2      -18.8360    2.9700    6.9230 C.3    90  THR90       0.0379
    105  N        -19.7780   -0.6740    5.9630 N.am   91  TYR91      -0.1959
    106  CA       -20.8120   -1.1430    5.0620 C.3    91  TYR91       0.1771
    107  C        -21.9040   -1.8170    5.8780 C.2    91  TYR91       0.2620
    108  O        -23.1080   -1.6430    5.6420 O.2    91  TYR91      -0.2715
    109  CB       -20.2180   -2.1570    4.0570 C.3    91  TYR91       0.0574
    110  CG       -21.2490   -2.7910    3.1540 C.ar   91  TYR91      -0.0198
    111  CD1      -21.7590   -2.1000    2.0540 C.ar   91  TYR91      -0.0009
    112  CD2      -21.7160   -4.0600    3.3950 C.ar   91  TYR91      -0.0009
    113  CE1      -22.6950   -2.6730    1.2290 C.ar   91  TYR91       0.0417
    114  CE2      -22.6620   -4.6370    2.5810 C.ar   91  TYR91       0.0417
    115  CZ       -23.1470   -3.9430    1.4920 C.ar   91  TYR91       0.1957
    116  OH       -24.0860   -4.5310    0.6770 O.3    91  TYR91      -0.2866
    117  N        -21.4610   -2.6240    6.8260 N.am   92  THR92      -0.1951
    118  CA       -22.3730   -3.3540    7.6990 C.3    92  THR92       0.1897
    119  C        -23.1640   -2.4040    8.6170 C.2    92  THR92       0.2313
    120  O        -24.3890   -2.4670    8.6630 O.2    92  THR92      -0.2863
    121  CB       -21.6030   -4.4270    8.4870 C.3    92  THR92       0.1794
    122  OG1      -21.0790   -5.3960    7.5650 O.3    92  THR92      -0.2208
    123  CG2      -22.5190   -5.1370    9.4780 C.3    92  THR92       0.0378
@<TRIPOS>BOND
     1    40    39    2
     2    39    38    1
     3    38    37    1
     4    38    41    1
     5    41    42    1
     6    53    51   ar
     7    34    35    1
     8    34    31    1
     9    44    42    1
    10    42    43    1
    11    51    52   ar
    12    51    50    1
    13    35    36    1
    14    32    31    1
    15    32    33    2
    16    31    30    1
    17    50    49    1
    18    36    30    1
    19    48    47    2
    20    49    46    1
    21    30    21   am
    22    47    46    1
    23   116   115    1
    24    29    27    1
    25   113   115   ar
    26   113   111   ar
    27    46    45    1
    28    21    22    2
    29    21    20    1
    30   115   114   ar
    31    27    28    1
    32    27    26    2
    33   111   110   ar
    34    25    26    1
    35    25    24    1
    36    54    55    1
    37   114   112   ar
    38    24    23    1
    39    20    23    1
    40    20    19    1
    41    56    57    2
    42    56    55    1
    43    55    58    1
    44   110   112   ar
    45   110   109    1
    46    78    77    2
    47    15    14    2
    48    19    14   am
    49   109   106    1
    50    10     9    1
    51    17    16    1
    52    14    13    1
    53    76    77    1
    54    76    75    1
    55    77    79   am
    56   106   107    1
    57   106   105    1
    58     9    11    1
    59     9     8    2
    60    16    13    1
    61    16    18    1
    62    82    81    2
    63    13    12    1
    64   108   107    2
    65    75    70   am
    66     8     7    1
    67    79    80    1
    68    86    85    1
    69    86    87    1
    70    81    80    1
    71    81    85   am
    72   107   117   am
    73   105   100   am
    74    71    70    2
    75    80    83    1
    76    70    69    1
    77    74    72    1
    78    66    65    2
    79    12     3   am
    80    67    65   am
    81   117   118    1
    82   100   101    2
    83   100    99    1
    84   104   102    1
    85     7     6    1
    86    65    64    1
    87    88    87    2
    88    87    89   am
    89   102    99    1
    90   102   103    1
    91     6     5    1
    92    83    84    1
    93    72    69    1
    94    72    73    1
    95   122   121    1
    96     3     4    2
    97     3     2    1
    98    69    68    1
    99   118   121    1
   100   118   119    1
   101    64    63    1
   102    99    98    1
   103    89    90    1
   104    98    91   am
   105    62    61    2
   106   121   123    1
   107     5     2    1
   108   119   120    2
   109     2     1    1
   110    68    61   am
   111    91    90    1
   112    91    92    2
   113    61    60    1
   114    63    60    1
   115    90    93    1
   116    60    59    1
   117    97    96    1
   118    93    94    1
   119    94    95    1
   120    96    95    1
