@<TRIPOS>MOLECULE
tmp/2xt6B01.pdb
 135 130 0 0 0
SMALL
GASTEIGER

@<TRIPOS>ATOM
      1  N         25.8320   66.3460    4.1550 N.3   337  HIS337     -0.1226
      2  CA        27.1470   65.7420    4.3810 C.3   337  HIS337      0.1752
      3  C         28.1040   66.6310    5.2020 C.2   337  HIS337      0.2595
      4  O         28.9640   66.0860    5.9060 O.2   337  HIS337     -0.2718
      5  CB        27.8060   65.3890    3.0250 C.3   337  HIS337      0.0759
      6  CG        28.1370   66.5560    2.1920 C.ar  337  HIS337      0.0818
      7  ND1       27.1640   67.0390    1.2370 N.ar  337  HIS337     -0.2268
      8  CD2       29.2370   67.3210    2.0890 C.ar  337  HIS337      0.1154
      9  CE1       27.7410   68.0720    0.6730 C.ar  337  HIS337      0.1986
     10  NE2       28.9600   68.2590    1.1310 N.ar  337  HIS337     -0.2212
     11  N         27.9920   67.9770    5.0860 N.am  338  ARG338     -0.1980
     12  CA        28.8820   68.9180    5.7930 C.3   338  ARG338      0.1597
     13  C         28.8940   68.7150    7.3370 C.2   338  ARG338      0.2287
     14  O         27.9220   69.0420    8.0400 O.2   338  ARG338     -0.2864
     15  CB        28.5530   70.3890    5.4730 C.3   338  ARG338      0.0334
     16  CG        29.7070   71.3090    5.8950 C.3   338  ARG338      0.0492
     17  CD        29.5590   72.7600    5.4890 C.3   338  ARG338      0.2205
     18  NE        29.5240   72.9320    4.0270 N.pl3 338  ARG338     -0.0865
     19  CZ        30.5840   72.8970    3.2310 C.cat 338  ARG338      0.5346
     20  NH1       31.7910   72.7050    3.7360 N.pl3 338  ARG338      0.1354
     21  NH2       30.4430   73.0560    1.9210 N.pl3 338  ARG338      0.1354
     22  N         22.3980   62.5820   -1.7580 N.3   387  SER387     -0.1202
     23  CA        23.1050   63.8230   -1.9980 C.3   387  SER387      0.2020
     24  C         22.0940   64.9070   -2.3690 C.2   387  SER387      0.2619
     25  O         22.4190   66.1020   -2.3070 O.2   387  SER387     -0.2717
     26  CB        24.1590   63.6310   -3.0780 C.3   387  SER387      0.2103
     27  OG        25.2180   62.8280   -2.5780 O.3   387  SER387     -0.2182
     28  N         20.8440   64.4820   -2.7110 N.am  388  HIS388     -0.1961
     29  CA        19.7250   65.3580   -3.0330 C.3   388  HIS388      0.1787
     30  C         19.4340   66.1290   -1.7710 C.2   388  HIS388      0.2620
     31  O         18.8950   65.5700   -0.8080 O.2   388  HIS388     -0.2715
     32  CB        18.5280   64.5250   -3.5260 C.3   388  HIS388      0.0785
     33  CG        18.7570   63.9510   -4.8710 C.ar  388  HIS388      0.0821
     34  ND1       19.7940   63.0470   -5.1060 N.ar  388  HIS388     -0.2267
     35  CD2       18.1420   64.2300   -6.0460 C.ar  388  HIS388      0.1154
     36  CE1       19.7830   62.8240   -6.4190 C.ar  388  HIS388      0.1986
     37  NE2       18.8000   63.5000   -7.0250 N.ar  388  HIS388     -0.2212
     38  N         19.8760   67.3740   -1.7300 N.am  389  LEU389     -0.1977
     39  CA        19.7400   68.2380   -0.5610 C.3   389  LEU389      0.1596
     40  C         18.2970   68.4920   -0.2010 C.2   389  LEU389      0.2287
     41  O         17.4690   68.7200   -1.0760 O.2   389  LEU389     -0.2864
     42  CB        20.4660   69.5970   -0.7370 C.3   389  LEU389      0.0297
     43  CG        21.9900   69.5700   -0.8590 C.3   389  LEU389      0.0022
     44  CD1       22.4520   70.7960   -1.5180 C.3   389  LEU389      0.0001
     45  CD2       22.6410   69.4980    0.5020 C.3   389  LEU389      0.0001
     46  N         21.7760   73.7380    4.9330 N.3   427  GLY427     -0.1210
     47  CA        22.7360   74.7170    4.4560 C.3   427  GLY427      0.1956
     48  C         21.8850   75.8910    4.0450 C.2   427  GLY427      0.2612
     49  O         20.6960   75.7160    3.7840 O.2   427  GLY427     -0.2717
     50  N         22.4530   77.0860    3.9730 N.am  428  ASP428     -0.1959
     51  CA        21.6970   78.2920    3.6380 C.3   428  ASP428      0.1840
     52  C         21.1010   78.3050    2.2310 C.2   428  ASP428      0.2622
     53  O         19.9570   78.7470    2.0890 O.2   428  ASP428     -0.2715
     54  CB        22.5760   79.5190    3.8220 C.3   428  ASP428      0.1450
     55  CG        23.9720   79.3790    3.2510 C.2   428  ASP428      0.3671
     56  OD1       24.7780   78.5710    3.8280 O.co2 428  ASP428     -0.2456
     57  OD2       24.2840   80.1080    2.2590 O.co2 428  ASP428     -0.2456
     58  N         21.8490   77.8860    1.1870 N.am  429  ALA429     -0.1963
     59  CA        21.3110   77.9260   -0.1980 C.3   429  ALA429      0.1728
     60  C         20.1750   76.9010   -0.4120 C.2   429  ALA429      0.2616
     61  O         19.1610   77.2550   -0.9970 O.2   429  ALA429     -0.2715
     62  CB        22.4110   77.7020   -1.2260 C.3   429  ALA429      0.0334
     63  N         20.3320   75.6600    0.1010 N.am  430  ALA430     -0.1977
     64  CA        19.3710   74.5820   -0.0460 C.3   430  ALA430      0.1597
     65  C         18.0700   74.8880    0.7080 C.2   430  ALA430      0.2287
     66  O         16.9930   74.6940    0.1530 O.2   430  ALA430     -0.2864
     67  CB        19.9890   73.2750    0.4330 C.3   430  ALA430      0.0319
     68  N         15.0320   74.9940   -2.0830 N.3   434  GLN434     -0.1245
     69  CA        14.3190   73.7020   -2.2340 C.3   434  GLN434      0.1566
     70  C         12.8930   73.7390   -1.6540 C.2   434  GLN434      0.2260
     71  O         12.6950   73.9570   -0.4580 O.2   434  GLN434     -0.2867
     72  CB        15.1290   72.5390   -1.5910 C.3   434  GLN434      0.0367
     73  CG        16.4350   72.1700   -2.3510 C.3   434  GLN434      0.0905
     74  CD        16.2090   71.3750   -3.6260 C.2   434  GLN434      0.2608
     75  OE1       15.6820   70.2690   -3.6130 O.2   434  GLN434     -0.2717
     76  NE2       16.6070   71.8980   -4.7620 N.am  434  GLN434     -0.0878
     77  N         23.2450   75.8970    8.9990 N.3   459  VAL459     -0.1245
     78  CA        24.6880   76.1590    8.9550 C.3   459  VAL459      0.1561
     79  C         24.8840   77.1280    7.7890 C.2   459  VAL459      0.2260
     80  O         25.0070   76.7190    6.6320 O.2   459  VAL459     -0.2867
     81  CB        25.4950   74.8550    8.8040 C.3   459  VAL459      0.0252
     82  CG1       26.9960   75.1410    8.7440 C.3   459  VAL459      0.0019
     83  CG2       25.1580   73.8620    9.9270 C.3   459  VAL459      0.0019
     84  N         26.9900   79.4810    6.0670 N.3   461  ASN461     -0.1240
     85  CA        28.3410   79.9100    5.7530 C.3   461  ASN461      0.1653
     86  C         28.3380   81.0390    4.6860 C.2   461  ASN461      0.2266
     87  O         29.4050   81.4000    4.1600 O.2   461  ASN461     -0.2867
     88  CB        29.1800   78.7220    5.3260 C.3   461  ASN461      0.1155
     89  CG        28.5110   77.7770    4.3660 C.2   461  ASN461      0.2627
     90  OD1       27.6910   78.1470    3.4970 O.2   461  ASN461     -0.2716
     91  ND2       28.8770   76.5270    4.5070 N.am  461  ASN461     -0.0877
     92  N         27.4920   81.3070    1.5920 N.3   463  ILE463     -0.1231
     93  CA        27.9150   80.8640    0.2640 C.3   463  ILE463      0.1692
     94  C         27.2230   79.5080   -0.0430 C.2   463  ILE463      0.2593
     95  O         26.8290   78.7790    0.8780 O.2   463  ILE463     -0.2718
     96  CB        29.4690   80.7790    0.2220 C.3   463  ILE463      0.0266
     97  CG1       30.0130   80.6670   -1.2000 C.3   463  ILE463      0.0019
     98  CG2       30.0170   79.6900    1.1670 C.3   463  ILE463      0.0020
     99  CD1       31.4290   80.7980   -1.3270 C.3   463  ILE463      0.0001
    100  N         27.0190   79.2480   -1.3300 N.am  464  GLY464     -0.1942
    101  CA        26.4210   78.0260   -1.8500 C.3   464  GLY464      0.2014
    102  C         27.2800   77.6020   -3.0160 C.2   464  GLY464      0.2638
    103  O         27.0230   77.9800   -4.1750 O.2   464  GLY464     -0.2714
    104  N         28.3880   76.9080   -2.6840 N.am  465  PHE465     -0.1973
    105  CA        29.4150   76.4760   -3.6250 C.3   465  PHE465      0.1639
    106  C         30.1730   77.7440   -4.1350 C.2   465  PHE465      0.2290
    107  O         31.0740   78.2050   -3.4350 O.2   465  PHE465     -0.2864
    108  CB        28.8030   75.6000   -4.7420 C.3   465  PHE465      0.0560
    109  CG        29.7480   74.7250   -5.5290 C.ar  465  PHE465     -0.0200
    110  CD1       31.1080   75.0290   -5.6090 C.ar  465  PHE465     -0.0042
    111  CD2       29.2690   73.6570   -6.2730 C.ar  465  PHE465     -0.0042
    112  CE1       31.9680   74.2450   -6.3690 C.ar  465  PHE465     -0.0003
    113  CE2       30.1290   72.8960   -7.0610 C.ar  465  PHE465     -0.0003
    114  CZ        31.4700   73.1980   -7.1150 C.ar  465  PHE465     -0.0000
    115  N         32.8370   79.3120    5.4260 N.3   526  ARG526     -0.1245
    116  CA        33.5070   78.1550    4.8190 C.3   526  ARG526      0.1563
    117  C         34.9450   78.5460    4.5890 C.2   526  ARG526      0.2260
    118  O         35.2030   79.2950    3.6480 O.2   526  ARG526     -0.2867
    119  CB        32.8130   77.8000    3.4980 C.3   526  ARG526      0.0307
    120  CG        32.9250   76.3460    3.1250 C.3   526  ARG526      0.0489
    121  CD        32.4910   76.1280    1.7020 C.3   526  ARG526      0.2205
    122  NE        33.4310   76.7860    0.8040 N.pl3 526  ARG526     -0.0865
    123  CZ        33.0690   77.4520   -0.2730 C.cat 526  ARG526      0.5346
    124  NH1       31.7970   77.5070   -0.6270 N.pl3 526  ARG526      0.1354
    125  NH2       33.9790   78.0650   -1.0150 N.pl3 526  ARG526      0.1354
    126  N         34.8180   74.7050   -1.7180 N.3   530  HIS530     -0.1241
    127  CA        33.6220   73.8550   -1.5660 C.3   530  HIS530      0.1621
    128  C         34.0070   72.3550   -1.4980 C.2   530  HIS530      0.2264
    129  O         33.4230   71.6130   -0.6940 O.2   530  HIS530     -0.2867
    130  CB        32.6150   74.1270   -2.6820 C.3   530  HIS530      0.0745
    131  CG        31.3370   73.3560   -2.5660 C.ar  530  HIS530      0.0817
    132  ND1       30.4010   73.6520   -1.5890 N.ar  530  HIS530     -0.2268
    133  CD2       30.8640   72.3460   -3.3330 C.ar  530  HIS530      0.1154
    134  CE1       29.3980   72.8170   -1.7900 C.ar  530  HIS530      0.1986
    135  NE2       29.6370   72.0010   -2.8140 N.ar  530  HIS530     -0.2212
@<TRIPOS>BOND
     1   114   113   ar
     2   114   112   ar
     3   113   111   ar
     4    37    36   ar
     5    37    35   ar
     6    36    34   ar
     7   112   110   ar
     8   111   109   ar
     9    35    33   ar
    10   110   109   ar
    11   109   108    1
    12    34    33   ar
    13    33    32    1
    14    76    74   am
    15   108   105    1
    16   103   102    2
    17   106   105    1
    18   106   107    2
    19    74    75    2
    20    74    73    1
    21   105   104    1
    22    32    29    1
    23   133   135   ar
    24   133   131   ar
    25    26    27    1
    26    26    23    1
    27    29    28    1
    28    29    30    1
    29   102   104   am
    30   102   101    1
    31   135   134   ar
    32    28    24   am
    33   130   131    1
    34   130   127    1
    35   131   132   ar
    36    24    25    2
    37    24    23    1
    38    73    72    1
    39    69    68    1
    40    69    70    1
    41    69    72    1
    42    23    22    1
    43   101   100    1
    44   134   132   ar
    45    30    38   am
    46    30    31    2
    47    38    39    1
    48   126   127    1
    49    70    71    2
    50   127   128    1
    51    44    43    1
    52   128   129    2
    53   100    94   am
    54    99    97    1
    55    62    59    1
    56    97    96    1
    57    41    40    2
    58   125   123    1
    59    61    60    2
    60    43    42    1
    61    43    45    1
    62    42    39    1
    63   124   123    1
    64    39    40    1
    65    60    59    1
    66    60    63   am
    67   123   122    2
    68    59    58    1
    69    64    63    1
    70    64    67    1
    71    64    65    1
    72    94    93    1
    73    94    95    2
    74    66    65    2
    75    96    93    1
    76    96    98    1
    77    93    92    1
    78     9    10   ar
    79     9     7   ar
    80   122   121    1
    81    10     8   ar
    82    58    52   am
    83     7     6   ar
    84   121   120    1
    85    21    19    1
    86     8     6   ar
    87    53    52    2
    88     6     5    1
    89    52    51    1
    90    57    55   ar
    91     5     2    1
    92   120   119    1
    93    19    20    1
    94    19    18    2
    95    55    54    1
    96    55    56   ar
    97    90    89    2
    98   119   116    1
    99    51    54    1
   100    51    50    1
   101   118   117    2
   102    49    48    2
   103    50    48   am
   104    18    17    1
   105    48    47    1
   106     1     2    1
   107    87    86    2
   108    89    91   am
   109    89    88    1
   110     2     3    1
   111    47    46    1
   112   117   116    1
   113    86    85    1
   114   116   115    1
   115    11     3   am
   116    11    12    1
   117     3     4    2
   118    88    85    1
   119    15    12    1
   120    15    16    1
   121    17    16    1
   122    85    84    1
   123    12    13    1
   124    80    79    2
   125    13    14    2
   126    79    78    1
   127    82    81    1
   128    81    78    1
   129    81    83    1
   130    78    77    1
