@<TRIPOS>MOLECULE
tmp/2xtaD02.pdb
 141 135 0 0 0
SMALL
GASTEIGER

@<TRIPOS>ATOM
      1  N        -43.7160   -6.2580   44.0300 N.3   421  LYS421     -0.1231
      2  CA       -44.7550   -5.4010   43.4180 C.3   421  LYS421      0.1693
      3  C        -45.0240   -4.1080   44.2440 C.2   421  LYS421      0.2591
      4  O        -45.9920   -3.3850   43.9680 O.2   421  LYS421     -0.2718
      5  CB       -46.0640   -6.1890   43.1940 C.3   421  LYS421      0.0285
      6  CG       -45.9580   -7.2770   42.1840 C.3   421  LYS421      0.0035
      7  CD       -45.9000   -6.7770   40.7730 C.3   421  LYS421      0.0206
      8  CE       -45.8110   -7.9430   39.7580 C.3   421  LYS421      0.1093
      9  NZ       -44.4750   -8.5420   39.6400 N.3   421  LYS421     -0.1314
     10  N        -44.1250   -3.8130   45.2160 N.am  422  LEU422     -0.1980
     11  CA       -44.1400   -2.6950   46.1650 C.3   422  LEU422      0.1596
     12  C        -44.2400   -1.3300   45.4810 C.2   422  LEU422      0.2287
     13  O        -43.7220   -1.1410   44.3770 O.2   422  LEU422     -0.2864
     14  CB       -42.8800   -2.7350   47.0400 C.3   422  LEU422      0.0297
     15  CG       -42.9620   -3.2650   48.4350 C.3   422  LEU422      0.0022
     16  CD1      -41.6590   -2.8830   49.1180 C.3   422  LEU422      0.0001
     17  CD2      -44.1890   -2.7530   49.1970 C.3   422  LEU422      0.0001
     18  N        -28.7210   -4.4720   37.8180 N.3   629  THR629     -0.1218
     19  CA       -29.6110   -3.4990   37.1600 C.3   629  THR629      0.1862
     20  C        -28.6950   -2.3900   36.6590 C.2   629  THR629      0.2287
     21  O        -27.8290   -1.9430   37.4060 O.2   629  THR629     -0.2866
     22  CB       -30.7490   -2.9920   38.0720 C.3   629  THR629      0.1770
     23  OG1      -31.4650   -4.1110   38.5840 O.3   629  THR629     -0.2211
     24  CG2      -31.7370   -2.0750   37.3370 C.3   629  THR629      0.0375
     25  N        -37.1910    1.7560   44.5380 N.3   645  ARG645     -0.1245
     26  CA       -37.4670    0.3790   44.1040 C.3   645  ARG645      0.1563
     27  C        -36.2980   -0.5270   44.5570 C.2   645  ARG645      0.2260
     28  O        -36.5440   -1.5490   45.1860 O.2   645  ARG645     -0.2867
     29  CB       -37.7050    0.2910   42.5840 C.3   645  ARG645      0.0307
     30  CG       -38.0300   -1.1240   42.0810 C.3   645  ARG645      0.0489
     31  CD       -38.2030   -1.1780   40.5710 C.3   645  ARG645      0.2205
     32  NE       -36.9340   -0.9910   39.8570 N.pl3 645  ARG645     -0.0865
     33  CZ       -36.7830   -1.1160   38.5420 C.cat 645  ARG645      0.5346
     34  NH1      -37.8180   -1.4240   37.7740 N.pl3 645  ARG645      0.1354
     35  NH2      -35.5970   -0.9250   37.9850 N.pl3 645  ARG645      0.1354
     36  N        -37.4270   -3.4730   46.9290 N.3   649  ASP649     -0.1239
     37  CA       -37.8070   -4.6680   46.1530 C.3   649  ASP649      0.1674
     38  C        -37.3470   -6.0280   46.7600 C.2   649  ASP649      0.2266
     39  O        -37.8120   -7.0770   46.3080 O.2   649  ASP649     -0.2867
     40  CB       -37.2920   -4.5640   44.6910 C.3   649  ASP649      0.1410
     41  CG       -35.7710   -4.4500   44.4840 C.2   649  ASP649      0.3668
     42  OD1      -35.0010   -4.7280   45.4500 O.co2 649  ASP649     -0.2456
     43  OD2      -35.3530   -4.0940   43.3580 O.co2 649  ASP649     -0.2456
     44  N        -34.6350   -7.5520   46.2050 N.3   651  ILE651     -0.1245
     45  CA       -33.7810   -8.2390   45.2210 C.3   651  ILE651      0.1561
     46  C        -32.3390   -7.8340   45.5270 C.2   651  ILE651      0.2260
     47  O        -31.9780   -6.6840   45.2590 O.2   651  ILE651     -0.2867
     48  CB       -34.2050   -7.8960   43.7410 C.3   651  ILE651      0.0252
     49  CG1      -35.6350   -8.4010   43.4370 C.3   651  ILE651      0.0019
     50  CG2      -33.2020   -8.4500   42.6910 C.3   651  ILE651      0.0019
     51  CD1      -36.3500   -7.6690   42.3060 C.3   651  ILE651      0.0001
     52  N        -44.4790    5.7190   39.4510 N.3   680  LYS680     -0.1231
     53  CA       -43.5460    4.6500   39.7830 C.3   680  LYS680      0.1693
     54  C        -42.4060    4.7100   38.7500 C.2   680  LYS680      0.2592
     55  O        -42.5020    5.5010   37.7970 O.2   680  LYS680     -0.2718
     56  CB       -44.2450    3.2710   39.8460 C.3   680  LYS680      0.0285
     57  CG       -44.9440    2.8260   38.5580 C.3   680  LYS680      0.0035
     58  CD       -45.4040    1.3700   38.6550 C.3   680  LYS680      0.0206
     59  CE       -46.0560    0.8970   37.3720 C.3   680  LYS680      0.1093
     60  NZ       -46.9480   -0.2760   37.5930 N.3   680  LYS680     -0.1314
     61  N        -41.3270    3.9250   38.9570 N.am  681  PHE681     -0.1976
     62  CA       -40.1990    3.8880   38.0280 C.3   681  PHE681      0.1639
     63  C        -40.6900    3.4840   36.6510 C.2   681  PHE681      0.2290
     64  O        -41.4530    2.5220   36.5240 O.2   681  PHE681     -0.2864
     65  CB       -39.0700    2.9340   38.5060 C.3   681  PHE681      0.0560
     66  CG       -37.9200    2.8810   37.5180 C.ar  681  PHE681     -0.0200
     67  CD1      -37.0470    3.9570   37.3810 C.ar  681  PHE681     -0.0042
     68  CD2      -37.7610    1.7890   36.6690 C.ar  681  PHE681     -0.0042
     69  CE1      -36.0420    3.9400   36.4190 C.ar  681  PHE681     -0.0003
     70  CE2      -36.7440    1.7690   35.7160 C.ar  681  PHE681     -0.0003
     71  CZ       -35.8910    2.8410   35.5980 C.ar  681  PHE681     -0.0000
     72  N        -39.2680    2.3850   33.0520 N.3   683  SER683     -0.1217
     73  CA       -38.1120    1.8530   32.3360 C.3   683  SER683      0.1889
     74  C        -38.0080    2.4130   30.9220 C.2   683  SER683      0.2288
     75  O        -36.9130    2.4690   30.3640 O.2   683  SER683     -0.2866
     76  CB       -38.1660    0.3260   32.3020 C.3   683  SER683      0.2089
     77  OG       -39.3760   -0.1360   31.7250 O.3   683  SER683     -0.2183
     78  N        -33.9150    2.0720   31.7460 N.3   733  GLN733     -0.1245
     79  CA       -33.3200    0.8500   32.2590 C.3   733  GLN733      0.1566
     80  C        -32.6270    0.1340   31.1120 C.2   733  GLN733      0.2260
     81  O        -33.3040   -0.4280   30.2670 O.2   733  GLN733     -0.2867
     82  CB       -34.3840   -0.0320   32.9170 C.3   733  GLN733      0.0367
     83  CG       -33.8030   -1.2600   33.6050 C.3   733  GLN733      0.0905
     84  CD       -34.8930   -2.0210   34.2960 C.2   733  GLN733      0.2608
     85  OE1      -35.4080   -1.5860   35.3250 O.2   733  GLN733     -0.2717
     86  NE2      -35.3090   -3.1400   33.7170 N.am  733  GLN733     -0.0878
     87  N        -31.8740   -5.1420   33.1410 N.3   736  PRO736     -0.2102
     88  CA       -32.3660   -5.9730   32.0270 C.3   736  PRO736      0.1504
     89  C        -33.1990   -5.1190   31.0640 C.2   736  PRO736      0.2576
     90  O        -33.8280   -4.1370   31.4820 O.2   736  PRO736     -0.2718
     91  CB       -33.2010   -7.0530   32.7390 C.3   736  PRO736      0.0282
     92  CG       -33.6850   -6.3930   33.9960 C.3   736  PRO736      0.0208
     93  CD       -32.5740   -5.4550   34.4070 C.3   736  PRO736      0.0893
     94  N        -33.1650   -5.4480   29.7780 N.am  737  LEU737     -0.1967
     95  CA       -33.9250   -4.6810   28.8070 C.3   737  LEU737      0.1713
     96  C        -35.4330   -4.7920   29.0630 C.2   737  LEU737      0.2458
     97  O        -35.9430   -5.9020   29.2300 O.2   737  LEU737     -0.2730
     98  CB       -33.6050   -5.1100   27.3760 C.3   737  LEU737      0.0310
     99  CG       -32.5260   -4.3120   26.6620 C.3   737  LEU737      0.0022
    100  CD1      -32.0720   -5.0470   25.4230 C.3   737  LEU737      0.0001
    101  CD2      -33.0110   -2.9110   26.2890 C.3   737  LEU737      0.0001
    102  N        -36.1600   -3.6470   29.1030 N.am  738  PRO738     -0.2716
    103  CA       -37.6160   -3.7140   29.3090 C.3   738  PRO738      0.1536
    104  C        -38.3370   -4.0890   28.0100 C.2   738  PRO738      0.2598
    105  O        -39.0220   -3.2530   27.4170 O.2   738  PRO738     -0.2715
    106  CB       -37.9630   -2.2990   29.7750 C.3   738  PRO738      0.0310
    107  CG       -36.9300   -1.4310   29.1430 C.3   738  PRO738      0.0237
    108  CD       -35.6980   -2.2500   28.9260 C.3   738  PRO738      0.0939
    109  N        -38.1910   -5.3650   27.5890 N.am  739  ARG739     -0.1964
    110  CA       -38.7370   -5.9350   26.3480 C.3   739  ARG739      0.1729
    111  C        -40.2420   -5.6330   26.1530 C.2   739  ARG739      0.2616
    112  O        -40.6000   -5.0780   25.1070 O.2   739  ARG739     -0.2715
    113  CB       -38.4830   -7.4560   26.2810 C.3   739  ARG739      0.0348
    114  CG       -38.9500   -8.2020   25.0420 C.3   739  ARG739      0.0492
    115  CD       -38.4010   -9.6050   25.2750 C.3   739  ARG739      0.2205
    116  NE       -38.7600  -10.4250   24.1380 N.pl3 739  ARG739     -0.0865
    117  CZ       -39.7980  -11.2780   24.1980 C.cat 739  ARG739      0.5346
    118  NH1      -40.4590  -11.4820   25.3140 N.pl3 739  ARG739      0.1354
    119  NH2      -40.1480  -11.8610   23.0460 N.pl3 739  ARG739      0.1354
    120  N        -41.1140   -5.9860   27.1440 N.am  740  ARG740     -0.1963
    121  CA       -42.5700   -5.7580   27.0550 C.3   740  ARG740      0.1729
    122  C        -42.9100   -4.2820   26.9890 C.2   740  ARG740      0.2616
    123  O        -43.6670   -3.9080   26.0920 O.2   740  ARG740     -0.2715
    124  CB       -43.3330   -6.4080   28.2160 C.3   740  ARG740      0.0348
    125  CG       -42.9620   -7.8870   28.3660 C.3   740  ARG740      0.0492
    126  CD       -43.5200   -8.7210   27.2190 C.3   740  ARG740      0.2205
    127  NE       -44.9760   -8.6920   27.2240 N.pl3 740  ARG740     -0.0865
    128  CZ       -45.8190   -9.0560   26.2400 C.cat 740  ARG740      0.5346
    129  NH1      -45.4090   -9.4990   25.0360 N.pl3 740  ARG740      0.1354
    130  NH2      -47.1450   -8.9670   26.4820 N.pl3 740  ARG740      0.1354
    131  N        -42.3510   -3.4310   27.9010 N.am  741  ARG741     -0.1977
    132  CA       -42.6060   -1.9770   27.8950 C.3   741  ARG741      0.1597
    133  C        -42.1650   -1.3700   26.5590 C.2   741  ARG741      0.2287
    134  O        -42.9160   -0.5990   25.9540 O.2   741  ARG741     -0.2864
    135  CB       -41.9130   -1.2490   29.0700 C.3   741  ARG741      0.0334
    136  CG       -42.5020   -1.3820   30.4510 C.3   741  ARG741      0.0492
    137  CD       -43.8940   -0.8380   30.4580 C.3   741  ARG741      0.2205
    138  NE       -43.9420    0.5880   30.1440 N.pl3 741  ARG741     -0.0865
    139  CZ       -43.8080    1.5850   31.0070 C.cat 741  ARG741      0.5346
    140  NH1      -43.7190    1.2830   32.2920 N.pl3 741  ARG741      0.1354
    141  NH2      -43.8110    2.8620   30.6170 N.pl3 741  ARG741      0.1354
@<TRIPOS>BOND
     1   119   117    1
     2   116   117    2
     3   116   115    1
     4   117   118    1
     5   129   128    1
     6   114   115    1
     7   114   113    1
     8   112   111    2
     9   100    99    1
    10   134   133    2
    11   123   122    2
    12   111   110    1
    13   111   120   am
    14   128   130    1
    15   128   127    2
    16   113   110    1
    17   101    99    1
    18   110   109    1
    19   133   132    1
    20    99    98    1
    21   122   121    1
    22   122   131   am
    23   121   120    1
    24   121   124    1
    25   126   127    1
    26   126   125    1
    27    98    95    1
    28   105   104    2
    29   109   104   am
    30   132   131    1
    31   132   135    1
    32   104   103    1
    33   124   125    1
    34    95    96    1
    35    95    94    1
    36   108   102    1
    37   108   107    1
    38    96   102   am
    39    96    97    2
    40   135   136    1
    41   102   103    1
    42   107   106    1
    43   103   106    1
    44    94    89   am
    45   138   137    1
    46   138   139    2
    47    81    80    2
    48    75    74    2
    49   136   137    1
    50   141   139    1
    51    74    73    1
    52   139   140    1
    53    89    90    2
    54    89    88    1
    55    80    79    1
    56    77    76    1
    57    78    79    1
    58    88    91    1
    59    88    87    1
    60    79    82    1
    61    76    73    1
    62    73    72    1
    63    91    92    1
    64    82    83    1
    65    87    93    1
    66    83    84    1
    67    86    84   am
    68    92    93    1
    69    84    85    2
    70    71    70   ar
    71    71    69   ar
    72    70    68   ar
    73    69    67   ar
    74    64    63    2
    75    63    62    1
    76    20    19    1
    77    20    21    2
    78    68    66   ar
    79    19    18    1
    80    19    22    1
    81    24    22    1
    82    59    60    1
    83    59    58    1
    84    67    66   ar
    85    66    65    1
    86    34    33    1
    87    55    54    2
    88    35    33    1
    89    62    65    1
    90    62    61    1
    91    22    23    1
    92    33    32    2
    93    57    58    1
    94    57    56    1
    95    54    61   am
    96    54    53    1
    97    52    53    1
    98     9     8    1
    99     8     7    1
   100    53    56    1
   101    32    31    1
   102    31    30    1
   103     7     6    1
   104    30    29    1
   105     6     5    1
   106    51    49    1
   107    29    26    1
   108    50    48    1
   109     5     2    1
   110    43    41   ar
   111     2     1    1
   112     2     3    1
   113    49    48    1
   114    48    45    1
   115     4     3    2
   116    26    25    1
   117    26    27    1
   118     3    10   am
   119    13    12    2
   120    41    40    1
   121    41    42   ar
   122    27    28    2
   123    40    37    1
   124    10    11    1
   125    45    46    1
   126    45    44    1
   127    47    46    2
   128    12    11    1
   129    37    38    1
   130    37    36    1
   131    11    14    1
   132    39    38    2
   133    14    15    1
   134    15    16    1
   135    15    17    1
