@<TRIPOS>MOLECULE
tmp/2xtbA00.pdb
 112 105 0 0 0
SMALL
GASTEIGER

@<TRIPOS>ATOM
      1  N          7.7870  -22.1360    9.7260 N.3    13  CYS13      -0.1221
      2  CA         8.7710  -22.9390    9.0110 C.3    13  CYS13       0.1808
      3  C          9.6980  -22.0520    8.1850 C.2    13  CYS13       0.2601
      4  O          9.6340  -20.8200    8.2640 O.2    13  CYS13      -0.2717
      5  CB         8.0720  -23.9630    8.1100 C.3    13  CYS13       0.0970
      6  SG         9.1380  -25.2870    7.5060 S.3    13  CYS13      -0.0800
      7  N         10.5610  -22.6980    7.4040 N.am   14  ASN14      -0.1974
      8  CA        11.4570  -22.0260    6.4750 C.3    14  ASN14       0.1688
      9  C         10.8400  -21.9520    5.0730 C.2    14  ASN14       0.2292
     10  O         10.7520  -22.9680    4.3780 O.2    14  ASN14      -0.2864
     11  CB        12.8050  -22.7540    6.4380 C.3    14  ASN14       0.1181
     12  CG        13.5300  -22.7280    7.7810 C.2    14  ASN14       0.2629
     13  OD1       13.0860  -22.0850    8.7350 O.2    14  ASN14      -0.2716
     14  ND2       14.6570  -23.4260    7.8550 N.am   14  ASN14      -0.0877
     15  N         10.5310  -21.5340    1.2510 N.3    16  LEU16      -0.1245
     16  CA        11.3440  -21.5940    0.0380 C.3    16  LEU16       0.1561
     17  C         10.4590  -21.4890   -1.1930 C.2    16  LEU16       0.2260
     18  O          9.3620  -22.0300   -1.2160 O.2    16  LEU16      -0.2867
     19  CB        12.1500  -22.8970   -0.0280 C.3    16  LEU16       0.0270
     20  CG        13.0200  -23.3530    1.1480 C.3    16  LEU16       0.0019
     21  CD1       13.6940  -24.6600    0.7970 C.3    16  LEU16       0.0001
     22  CD2       14.0600  -22.3210    1.5390 C.3    16  LEU16       0.0001
     23  N         21.9350  -29.3630   -0.5040 N.3    40  LEU40      -0.1245
     24  CA        22.0420  -27.9210   -0.2800 C.3    40  LEU40       0.1561
     25  C         22.9820  -27.2970   -1.3100 C.2    40  LEU40       0.2260
     26  O         24.0170  -27.8780   -1.6410 O.2    40  LEU40      -0.2867
     27  CB        22.5260  -27.6230    1.1400 C.3    40  LEU40       0.0270
     28  CG        21.5370  -27.8150    2.2950 C.3    40  LEU40       0.0019
     29  CD1       22.2780  -27.8660    3.6260 C.3    40  LEU40       0.0001
     30  CD2       20.4680  -26.7250    2.3170 C.3    40  LEU40       0.0001
     31  N          8.6950  -25.4050    0.6360 N.3    64  GLY64      -0.1210
     32  CA         9.2360  -25.6290    1.9690 C.3    64  GLY64       0.1956
     33  C          8.2580  -26.4910    2.7410 C.2    64  GLY64       0.2612
     34  O          7.0440  -26.3300    2.6030 O.2    64  GLY64      -0.2717
     35  N          8.7920  -27.4070    3.5460 N.am   65  SER65      -0.1952
     36  CA         7.9950  -28.3780    4.2960 C.3    65  SER65       0.1924
     37  C          6.7390  -27.7840    4.9290 C.2    65  SER65       0.2314
     38  O          5.6260  -28.1430    4.5460 O.2    65  SER65      -0.2863
     39  CB         8.8490  -29.0560    5.3680 C.3    65  SER65       0.2116
     40  OG         8.0520  -29.8840    6.2010 O.3    65  SER65      -0.2180
     41  N         18.5740  -26.8930   -2.8880 N.3   137  ALA137     -0.1245
     42  CA        17.9600  -25.9310   -1.9790 C.3   137  ALA137      0.1562
     43  C         18.9530  -24.9080   -1.4360 C.2   137  ALA137      0.2260
     44  O         20.0640  -25.2550   -1.0310 O.2   137  ALA137     -0.2867
     45  CB        17.2540  -26.6540   -0.8350 C.3   137  ALA137      0.0290
     46  N         18.7940  -22.2070    1.5670 N.3   139  LEU139     -0.1245
     47  CA        17.9940  -21.7850    2.7200 C.3   139  LEU139      0.1561
     48  C         17.8060  -20.2670    2.7790 C.2   139  LEU139      0.2260
     49  O         16.6950  -19.7810    3.0020 O.2   139  LEU139     -0.2867
     50  CB        18.6000  -22.3270    4.0230 C.3   139  LEU139      0.0270
     51  CG        18.0440  -23.6190    4.6530 C.3   139  LEU139      0.0019
     52  CD1       17.4920  -24.6230    3.6330 C.3   139  LEU139      0.0001
     53  CD2       19.0910  -24.2860    5.5430 C.3   139  LEU139      0.0001
     54  N         16.6450  -18.7870    7.2630 N.3   143  ASN143     -0.1240
     55  CA        17.4850  -18.9350    8.4590 C.3   143  ASN143      0.1653
     56  C         17.6370  -17.6600    9.2990 C.2   143  ASN143      0.2266
     57  O         18.0990  -17.7160   10.4430 O.2   143  ASN143     -0.2867
     58  CB        18.8750  -19.4500    8.0730 C.3   143  ASN143      0.1155
     59  CG        18.8930  -20.9350    7.7720 C.2   143  ASN143      0.2627
     60  OD1       19.7760  -21.4170    7.0670 O.2   143  ASN143     -0.2716
     61  ND2       17.9270  -21.6690    8.3100 N.am  143  ASN143     -0.0877
     62  N         12.5200  -28.2120   11.2950 N.3   170  PHE170     -0.1241
     63  CA        13.4860  -27.2810   10.7180 C.3   170  PHE170      0.1605
     64  C         13.5610  -25.9460   11.4540 C.2   170  PHE170      0.2264
     65  O         14.5580  -25.2290   11.3430 O.2   170  PHE170     -0.2867
     66  CB        13.1750  -27.0440    9.2370 C.3   170  PHE170      0.0534
     67  CG        13.1640  -28.3000    8.4020 C.ar  170  PHE170     -0.0203
     68  CD1       12.0220  -28.6720    7.6990 C.ar  170  PHE170     -0.0042
     69  CD2       14.2940  -29.1140    8.3180 C.ar  170  PHE170     -0.0042
     70  CE1       12.0090  -29.8290    6.9220 C.ar  170  PHE170     -0.0003
     71  CE2       14.2840  -30.2730    7.5430 C.ar  170  PHE170     -0.0003
     72  CZ        13.1390  -30.6270    6.8450 C.ar  170  PHE170     -0.0000
     73  N         16.4320  -25.7170   13.8540 N.3   173  THR173     -0.1218
     74  CA        17.7540  -25.4740   13.2710 C.3   173  THR173      0.1862
     75  C         18.0620  -23.9820   13.1940 C.2   173  THR173      0.2287
     76  O         19.2230  -23.5900   13.0880 O.2   173  THR173     -0.2866
     77  CB        17.8900  -26.0780   11.8560 C.3   173  THR173      0.1770
     78  OG1       16.9400  -25.4630   10.9790 O.3   173  THR173     -0.2211
     79  CG2       17.6600  -27.5810   11.8810 C.3   173  THR173      0.0375
     80  N         18.1260  -36.0180   10.8570 N.3   201  PHE201     -0.1241
     81  CA        19.2370  -35.2110   11.3690 C.3   201  PHE201      0.1605
     82  C         18.8330  -34.2440   12.4870 C.2   201  PHE201      0.2264
     83  O         19.6880  -33.7840   13.2450 O.2   201  PHE201     -0.2867
     84  CB        19.9970  -34.4920   10.2400 C.3   201  PHE201      0.0534
     85  CG        19.2280  -33.3770    9.5860 C.ar  201  PHE201     -0.0203
     86  CD1       19.1920  -32.1040   10.1560 C.ar  201  PHE201     -0.0042
     87  CD2       18.5600  -33.5900    8.3860 C.ar  201  PHE201     -0.0042
     88  CE1       18.4840  -31.0700    9.5510 C.ar  201  PHE201     -0.0003
     89  CE2       17.8520  -32.5580    7.7690 C.ar  201  PHE201     -0.0003
     90  CZ        17.8120  -31.2980    8.3550 C.ar  201  PHE201     -0.0000
     91  N         21.4290  -34.1310   15.3310 N.3   205  PHE205     -0.1227
     92  CA        22.2650  -32.9370   15.4600 C.3   205  PHE205      0.1736
     93  C         21.6190  -31.7990   16.2530 C.2   205  PHE205      0.2595
     94  O         22.3190  -30.9260   16.7650 O.2   205  PHE205     -0.2718
     95  CB        22.7010  -32.4450   14.0740 C.3   205  PHE205      0.0547
     96  CG        23.6780  -33.3590   13.3890 C.ar  205  PHE205     -0.0202
     97  CD1       25.0490  -33.1100   13.4610 C.ar  205  PHE205     -0.0042
     98  CD2       23.2340  -34.4740   12.6780 C.ar  205  PHE205     -0.0042
     99  CE1       25.9620  -33.9580   12.8330 C.ar  205  PHE205     -0.0003
    100  CE2       24.1390  -35.3280   12.0490 C.ar  205  PHE205     -0.0003
    101  CZ        25.5030  -35.0680   12.1260 C.ar  205  PHE205     -0.0000
    102  N         20.2940  -31.8130   16.3540 N.am  206  PHE206     -0.1976
    103  CA        19.5690  -30.7480   17.0370 C.3   206  PHE206      0.1639
    104  C         18.6910  -31.3030   18.1580 C.2   206  PHE206      0.2290
    105  O         17.6040  -30.7860   18.4340 O.2   206  PHE206     -0.2864
    106  CB        18.7450  -29.9330   16.0320 C.3   206  PHE206      0.0560
    107  CG        19.5740  -29.2870   14.9540 C.ar  206  PHE206     -0.0200
    108  CD1       19.8620  -29.9690   13.7730 C.ar  206  PHE206     -0.0042
    109  CD2       20.0720  -27.9990   15.1220 C.ar  206  PHE206     -0.0042
    110  CE1       20.6320  -29.3790   12.7810 C.ar  206  PHE206     -0.0003
    111  CE2       20.8440  -27.4000   14.1330 C.ar  206  PHE206     -0.0003
    112  CZ        21.1230  -28.0900   12.9620 C.ar  206  PHE206     -0.0000
@<TRIPOS>BOND
     1    41    42    1
     2    42    43    1
     3    42    45    1
     4    26    25    2
     5    43    44    2
     6    25    24    1
     7    18    17    2
     8    17    16    1
     9    23    24    1
    10    24    27    1
    11    19    16    1
    12    19    20    1
    13    16    15    1
    14    31    32    1
    15    21    20    1
    16    27    28    1
    17    20    22    1
    18    46    47    1
    19    32    33    1
    20    28    30    1
    21    28    29    1
    22    34    33    2
    23    47    48    1
    24    47    50    1
    25    33    35   am
    26    48    49    2
    27    35    36    1
    28    52    51    1
    29    50    51    1
    30    36    37    1
    31    36    39    1
    32    10     9    2
    33    38    37    2
    34    51    53    1
    35     9     8    1
    36    39    40    1
    37    11     8    1
    38    11    12    1
    39     8     7    1
    40    72    70   ar
    41    72    71   ar
    42    70    68   ar
    43    60    59    2
    44    54    55    1
    45     7     3   am
    46     6     5    1
    47    71    69   ar
    48    68    67   ar
    49    89    90   ar
    50    89    87   ar
    51    59    58    1
    52    59    61   am
    53    12    14   am
    54    12    13    2
    55    58    55    1
    56     5     2    1
    57     3     4    2
    58     3     2    1
    59    69    67   ar
    60    90    88   ar
    61    87    85   ar
    62    67    66    1
    63    55    56    1
    64     2     1    1
    65    66    63    1
    66    56    57    2
    67    88    86   ar
    68    85    86   ar
    69    85    84    1
    70    84    81    1
    71    63    62    1
    72    63    64    1
    73    80    81    1
    74    78    77    1
    75    65    64    2
    76    81    82    1
    77    77    79    1
    78    77    74    1
    79   100   101   ar
    80   100    98   ar
    81   101    99   ar
    82    82    83    2
    83    98    96   ar
    84   110   112   ar
    85   110   108   ar
    86    99    97   ar
    87   112   111   ar
    88    76    75    2
    89    75    74    1
    90    74    73    1
    91    96    97   ar
    92    96    95    1
    93   108   107   ar
    94    95    92    1
    95   111   109   ar
    96   107   109   ar
    97   107   106    1
    98    91    92    1
    99    92    93    1
   100   106   103    1
   101    93   102   am
   102    93    94    2
   103   102   103    1
   104   103   104    1
   105   104   105    2
