@<TRIPOS>MOLECULE
tmp/2xtkA00.pdb
 112 106 0 0 0
SMALL
GASTEIGER

@<TRIPOS>ATOM
      1  N         23.2100   41.6360   75.6130 N.3     7  TYR7       -0.1241
      2  CA        22.9120   40.7620   76.7360 C.3     7  TYR7        0.1605
      3  C         23.9620   39.6590   76.8270 C.2     7  TYR7        0.2264
      4  O         24.4370   39.1850   75.8170 O.2     7  TYR7       -0.2867
      5  CB        21.5510   40.1100   76.5550 C.3     7  TYR7        0.0534
      6  CG        20.3960   41.0790   76.8140 C.ar    7  TYR7       -0.0201
      7  CD1       20.0020   42.0060   75.8650 C.ar    7  TYR7       -0.0009
      8  CD2       19.7190   41.0500   78.0170 C.ar    7  TYR7       -0.0009
      9  CE1       18.8470   42.9120   76.1400 C.ar    7  TYR7        0.0417
     10  CE2       18.6030   41.9150   78.2790 C.ar    7  TYR7        0.0417
     11  CZ        18.2080   42.8570   77.3640 C.ar    7  TYR7        0.1957
     12  OH        17.1070   43.7110   77.7010 O.3     7  TYR7       -0.2866
     13  N         13.4250   37.6410   81.3110 N.3    96  GLY96      -0.1210
     14  CA        14.0680   36.7550   80.3410 C.3    96  GLY96       0.1956
     15  C         13.0390   35.7430   79.8910 C.2    96  GLY96       0.2611
     16  O         11.8780   35.8140   80.3190 O.2    96  GLY96      -0.2717
     17  N         13.4500   34.7830   79.0670 N.am   97  ALA97      -0.1979
     18  CA        12.4900   33.8440   78.4570 C.3    97  ALA97       0.1597
     19  C         11.9650   32.7980   79.4180 C.2    97  ALA97       0.2287
     20  O         10.7490   32.5490   79.4690 O.2    97  ALA97      -0.2864
     21  CB        13.0670   33.1850   77.2440 C.3    97  ALA97       0.0319
     22  N         13.5810   43.0510   81.1330 N.3   145  ASP145     -0.1239
     23  CA        13.3250   42.1850   79.9830 C.3   145  ASP145      0.1674
     24  C         12.0900   41.3310   80.3180 C.2   145  ASP145      0.2266
     25  O         12.1680   40.1230   80.5100 O.2   145  ASP145     -0.2867
     26  CB        14.5440   41.2940   79.6640 C.3   145  ASP145      0.1410
     27  CG        14.3410   40.4660   78.4120 C.2   145  ASP145      0.3668
     28  OD1       13.4280   40.8000   77.6280 O.co2 145  ASP145     -0.2456
     29  OD2       15.0610   39.4780   78.1870 O.co2 145  ASP145     -0.2456
     30  N          9.1910   39.3050   79.3970 N.3   147  GLU147     -0.1245
     31  CA         8.7360   38.6030   78.2050 C.3   147  GLU147      0.1567
     32  C          7.3470   37.9460   78.3250 C.2   147  GLU147      0.2260
     33  O          6.8060   37.5240   77.3170 O.2   147  GLU147     -0.2867
     34  CB         9.7360   37.5150   77.8820 C.3   147  GLU147      0.0388
     35  CG        11.2020   38.0100   77.8580 C.3   147  GLU147      0.1160
     36  CD        11.6970   38.1900   76.4440 C.2   147  GLU147      0.3649
     37  OE1       11.3010   37.3360   75.6380 O.co2 147  GLU147     -0.2457
     38  OE2       12.4650   39.1390   76.1260 O.co2 147  GLU147     -0.2457
     39  N         13.1330   46.2580   77.5320 N.3   178  ALA178     -0.1245
     40  CA        13.2130   45.5590   76.2380 C.3   178  ALA178      0.1562
     41  C         11.8210   45.1270   75.7180 C.2   178  ALA178      0.2260
     42  O         11.5010   43.9230   75.7070 O.2   178  ALA178     -0.2867
     43  CB        14.0800   44.3410   76.3760 C.3   178  ALA178      0.0290
     44  N         12.9670   45.1170   70.7090 N.3   203  GLN203     -0.1245
     45  CA        13.4250   43.8700   70.1350 C.3   203  GLN203      0.1566
     46  C         12.8370   43.8310   68.7420 C.2   203  GLN203      0.2260
     47  O         11.6330   43.5700   68.5800 O.2   203  GLN203     -0.2867
     48  CB        13.0010   42.6300   70.9550 C.3   203  GLN203      0.0367
     49  CG        13.1990   42.7140   72.4680 C.3   203  GLN203      0.0905
     50  CD        12.8590   41.3840   73.1710 C.2   203  GLN203      0.2608
     51  OE1       12.9880   40.3150   72.5790 O.2   203  GLN203     -0.2717
     52  NE2       12.4560   41.4580   74.4310 N.am  203  GLN203     -0.0878
     53  N         12.9660   41.7380   66.3410 N.3   205  TYR205     -0.1227
     54  CA        13.0150   40.3900   65.8000 C.3   205  TYR205      0.1736
     55  C         11.9100   39.5800   66.4280 C.2   205  TYR205      0.2595
     56  O         11.5320   39.8620   67.5430 O.2   205  TYR205     -0.2718
     57  CB        14.3660   39.7370   66.1310 C.3   205  TYR205      0.0548
     58  CG        14.8430   40.0340   67.5480 C.ar  205  TYR205     -0.0200
     59  CD1       15.5800   41.2120   67.8450 C.ar  205  TYR205     -0.0009
     60  CD2       14.5850   39.1420   68.5750 C.ar  205  TYR205     -0.0009
     61  CE1       16.0070   41.4980   69.1590 C.ar  205  TYR205      0.0417
     62  CE2       14.9990   39.3940   69.8740 C.ar  205  TYR205      0.0417
     63  CZ        15.7320   40.5700   70.1630 C.ar  205  TYR205      0.1957
     64  OH        16.0900   40.7990   71.4630 O.3   205  TYR205     -0.2866
     65  N         11.4460   38.5570   65.7140 N.am  206  ASN206     -0.1974
     66  CA        10.4630   37.5570   66.1940 C.3   206  ASN206      0.1688
     67  C          9.0120   38.0070   65.9950 C.2   206  ASN206      0.2292
     68  O          8.0740   37.2450   66.2560 O.2   206  ASN206     -0.2864
     69  CB        10.7420   37.1040   67.6480 C.3   206  ASN206      0.1181
     70  CG        12.0670   36.3440   67.7700 C.2   206  ASN206      0.2629
     71  OD1       12.7530   36.1120   66.7710 O.2   206  ASN206     -0.2716
     72  ND2       12.4150   35.9350   68.9770 N.am  206  ASN206     -0.0877
     73  N         20.2790   33.1490   66.6900 N.3   252  ALA252     -0.1231
     74  CA        20.0130   33.7870   67.9880 C.3   252  ALA252      0.1694
     75  C         18.5110   33.9660   68.2080 C.2   252  ALA252      0.2592
     76  O         18.0510   33.8130   69.3210 O.2   252  ALA252     -0.2718
     77  CB        20.6990   35.1340   68.0850 C.3   252  ALA252      0.0304
     78  N         17.7700   34.3010   67.1570 N.am  253  ALA253     -0.1966
     79  CA        16.3050   34.4820   67.2510 C.3   253  ALA253      0.1728
     80  C         15.5910   33.5770   66.2480 C.2   253  ALA253      0.2616
     81  O         16.2130   32.6940   65.6590 O.2   253  ALA253     -0.2715
     82  CB        15.9160   35.9540   67.0370 C.3   253  ALA253      0.0334
     83  N         14.2780   33.7780   66.0710 N.am  254  ASN254     -0.1972
     84  CA        13.5250   33.0580   65.0540 C.3   254  ASN254      0.1688
     85  C         14.1290   33.3000   63.6770 C.2   254  ASN254      0.2292
     86  O         14.7710   34.3420   63.4270 O.2   254  ASN254     -0.2864
     87  CB        12.0350   33.5220   65.0120 C.3   254  ASN254      0.1181
     88  CG        11.2980   33.2360   66.2830 C.2   254  ASN254      0.2629
     89  OD1       10.1180   33.7990   66.4330 O.2   254  ASN254     -0.2716
     90  ND2       11.7940   32.4760   67.1390 N.am  254  ASN254     -0.0877
     91  N         21.0340   47.4530   70.2700 N.3   283  MET283     -0.1245
     92  CA        21.0930   46.3900   71.2960 C.3   283  MET283      0.1570
     93  C         21.2230   45.0350   70.5800 C.2   283  MET283      0.2261
     94  O         20.6410   44.8230   69.5060 O.2   283  MET283     -0.2867
     95  CB        19.8740   46.4350   72.2370 C.3   283  MET283      0.0387
     96  CG        19.7960   45.2740   73.2630 C.3   283  MET283      0.0595
     97  SD        19.2650   43.7120   72.4940 S.3   283  MET283     -0.1393
     98  CE        17.4650   44.0600   72.5320 C.3   283  MET283      0.0692
     99  N         21.0510   40.7570   70.9130 N.3   285  TRP285     -0.1241
    100  CA        20.7310   39.4720   71.5370 C.3   285  TRP285      0.1605
    101  C         21.5350   38.4310   70.7400 C.2   285  TRP285      0.2264
    102  O         21.1620   38.1390   69.6150 O.2   285  TRP285     -0.2867
    103  CB        19.2020   39.1300   71.5050 C.3   285  TRP285      0.0550
    104  CG        19.0150   37.7890   72.2050 C.ar  285  TRP285      0.0003
    105  CD1       18.9920   36.5430   71.6180 C.ar  285  TRP285      0.0946
    106  CD2       18.9920   37.5520   73.6300 C.ar  285  TRP285      0.0152
    107  NE1       18.8970   35.5600   72.5770 N.ar  285  TRP285     -0.2442
    108  CE2       18.9010   36.1410   73.8200 C.ar  285  TRP285      0.0810
    109  CE3       18.9910   38.3870   74.7550 C.ar  285  TRP285      0.0012
    110  CZ2       18.8250   35.5510   75.1000 C.ar  285  TRP285      0.0191
    111  CZ3       18.9310   37.8010   76.0230 C.ar  285  TRP285      0.0001
    112  CH2       18.8420   36.3920   76.1820 C.ar  285  TRP285      0.0015
@<TRIPOS>BOND
     1    86    85    2
     2    85    84    1
     3    87    84    1
     4    87    88    1
     5    84    83    1
     6    81    80    2
     7    65    66    1
     8    65    55   am
     9    54    57    1
    10    54    53    1
    11    54    55    1
    12    67    66    1
    13    67    68    2
    14    83    80   am
    15    57    58    1
    16    66    69    1
    17    80    79    1
    18    88    89    2
    19    88    90   am
    20    55    56    2
    21    73    74    1
    22    71    70    2
    23    82    79    1
    24    78    79    1
    25    78    75   am
    26    58    59   ar
    27    58    60   ar
    28    69    70    1
    29    70    72   am
    30    59    61   ar
    31    74    77    1
    32    74    75    1
    33    75    76    2
    34    60    62   ar
    35    47    46    2
    36    46    45    1
    37    61    63   ar
    38    94    93    2
    39   102   101    2
    40    62    63   ar
    41    45    44    1
    42    45    48    1
    43    63    64    1
    44    91    92    1
    45    93    92    1
    46   101   100    1
    47    99   100    1
    48    48    49    1
    49    92    95    1
    50   103   100    1
    51   103   104    1
    52   105   104   ar
    53   105   107   ar
    54   104   106   ar
    55    95    96    1
    56    49    50    1
    57    97    98    1
    58    97    96    1
    59   107   108   ar
    60    51    50    2
    61    50    52   am
    62   106   108   ar
    63   106   109   ar
    64   108   110   ar
    65   109   111   ar
    66   110   112   ar
    67     1     2    1
    68    37    36   ar
    69    42    41    2
    70    41    40    1
    71     4     3    2
    72     7     9   ar
    73     7     6   ar
    74   111   112   ar
    75    38    36   ar
    76     9    11   ar
    77    40    43    1
    78    40    39    1
    79    36    35    1
    80     5     2    1
    81     5     6    1
    82     2     3    1
    83     6     8   ar
    84    21    18    1
    85    33    32    2
    86    11    12    1
    87    11    10   ar
    88    28    27   ar
    89    35    34    1
    90    34    31    1
    91     8    10   ar
    92    29    27   ar
    93    31    32    1
    94    31    30    1
    95    27    26    1
    96    18    17    1
    97    18    19    1
    98    17    15   am
    99    19    20    2
   100    26    23    1
   101    15    16    2
   102    15    14    1
   103    23    24    1
   104    23    22    1
   105    24    25    2
   106    14    13    1
