@<TRIPOS>MOLECULE
tmp/2xtnA00.pdb
 203 199 0 0 0
SMALL
GASTEIGER

@<TRIPOS>ATOM
      1  N          2.0190   25.2150   19.7190 N.3    11  THR11      -0.1203
      2  CA         3.2580   24.5700   20.1550 C.3    11  THR11       0.1994
      3  C          3.0230   23.5770   21.3060 C.2    11  THR11       0.2618
      4  O          2.1880   23.8190   22.1850 O.2    11  THR11      -0.2717
      5  CB         4.3450   25.6200   20.5600 C.3    11  THR11       0.1784
      6  OG1        5.5720   24.9480   20.8850 O.3    11  THR11      -0.2211
      7  CG2        3.8980   26.4960   21.7590 C.3    11  THR11       0.0376
      8  N          3.7500   22.4600   21.2730 N.am   12  GLY12      -0.1942
      9  CA         3.7640   21.4820   22.3720 C.3    12  GLY12       0.2014
     10  C          2.6140   20.4880   22.4110 C.2    12  GLY12       0.2640
     11  O          2.5450   19.6570   23.3180 O.2    12  GLY12      -0.2714
     12  N          1.7130   20.5670   21.4320 N.am   13  THR13      -0.1936
     13  CA         0.5470   19.6720   21.3580 C.3    13  THR13       0.2028
     14  C          0.8780   18.2440   20.9100 C.2    13  THR13       0.2643
     15  O          0.0520   17.3360   21.0550 O.2    13  THR13      -0.2714
     16  CB        -0.5320   20.2270   20.4100 C.3    13  THR13       0.1808
     17  OG1        0.0420   20.4740   19.1180 O.3    13  THR13      -0.2208
     18  CG2       -1.1300   21.5170   20.9750 C.3    13  THR13       0.0379
     19  N          2.0830   18.0500   20.3830 N.am   14  GLY14      -0.1939
     20  CA         2.5000   16.7540   19.8590 C.3    14  GLY14       0.2014
     21  C          2.4840   16.7110   18.3380 C.2    14  GLY14       0.2639
     22  O          2.2260   15.6600   17.7530 O.2    14  GLY14      -0.2714
     23  N          2.7470   17.8510   17.6910 N.am   15  LYS15      -0.1963
     24  CA         2.8120   17.9130   16.2270 C.3    15  LYS15       0.1728
     25  C          3.8970   16.9910   15.6670 C.2    15  LYS15       0.2617
     26  O          3.6140   16.1300   14.8200 O.2    15  LYS15      -0.2715
     27  CB         3.0570   19.3440   15.7360 C.3    15  LYS15       0.0311
     28  CG         1.8730   20.2970   15.9260 C.3    15  LYS15       0.0038
     29  CD         2.1090   21.6330   15.2110 C.3    15  LYS15       0.0206
     30  CE         3.2100   22.4300   15.8650 C.3    15  LYS15       0.1093
     31  NZ         3.3930   23.7650   15.2180 N.3    15  LYS15      -0.1314
     32  N          5.1340   17.1770   16.1330 N.am   16  SER16      -0.1936
     33  CA         6.2590   16.3750   15.6380 C.3    16  SER16       0.2055
     34  C          6.0270   14.8960   15.9420 C.2    16  SER16       0.2642
     35  O          6.2410   14.0300   15.0790 O.2    16  SER16      -0.2714
     36  CB         7.5840   16.8460   16.2380 C.3    16  SER16       0.2130
     37  OG         7.8020   18.2240   15.9610 O.3    16  SER16      -0.2179
     38  N          5.5720   14.6210   17.1680 N.am   17  ALA17      -0.1977
     39  CA         5.2320   13.2600   17.5810 C.3    17  ALA17       0.1597
     40  C          4.1610   12.6150   16.6780 C.2    17  ALA17       0.2287
     41  O          4.2530   11.4270   16.3730 O.2    17  ALA17      -0.2864
     42  CB         4.7830   13.2460   19.0420 C.3    17  ALA17       0.0319
     43  N         12.2630   15.6000   15.2440 N.3    29  GLU29      -0.1231
     44  CA        12.7230   15.6440   16.6350 C.3    29  GLU29       0.1699
     45  C         11.5610   15.9640   17.5820 C.2    29  GLU29       0.2593
     46  O         10.8360   16.9450   17.3820 O.2    29  GLU29      -0.2718
     47  CB        13.8890   16.6150   16.8310 C.3    29  GLU29       0.0402
     48  CG        14.5360   16.4590   18.2060 C.3    29  GLU29       0.1161
     49  CD        15.6490   17.4460   18.4840 C.2    29  GLU29       0.3649
     50  OE1       15.9800   18.2660   17.5890 O.co2  29  GLU29      -0.2457
     51  OE2       16.1840   17.4030   19.6150 O.co2  29  GLU29      -0.2457
     52  N         11.4020   15.1070   18.5930 N.am   30  SER30      -0.1938
     53  CA        10.2900   15.1500   19.5430 C.3    30  SER30       0.2055
     54  C         10.7820   14.6380   20.9020 C.2    30  SER30       0.2643
     55  O         11.3080   13.5260   20.9990 O.2    30  SER30      -0.2714
     56  CB         9.1300   14.2830   19.0250 C.3    30  SER30       0.2130
     57  OG         8.0580   14.1990   19.9610 O.3    30  SER30      -0.2179
     58  N         10.6330   15.4500   21.9470 N.am   31  LYS31      -0.1963
     59  CA        11.0410   15.0300   23.2940 C.3    31  LYS31       0.1728
     60  C         10.4580   15.9190   24.3930 C.2    31  LYS31       0.2616
     61  O          9.9080   16.9830   24.1110 O.2    31  LYS31      -0.2715
     62  CB        12.5720   14.9700   23.4030 C.3    31  LYS31       0.0311
     63  CG        13.2710   16.2760   23.0910 C.3    31  LYS31       0.0038
     64  CD        14.7850   16.0880   23.0650 C.3    31  LYS31       0.0206
     65  CE        15.4930   17.3860   23.4100 C.3    31  LYS31       0.1093
     66  NZ        16.9390   17.3510   23.0340 N.3    31  LYS31      -0.1314
     67  N         10.5810   15.4680   25.6410 N.am   32  LEU32      -0.1963
     68  CA        10.0800   16.2160   26.7950 C.3    32  LEU32       0.1728
     69  C         10.8370   17.5200   26.9960 C.2    32  LEU32       0.2616
     70  O         12.0580   17.5630   26.8610 O.2    32  LEU32      -0.2715
     71  CB        10.1810   15.3830   28.0770 C.3    32  LEU32       0.0311
     72  CG         9.0590   14.4230   28.4730 C.3    32  LEU32       0.0022
     73  CD1        9.3790   13.8130   29.8300 C.3    32  LEU32       0.0001
     74  CD2        7.6890   15.0990   28.5060 C.3    32  LEU32       0.0001
     75  N         10.1080   18.5800   27.3220 N.am   33  GLY33      -0.1955
     76  CA        10.7190   19.8800   27.5830 C.3    33  GLY33       0.1869
     77  C          9.6820   20.9840   27.5540 C.2    33  GLY33       0.2309
     78  O          8.7230   20.9220   26.7840 O.2    33  GLY33      -0.2863
     79  N         10.1250   24.2240   26.7850 N.3    35  GLN35      -0.1231
     80  CA        10.2740   25.1980   25.6910 C.3    35  GLN35       0.1698
     81  C         10.0040   24.5730   24.3260 C.2    35  GLN35       0.2593
     82  O         10.0690   23.3530   24.1800 O.2    35  GLN35      -0.2718
     83  CB        11.6490   25.8730   25.7330 C.3    35  GLN35       0.0381
     84  CG        12.8030   24.9570   25.4840 C.3    35  GLN35       0.0905
     85  CD        13.1460   24.1260   26.6900 C.2    35  GLN35       0.2608
     86  OE1       13.1630   22.8900   26.6280 O.2    35  GLN35      -0.2717
     87  NE2       13.4080   24.7960   27.8130 N.am   35  GLN35      -0.0878
     88  N          9.6860   25.4160   23.3410 N.am   36  THR36      -0.1939
     89  CA         9.4170   24.9760   21.9690 C.3    36  THR36       0.2028
     90  C         10.6490   24.3130   21.3390 C.2    36  THR36       0.2642
     91  O         11.7630   24.8580   21.3980 O.2    36  THR36      -0.2714
     92  CB         8.9390   26.1550   21.0850 C.3    36  THR36       0.1808
     93  OG1        7.7090   26.6720   21.6090 O.3    36  THR36      -0.2208
     94  CG2        8.7280   25.7070   19.6390 C.3    36  THR36       0.0379
     95  N         10.4460   23.1360   20.7490 N.am   37  LEU37      -0.1963
     96  CA        11.5520   22.3730   20.1730 C.3    37  LEU37       0.1728
     97  C         11.7460   22.6310   18.6690 C.2    37  LEU37       0.2616
     98  O         12.8330   23.0120   18.2310 O.2    37  LEU37      -0.2715
     99  CB        11.3770   20.8760   20.4670 C.3    37  LEU37       0.0311
    100  CG        12.4270   19.8780   19.9610 C.3    37  LEU37       0.0022
    101  CD1       13.8120   20.1540   20.5380 C.3    37  LEU37       0.0001
    102  CD2       11.9870   18.4680   20.3110 C.3    37  LEU37       0.0001
    103  N         10.6920   22.4240   17.8850 N.am   38  THR38      -0.1951
    104  CA        10.7660   22.6430   16.4430 C.3    38  THR38       0.1897
    105  C         10.8810   24.1350   16.1500 C.2    38  THR38       0.2313
    106  O          9.9930   24.9160   16.5070 O.2    38  THR38      -0.2863
    107  CB         9.5510   22.0420   15.7390 C.3    38  THR38       0.1794
    108  OG1        9.3820   20.6840   16.1760 O.3    38  THR38      -0.2208
    109  CG2        9.7140   22.0960   14.2180 C.3    38  THR38       0.0378
    110  N          6.3790   19.2060    9.0490 N.3    57  ASP57      -0.1225
    111  CA         6.3000   19.6110   10.4490 C.3    57  ASP57       0.1805
    112  C          6.5820   21.1160   10.4980 C.2    57  ASP57       0.2598
    113  O          7.2820   21.6470    9.6370 O.2    57  ASP57      -0.2718
    114  CB         7.3510   18.8330   11.2490 C.3    57  ASP57       0.1424
    115  CG         7.2150   18.9980   12.7650 C.2    57  ASP57       0.3668
    116  OD1        6.1700   19.4650   13.2740 O.co2  57  ASP57      -0.2456
    117  OD2        8.1880   18.6330   13.4630 O.co2  57  ASP57      -0.2456
    118  N          6.0320   21.7970   11.4980 N.am   58  THR58      -0.1939
    119  CA         6.0950   23.2610   11.5460 C.3    58  THR58       0.2013
    120  C          6.6210   23.7530   12.8920 C.2    58  THR58       0.2484
    121  O          6.3860   23.1060   13.9160 O.2    58  THR58      -0.2729
    122  CB         4.7050   23.9140   11.3120 C.3    58  THR58       0.1807
    123  OG1        3.7720   23.4490   12.2980 O.3    58  THR58      -0.2208
    124  CG2        4.1780   23.6470    9.8830 C.3    58  THR58       0.0379
    125  N          7.3170   24.9090   12.8910 N.am   59  PRO59      -0.2715
    126  CA         7.6810   25.5960   14.1310 C.3    59  PRO59       0.1536
    127  C          6.4670   26.3550   14.6780 C.2    59  PRO59       0.2598
    128  O          5.3480   26.1530   14.1940 O.2    59  PRO59      -0.2715
    129  CB         8.7800   26.5650   13.6890 C.3    59  PRO59       0.0310
    130  CG         8.4920   26.8520   12.2670 C.3    59  PRO59       0.0237
    131  CD         7.7890   25.6370   11.6960 C.3    59  PRO59       0.0939
    132  N          6.6830   27.2350   15.6530 N.am   60  ASP60      -0.1972
    133  CA         5.5740   27.8930   16.3270 C.3    60  ASP60       0.1709
    134  C          5.0600   29.1150   15.5490 C.2    60  ASP60       0.2293
    135  O          5.0540   30.2420   16.0640 O.2    60  ASP60      -0.2864
    136  CB         5.9750   28.2590   17.7600 C.3    60  ASP60       0.1436
    137  CG         4.7980   28.7060   18.6040 C.2    60  ASP60       0.3671
    138  OD1        3.6340   28.4140   18.2330 O.co2  60  ASP60      -0.2456
    139  OD2        5.0490   29.3390   19.6470 O.co2  60  ASP60      -0.2456
    140  N         -4.3500   14.6010   20.3550 N.3   126  THR126     -0.1203
    141  CA        -3.2920   13.8100   20.9070 C.3   126  THR126      0.1994
    142  C         -3.5570   13.5490   22.3970 C.2   126  THR126      0.2617
    143  O         -4.3850   14.1660   22.9880 O.2   126  THR126     -0.2717
    144  CB        -1.9410   14.5020   20.8000 C.3   126  THR126      0.1784
    145  OG1       -1.9520   15.6340   21.6120 O.3   126  THR126     -0.2211
    146  CG2       -1.6410   14.8910   19.4170 C.3   126  THR126      0.0376
    147  N         -2.7890   12.6570   22.9760 N.am  127  HIS127     -0.1975
    148  CA        -3.0060   12.2260   24.3400 C.3   127  HIS127      0.1656
    149  C         -4.3590   11.5180   24.4930 C.2   127  HIS127      0.2291
    150  O         -5.0470   11.7020   25.4410 O.2   127  HIS127     -0.2864
    151  CB        -2.8470   13.3770   25.3530 C.3   127  HIS127      0.0771
    152  CG        -1.5290   14.0760   25.2760 C.ar  127  HIS127      0.0820
    153  ND1       -0.5310   13.9020   26.1980 N.ar  127  HIS127     -0.2267
    154  CD2       -1.0560   14.9690   24.3840 C.ar  127  HIS127      0.1154
    155  CE1        0.5010   14.6500   25.8750 C.ar  127  HIS127      0.1986
    156  NE2        0.1990   15.3200   24.7890 N.ar  127  HIS127     -0.2212
    157  N         -4.9880    8.5490   25.2770 N.3   129  GLU129     -0.1245
    158  CA        -4.9840    7.7010   26.4710 C.3   129  GLU129      0.1567
    159  C         -5.6620    8.3670   27.6760 C.2   129  GLU129      0.2260
    160  O         -6.1460    7.6830   28.5780 O.2   129  GLU129     -0.2867
    161  CB        -3.5480    7.2690   26.8140 C.3   129  GLU129      0.0388
    162  CG        -2.5890    8.4090   27.2180 C.3   129  GLU129      0.1160
    163  CD        -1.8940    9.1080   26.0440 C.2   129  GLU129      0.3649
    164  OE1       -2.4140    9.1060   24.9110 O.co2 129  GLU129     -0.2457
    165  OE2       -0.8090    9.6830   26.2660 O.co2 129  GLU129     -0.2457
    166  N         -5.0110   10.3180   18.5630 N.3   160  PHE160     -0.1227
    167  CA        -3.7440    9.6030   18.5940 C.3   160  PHE160      0.1736
    168  C         -3.2360    9.5000   20.0260 C.2   160  PHE160      0.2595
    169  O         -3.3300   10.4580   20.7940 O.2   160  PHE160     -0.2718
    170  CB        -2.6870   10.3800   17.7980 C.3   160  PHE160      0.0547
    171  CG        -2.5330    9.9500   16.3600 C.ar  160  PHE160     -0.0202
    172  CD1       -3.5240    9.2220   15.7010 C.ar  160  PHE160     -0.0042
    173  CD2       -1.3980   10.3350   15.6480 C.ar  160  PHE160     -0.0042
    174  CE1       -3.3680    8.8430   14.3620 C.ar  160  PHE160     -0.0003
    175  CE2       -1.2330    9.9710   14.3000 C.ar  160  PHE160     -0.0003
    176  CZ        -2.2190    9.2200   13.6610 C.ar  160  PHE160     -0.0000
    177  N         -2.6660    8.3600   20.3610 N.am  161  ASN161     -0.1960
    178  CA        -1.7070    8.2360   21.4270 C.3   161  ASN161      0.1819
    179  C         -0.3700    8.1110   20.7670 C.2   161  ASN161      0.2621
    180  O         -0.0390    7.1020   20.2980 O.2   161  ASN161     -0.2715
    181  CB        -2.0010    7.0440   22.3500 C.3   161  ASN161      0.1195
    182  CG        -0.9150    6.7840   23.3670 C.2   161  ASN161      0.2630
    183  OD1        0.0650    7.4620   23.4250 O.2   161  ASN161     -0.2716
    184  ND2       -1.1130    5.7770   24.1660 N.am  161  ASN161     -0.0877
    185  N          0.3750    9.1950   20.7480 N.am  162  ASN162     -0.1958
    186  CA         1.6710    9.2490   20.1050 C.3   162  ASN162      0.1819
    187  C          2.7160    8.3040   20.6970 C.2   162  ASN162      0.2621
    188  O          3.6940    8.0200   20.0800 O.2   162  ASN162     -0.2715
    189  CB         2.1840   10.6700   20.0380 C.3   162  ASN162      0.1195
    190  CG         1.4430   11.5010   19.0010 C.2   162  ASN162      0.2630
    191  OD1        1.1570   11.0270   17.9620 O.2   162  ASN162     -0.2716
    192  ND2        1.1630   12.7140   19.3100 N.am  162  ASN162     -0.0877
    193  N          2.4700    7.8390   21.9000 N.am  163  ARG163     -0.1977
    194  CA         3.3320    6.8410   22.4960 C.3   163  ARG163      0.1597
    195  C          2.8760    5.4230   22.1710 C.2   163  ARG163      0.2287
    196  O          3.4090    4.4920   22.6530 O.2   163  ARG163     -0.2864
    197  CB         3.4630    7.0330   23.9940 C.3   163  ARG163      0.0334
    198  CG         3.8350    8.4680   24.3970 C.3   163  ARG163      0.0492
    199  CD         5.3130    8.6960   24.2190 C.3   163  ARG163      0.2205
    200  NE         5.7290    9.9820   24.8320 N.pl3 163  ARG163     -0.0865
    201  CZ         5.6520   11.1260   24.1100 C.cat 163  ARG163      0.5346
    202  NH1        5.2410   11.0670   22.8700 N.pl3 163  ARG163      0.1354
    203  NH2        6.0450   12.2720   24.6610 N.pl3 163  ARG163      0.1354
@<TRIPOS>BOND
     1   110   111    1
     2   113   112    2
     3   124   122    1
     4   111   112    1
     5   111   114    1
     6   112   118   am
     7   114   115    1
     8   122   119    1
     9   122   123    1
    10   118   119    1
    11   119   120    1
    12   131   130    1
    13   131   125    1
    14   130   129    1
    15   115   116   ar
    16   115   117   ar
    17   125   120   am
    18   125   126    1
    19   120   121    2
    20   176   175   ar
    21   176   174   ar
    22   129   126    1
    23   126   127    1
    24   128   127    2
    25   109   107    1
    26   175   173   ar
    27   174   172   ar
    28   127   132   am
    29    26    25    2
    30    35    34    2
    31    29    30    1
    32    29    28    1
    33    31    30    1
    34    43    44    1
    35   134   135    2
    36   134   133    1
    37    33    34    1
    38    33    32    1
    39    33    36    1
    40   173   171   ar
    41   132   133    1
    42    25    32   am
    43    25    24    1
    44   172   171   ar
    45    27    28    1
    46    27    24    1
    47   107   108    1
    48   107   104    1
    49    34    38   am
    50    37    36    1
    51   105   104    1
    52   105   106    2
    53    24    23    1
    54   133   136    1
    55   171   170    1
    56    41    40    2
    57   104   103    1
    58    44    47    1
    59    44    45    1
    60    40    39    1
    61    47    48    1
    62    38    39    1
    63    46    45    2
    64    39    42    1
    65    45    52   am
    66    50    49   ar
    67    23    21   am
    68    22    21    2
    69   136   137    1
    70   170   167    1
    71   103    97   am
    72   191   190    2
    73    48    49    1
    74    98    97    2
    75   138   137   ar
    76    21    20    1
    77    49    51   ar
    78   166   167    1
    79    52    53    1
    80   167   168    1
    81   137   139   ar
    82    97    96    1
    83   190   192   am
    84   190   189    1
    85    56    53    1
    86    56    57    1
    87    17    16    1
    88   146   144    1
    89    53    54    1
    90    94    92    1
    91     1     2    1
    92    20    19    1
    93   100   102    1
    94   100    99    1
    95   100   101    1
    96   168   177   am
    97   168   169    2
    98   189   186    1
    99   188   187    2
   100   186   187    1
   101   186   185    1
   102     2     5    1
   103     2     3    1
   104    96    99    1
   105    96    95    1
   106   180   179    2
   107   140   141    1
   108   177   178    1
   109    19    14   am
   110    16    18    1
   111    16    13    1
   112     5     6    1
   113     5     7    1
   114   187   193   am
   115   185   179   am
   116    95    90   am
   117   179   178    1
   118   144   141    1
   119   144   145    1
   120    54    55    2
   121    54    58   am
   122   141   142    1
   123    14    15    2
   124    14    13    1
   125    92    93    1
   126    92    89    1
   127     8     3   am
   128     8     9    1
   129     3     4    2
   130    90    91    2
   131    90    89    1
   132    13    12    1
   133   178   181    1
   134    12    10   am
   135   193   194    1
   136    58    59    1
   137    89    88    1
   138   195   194    1
   139   195   196    2
   140   181   182    1
   141     9    10    1
   142   142   147   am
   143   142   143    2
   144    10    11    2
   145   194   197    1
   146   202   201    1
   147   147   148    1
   148    66    65    1
   149    64    63    1
   150    64    65    1
   151    63    62    1
   152    59    62    1
   153    59    60    1
   154    88    81   am
   155   182   183    2
   156   182   184   am
   157   197   198    1
   158   201   203    1
   159   201   200    2
   160    61    60    2
   161    82    81    2
   162   199   198    1
   163   199   200    1
   164    81    80    1
   165   148   149    1
   166   148   151    1
   167   154   156   ar
   168   154   152   ar
   169    60    67   am
   170   149   150    2
   171   156   155   ar
   172   164   163   ar
   173   152   151    1
   174   152   153   ar
   175   157   158    1
   176    84    83    1
   177    84    85    1
   178    67    68    1
   179    80    83    1
   180    80    79    1
   181   155   153   ar
   182   163   165   ar
   183   163   162    1
   184   158   161    1
   185   158   159    1
   186    86    85    2
   187    85    87   am
   188    78    77    2
   189    68    69    1
   190    68    71    1
   191   161   162    1
   192    70    69    2
   193    69    75   am
   194    75    76    1
   195    77    76    1
   196   159   160    2
   197    71    72    1
   198    72    74    1
   199    72    73    1
