@<TRIPOS>MOLECULE
tmp/2xtoA00.pdb
 146 142 0 0 0
SMALL
GASTEIGER

@<TRIPOS>ATOM
      1  N        -18.6730  -19.5110    3.9570 N.3    11  THR11      -0.1203
      2  CA       -19.2210  -20.7440    4.5150 C.3    11  THR11       0.1994
      3  C        -19.2380  -21.8570    3.4600 C.2    11  THR11       0.2618
      4  O        -19.5860  -21.6220    2.2950 O.2    11  THR11      -0.2717
      5  CB       -20.6480  -20.5250    5.0630 C.3    11  THR11       0.1784
      6  OG1      -20.6890  -19.3170    5.8360 O.3    11  THR11      -0.2211
      7  CG2      -21.0910  -21.7030    5.9270 C.3    11  THR11       0.0376
      8  N        -18.8480  -23.0600    3.8760 N.am   12  GLY12      -0.1942
      9  CA       -18.8880  -24.2380    3.0100 C.3    12  GLY12       0.2014
     10  C        -17.7220  -24.3490    2.0490 C.2    12  GLY12       0.2640
     11  O        -17.8480  -24.9350    0.9730 O.2    12  GLY12      -0.2714
     12  N        -16.5860  -23.7790    2.4300 N.am   13  THR13      -0.1936
     13  CA       -15.3780  -23.8810    1.6240 C.3    13  THR13       0.2028
     14  C        -14.4940  -25.0020    2.1510 C.2    13  THR13       0.2643
     15  O        -13.6850  -25.5570    1.4140 O.2    13  THR13      -0.2714
     16  CB       -14.5850  -22.5590    1.5860 C.3    13  THR13       0.1808
     17  OG1      -14.3390  -22.1020    2.9240 O.3    13  THR13      -0.2208
     18  CG2      -15.3520  -21.4910    0.8060 C.3    13  THR13       0.0379
     19  N        -14.6550  -25.3300    3.4290 N.am   14  GLY14      -0.1939
     20  CA       -13.9840  -26.4830    4.0150 C.3    14  GLY14       0.2014
     21  C        -12.9710  -26.1410    5.0830 C.2    14  GLY14       0.2639
     22  O        -12.0030  -26.8810    5.2790 O.2    14  GLY14      -0.2714
     23  N        -13.1950  -25.0310    5.7850 N.am   15  LYS15      -0.1963
     24  CA       -12.2550  -24.5860    6.8130 C.3    15  LYS15       0.1728
     25  C        -12.2850  -25.4390    8.0770 C.2    15  LYS15       0.2617
     26  O        -11.2330  -25.7250    8.6510 O.2    15  LYS15      -0.2715
     27  CB       -12.4120  -23.0930    7.1290 C.3    15  LYS15       0.0311
     28  CG       -13.8200  -22.6140    7.3870 C.3    15  LYS15       0.0038
     29  CD       -14.0260  -21.2290    6.7910 C.3    15  LYS15       0.0206
     30  CE       -15.4570  -20.7660    6.9670 C.3    15  LYS15       0.1093
     31  NZ       -15.6890  -20.1940    8.3230 N.3    15  LYS15      -0.1314
     32  N        -13.4760  -25.8660    8.4930 N.am   16  SER16      -0.1936
     33  CA       -13.6090  -26.7500    9.6550 C.3    16  SER16       0.2055
     34  C        -12.8800  -28.0650    9.3890 C.2    16  SER16       0.2642
     35  O        -12.1820  -28.5880   10.2640 O.2    16  SER16      -0.2714
     36  CB       -15.0810  -26.9950   10.0040 C.3    16  SER16       0.2130
     37  OG       -15.7430  -25.7820   10.3320 O.3    16  SER16      -0.2179
     38  N        -13.0380  -28.5760    8.1680 N.am   17  ALA17      -0.1977
     39  CA       -12.2980  -29.7440    7.6940 C.3    17  ALA17       0.1597
     40  C        -10.7950  -29.4660    7.6330 C.2    17  ALA17       0.2287
     41  O         -9.9900  -30.3430    7.9480 O.2    17  ALA17      -0.2864
     42  CB       -12.8120  -30.1810    6.3310 C.3    17  ALA17       0.0319
     43  N        -16.6360  -29.7970   13.5400 N.3    29  GLU29      -0.1231
     44  CA       -17.6040  -30.5610   12.7680 C.3    29  GLU29       0.1699
     45  C        -17.8140  -29.9890   11.3740 C.2    29  GLU29       0.2593
     46  O        -18.2700  -28.8540   11.2120 O.2    29  GLU29      -0.2718
     47  CB       -18.9370  -30.6800   13.5050 C.3    29  GLU29       0.0402
     48  CG       -19.7880  -31.8430   13.0090 C.3    29  GLU29       0.1161
     49  CD       -21.2740  -31.6540   13.2440 C.2    29  GLU29       0.3649
     50  OE1      -21.6920  -30.5620   13.6850 O.co2  29  GLU29      -0.2457
     51  OE2      -22.0320  -32.6100   12.9800 O.co2  29  GLU29      -0.2457
     52  N        -17.4570  -30.7890   10.3730 N.am   30  SER30      -0.1938
     53  CA       -17.7400  -30.4730    8.9830 C.3    30  SER30       0.2055
     54  C        -19.2200  -30.7140    8.7280 C.2    30  SER30       0.2643
     55  O        -19.8480  -31.5330    9.4010 O.2    30  SER30      -0.2714
     56  CB       -16.8780  -31.3290    8.0580 C.3    30  SER30       0.2130
     57  OG       -15.5100  -30.9720    8.1710 O.3    30  SER30      -0.2179
     58  N        -19.7770  -30.0020    7.7560 N.am   31  LYS31      -0.1963
     59  CA       -21.2260  -29.9300    7.6120 C.3    31  LYS31       0.1728
     60  C        -21.6600  -29.4220    6.2380 C.2    31  LYS31       0.2616
     61  O        -20.9990  -28.5650    5.6480 O.2    31  LYS31      -0.2715
     62  CB       -21.7950  -29.0690    8.7540 C.3    31  LYS31       0.0311
     63  CG       -22.5560  -27.8410    8.3360 C.3    31  LYS31       0.0038
     64  CD       -22.1520  -26.6480    9.1660 C.3    31  LYS31       0.0206
     65  CE       -22.5050  -25.3720    8.4380 C.3    31  LYS31       0.1093
     66  NZ       -21.5410  -24.3070    8.7940 N.3    31  LYS31      -0.1314
     67  N        -22.7670  -29.9670    5.7370 N.am   32  LEU32      -0.1977
     68  CA       -23.3480  -29.5540    4.4570 C.3    32  LEU32       0.1596
     69  C        -24.0890  -28.2190    4.5600 C.2    32  LEU32       0.2287
     70  O        -24.4040  -27.7530    5.6600 O.2    32  LEU32      -0.2864
     71  CB       -24.3080  -30.6350    3.9460 C.3    32  LEU32       0.0297
     72  CG       -23.8740  -31.6840    2.9150 C.3    32  LEU32       0.0022
     73  CD1      -22.5350  -32.3460    3.2270 C.3    32  LEU32       0.0001
     74  CD2      -24.9610  -32.7260    2.7880 C.3    32  LEU32       0.0001
     75  N        -19.9940  -19.1720   11.1910 N.3    60  ASP60      -0.1239
     76  CA       -20.5360  -18.7680    9.8920 C.3    60  ASP60       0.1674
     77  C        -21.2230  -17.4050    9.9680 C.2    60  ASP60       0.2266
     78  O        -21.2980  -16.6820    8.9700 O.2    60  ASP60      -0.2867
     79  CB       -21.5390  -19.8120    9.3760 C.3    60  ASP60       0.1410
     80  CG       -21.0420  -21.2470    9.5310 C.2    60  ASP60       0.3668
     81  OD1      -21.7660  -22.0510   10.1550 O.co2  60  ASP60      -0.2456
     82  OD2      -19.9390  -21.5720    9.0340 O.co2  60  ASP60      -0.2456
     83  N         -9.0250  -25.5210   -0.9840 N.3   126  THR126     -0.1203
     84  CA        -9.5430  -26.8610   -0.7080 C.3   126  THR126      0.1994
     85  C         -9.9030  -27.5610   -2.0140 C.2   126  THR126      0.2617
     86  O         -9.9340  -26.9270   -3.0690 O.2   126  THR126     -0.2717
     87  CB       -10.7750  -26.8320    0.2250 C.3   126  THR126      0.1784
     88  OG1      -11.7010  -25.8430   -0.2370 O.3   126  THR126     -0.2211
     89  CG2      -10.3680  -26.5110    1.6550 C.3   126  THR126      0.0376
     90  N        -10.1760  -28.8640   -1.9320 N.am  127  HIS127     -0.1975
     91  CA       -10.4340  -29.7040   -3.1090 C.3   127  HIS127      0.1656
     92  C         -9.2060  -29.7620   -4.0260 C.2   127  HIS127      0.2291
     93  O         -9.3080  -29.5450   -5.2370 O.2   127  HIS127     -0.2864
     94  CB       -11.6810  -29.2340   -3.8810 C.3   127  HIS127      0.0771
     95  CG       -12.9690  -29.4310   -3.1420 C.ar  127  HIS127      0.0820
     96  ND1      -13.3280  -28.6670   -2.0520 N.ar  127  HIS127     -0.2267
     97  CD2      -13.9910  -30.2940   -3.3490 C.ar  127  HIS127      0.1154
     98  CE1      -14.5100  -29.0590   -1.6120 C.ar  127  HIS127      0.1986
     99  NE2      -14.9340  -30.0450   -2.3820 N.ar  127  HIS127     -0.2212
    100  N         -7.6000  -32.3090   -4.9730 N.3   129  GLU129     -0.1245
    101  CA        -7.7430  -33.4490   -5.8910 C.3   129  GLU129      0.1567
    102  C         -8.2780  -33.1010   -7.2890 C.2   129  GLU129      0.2260
    103  O         -8.2180  -33.9300   -8.1990 O.2   129  GLU129     -0.2867
    104  CB        -8.5990  -34.5580   -5.2530 C.3   129  GLU129      0.0388
    105  CG       -10.0810  -34.2150   -5.0520 C.3   129  GLU129      0.1160
    106  CD       -10.3570  -33.3640   -3.8160 C.2   129  GLU129      0.3649
    107  OE1       -9.4260  -33.0960   -3.0310 O.co2 129  GLU129     -0.2457
    108  OE2      -11.5200  -32.9570   -3.6280 O.co2 129  GLU129     -0.2457
    109  N         -5.1600  -28.1020   -0.1700 N.3   162  PHE162     -0.1227
    110  CA        -5.5170  -29.1860    0.7370 C.3   162  PHE162      0.1736
    111  C         -6.5490  -30.1160    0.1070 C.2   162  PHE162      0.2595
    112  O         -7.4810  -29.6700   -0.5670 O.2   162  PHE162     -0.2718
    113  CB        -6.0980  -28.6170    2.0350 C.3   162  PHE162      0.0547
    114  CG        -5.1190  -28.5360    3.1790 C.ar  162  PHE162     -0.0202
    115  CD1       -3.7650  -28.2930    2.9610 C.ar  162  PHE162     -0.0042
    116  CD2       -5.5690  -28.6680    4.4890 C.ar  162  PHE162     -0.0042
    117  CE1       -2.8720  -28.2070    4.0250 C.ar  162  PHE162     -0.0003
    118  CE2       -4.6840  -28.5810    5.5610 C.ar  162  PHE162     -0.0003
    119  CZ        -3.3310  -28.3490    5.3260 C.ar  162  PHE162     -0.0000
    120  N         -6.3620  -31.4120    0.3180 N.am  163  ASN163     -0.1960
    121  CA        -7.4130  -32.3900    0.1060 C.3   163  ASN163      0.1819
    122  C         -7.8280  -32.8590    1.4920 C.2   163  ASN163      0.2621
    123  O         -7.1330  -33.6570    2.1210 O.2   163  ASN163     -0.2715
    124  CB        -6.9030  -33.5540   -0.7430 C.3   163  ASN163      0.1195
    125  CG        -7.9650  -34.6140   -0.9980 C.2   163  ASN163      0.2630
    126  OD1       -9.0580  -34.5830   -0.4240 O.2   163  ASN163     -0.2716
    127  ND2       -7.6470  -35.5600   -1.8760 N.am  163  ASN163     -0.0877
    128  N         -8.9530  -32.3460    1.9740 N.am  164  ASN164     -0.1958
    129  CA        -9.3640  -32.5750    3.3570 C.3   164  ASN164      0.1819
    130  C         -9.8590  -33.9870    3.6660 C.2   164  ASN164      0.2621
    131  O        -10.2860  -34.2690    4.7920 O.2   164  ASN164     -0.2715
    132  CB       -10.3980  -31.5300    3.7910 C.3   164  ASN164      0.1195
    133  CG        -9.7650  -30.2150    4.2030 C.2   164  ASN164      0.2630
    134  OD1       -8.7060  -30.1850    4.8320 O.2   164  ASN164     -0.2716
    135  ND2      -10.4180  -29.1170    3.8550 N.am  164  ASN164     -0.0877
    136  N         -9.7890  -34.8720    2.6720 N.am  165  ARG165     -0.1977
    137  CA       -10.1770  -36.2730    2.8440 C.3   165  ARG165      0.1597
    138  C         -8.9630  -37.2030    2.8010 C.2   165  ARG165      0.2287
    139  O         -9.0960  -38.4140    2.9910 O.2   165  ARG165     -0.2864
    140  CB       -11.2030  -36.6860    1.7830 C.3   165  ARG165      0.0334
    141  CG       -12.4650  -35.8330    1.7590 C.3   165  ARG165      0.0492
    142  CD       -13.3310  -36.1480    0.5540 C.3   165  ARG165      0.2205
    143  NE       -12.5460  -36.2380   -0.6790 N.pl3 165  ARG165     -0.0865
    144  CZ       -13.0600  -36.4330   -1.8930 C.cat 165  ARG165      0.5346
    145  NH1      -12.2530  -36.5050   -2.9440 N.pl3 165  ARG165      0.1354
    146  NH2      -14.3750  -36.5490   -2.0640 N.pl3 165  ARG165      0.1354
@<TRIPOS>BOND
     1   103   102    2
     2   102   101    1
     3   101   104    1
     4   101   100    1
     5   104   105    1
     6    93    92    2
     7   105   106    1
     8    92    91    1
     9    94    95    1
    10    94    91    1
    11   106   108   ar
    12   106   107   ar
    13    97    95   ar
    14    97    99   ar
    15    95    96   ar
    16    91    90    1
    17    86    85    2
    18   145   144    1
    19    99    98   ar
    20   146   144    1
    21    96    98   ar
    22    85    90   am
    23    85    84    1
    24   144   143    2
    25   127   125   am
    26   125   124    1
    27   125   126    2
    28    83    84    1
    29   124   121    1
    30    84    87    1
    31   143   142    1
    32   112   111    2
    33    88    87    1
    34   109   110    1
    35   121   120    1
    36   121   122    1
    37   111   120   am
    38   111   110    1
    39    87    89    1
    40   142   141    1
    41   110   113    1
    42    18    16    1
    43    11    10    2
    44    15    14    2
    45   122   128   am
    46   122   123    2
    47    16    13    1
    48    16    17    1
    49    13    14    1
    50    13    12    1
    51   141   140    1
    52   140   137    1
    53   128   129    1
    54   113   114    1
    55    10    12   am
    56    10     9    1
    57    14    19   am
    58     4     3    2
    59   136   137    1
    60   136   130   am
    61    74    72    1
    62   138   137    1
    63   138   139    2
    64    72    73    1
    65    72    71    1
    66   115   114   ar
    67   115   117   ar
    68     9     8    1
    69   114   116   ar
    70   129   130    1
    71   129   132    1
    72    19    20    1
    73     3     8   am
    74     3     2    1
    75   130   131    2
    76   132   133    1
    77   135   133   am
    78    71    68    1
    79     1     2    1
    80    20    21    1
    81   117   119   ar
    82   133   134    2
    83    68    69    1
    84    68    67    1
    85   116   118   ar
    86     2     5    1
    87    69    70    2
    88     5     6    1
    89     5     7    1
    90    21    22    2
    91    21    23   am
    92   119   118   ar
    93    61    60    2
    94    67    60   am
    95    23    24    1
    96    60    59    1
    97    42    39    1
    98    29    30    1
    99    29    28    1
   100    24    27    1
   101    24    25    1
   102    30    31    1
   103    27    28    1
   104    59    58    1
   105    59    62    1
   106    40    39    1
   107    40    41    2
   108    39    38    1
   109    58    54   am
   110    56    57    1
   111    56    53    1
   112    25    32   am
   113    25    26    2
   114    38    34   am
   115    63    62    1
   116    63    64    1
   117    65    66    1
   118    65    64    1
   119    32    33    1
   120    54    53    1
   121    54    55    2
   122    78    77    2
   123    53    52    1
   124    82    80   ar
   125    79    80    1
   126    79    76    1
   127    34    33    1
   128    34    35    2
   129    80    81   ar
   130    33    36    1
   131    76    77    1
   132    76    75    1
   133    36    37    1
   134    52    45   am
   135    46    45    2
   136    45    44    1
   137    44    47    1
   138    44    43    1
   139    51    49   ar
   140    48    49    1
   141    48    47    1
   142    49    50   ar
