@<TRIPOS>MOLECULE
tmp/2xtsA00.pdb
 197 194 0 0 0
SMALL
GASTEIGER

@<TRIPOS>ATOM
      1  N         69.9100   75.9370   14.3700 N.3    71  PHE71      -0.1227
      2  CA        71.2580   76.4970   14.4600 C.3    71  PHE71       0.1736
      3  C         71.9180   76.6750   13.1100 C.2    71  PHE71       0.2595
      4  O         71.5740   76.0020   12.1240 O.2    71  PHE71      -0.2718
      5  CB        72.1840   75.6720   15.3720 C.3    71  PHE71       0.0547
      6  CG        72.8820   74.5140   14.6970 C.ar   71  PHE71      -0.0202
      7  CD1       72.2150   73.3920   14.2770 C.ar   71  PHE71      -0.0042
      8  CD2       74.2500   74.5570   14.5080 C.ar   71  PHE71      -0.0042
      9  CE1       72.8860   72.3540   13.6700 C.ar   71  PHE71      -0.0003
     10  CE2       74.9090   73.5240   13.9130 C.ar   71  PHE71      -0.0003
     11  CZ        74.2510   72.4220   13.4920 C.ar   71  PHE71      -0.0000
     12  N         72.9080   77.5600   13.1010 N.am   72  GLU72      -0.1965
     13  CA        73.7680   77.8830   11.9620 C.3    72  GLU72       0.1733
     14  C         75.2000   77.6260   12.3290 C.2    72  GLU72       0.2616
     15  O         75.6460   77.9600   13.4120 O.2    72  GLU72      -0.2715
     16  CB        73.6900   79.3800   11.6800 C.3    72  GLU72       0.0429
     17  CG        72.3360   79.9210   11.3000 C.3    72  GLU72       0.1163
     18  CD        72.3450   81.4370   11.2710 C.2    72  GLU72       0.3649
     19  OE1       73.0600   82.0510   10.4470 O.co2  72  GLU72      -0.2457
     20  OE2       71.6350   82.0350   12.0800 O.co2  72  GLU72      -0.2457
     21  N         75.9540   77.0830   11.3920 N.am   73  ARG73      -0.1963
     22  CA        77.4220   77.0470   11.4820 C.3    73  ARG73       0.1729
     23  C         77.9620   77.4460   10.1120 C.2    73  ARG73       0.2616
     24  O         77.6820   76.7820    9.1120 O.2    73  ARG73      -0.2715
     25  CB        77.9510   75.6780   11.9260 C.3    73  ARG73       0.0348
     26  CG        79.3080   75.7120   12.6190 C.3    73  ARG73       0.0492
     27  CD        80.4540   76.1140   11.7350 C.3    73  ARG73       0.2205
     28  NE        81.6980   75.6780   12.3740 N.pl3  73  ARG73      -0.0865
     29  CZ        82.8170   76.3830   12.4440 C.cat  73  ARG73       0.5346
     30  NH1       82.9110   77.6060   11.9180 N.pl3  73  ARG73       0.1354
     31  NH2       83.8540   75.8470   13.0870 N.pl3  73  ARG73       0.1354
     32  N         78.7120   78.5390   10.0740 N.am   74  HIS74      -0.1959
     33  CA        79.3620   79.0320    8.8500 C.3    74  HIS74       0.1787
     34  C         80.8510   79.1850    9.0720 C.2    74  HIS74       0.2620
     35  O         81.3010   79.3250   10.2040 O.2    74  HIS74      -0.2715
     36  CB        78.8300   80.4180    8.4410 C.3    74  HIS74       0.0785
     37  CG        77.3590   80.5170    8.5040 C.ar   74  HIS74       0.0821
     38  ND1       76.6540   81.5060    9.1700 N.ar   74  HIS74      -0.2267
     39  CD2       76.4480   79.6520    8.0170 C.ar   74  HIS74       0.1154
     40  CE1       75.3570   81.2570    9.0440 C.ar   74  HIS74       0.1986
     41  NE2       75.2120   80.1420    8.3410 N.ar   74  HIS74      -0.2212
     42  N         81.5940   79.2120    7.9740 N.am   75  HIS75      -0.1973
     43  CA        83.0280   79.5030    8.0180 C.3    75  HIS75       0.1656
     44  C         83.3990   80.7970    7.2840 C.2    75  HIS75       0.2291
     45  O         84.4590   81.3550    7.5580 O.2    75  HIS75      -0.2864
     46  CB        83.8700   78.3340    7.4910 C.3    75  HIS75       0.0771
     47  CG        83.7390   77.0740    8.2930 C.ar   75  HIS75       0.0820
     48  ND1       84.7140   76.5590    9.1240 N.ar   75  HIS75      -0.2267
     49  CD2       82.6980   76.2120    8.3590 C.ar   75  HIS75       0.1154
     50  CE1       84.2560   75.4340    9.6670 C.ar   75  HIS75       0.1986
     51  NE2       83.0390   75.2140    9.2190 N.ar   75  HIS75      -0.2212
     52  N         71.0390   66.9590   11.8000 N.3   117  CYS117     -0.1235
     53  CA        72.3280   67.5530   11.4610 C.3   117  CYS117      0.1677
     54  C         72.9410   68.0060   12.7740 C.2   117  CYS117      0.2270
     55  O         72.4410   68.9530   13.3670 O.2   117  CYS117     -0.2867
     56  CB        72.1310   68.7430   10.5290 C.3   117  CYS117      0.0956
     57  SG        73.6620   69.5780   10.0860 S.3   117  CYS117     -0.0801
     58  N         76.3910   69.2070   14.6270 N.3   119  CYS119     -0.1235
     59  CA        77.7830   69.6320   14.4680 C.3   119  CYS119      0.1677
     60  C         78.7030   68.6730   15.2390 C.2   119  CYS119      0.2270
     61  O         78.4060   68.2640   16.3400 O.2   119  CYS119     -0.2867
     62  CB        77.9450   71.0360   15.0110 C.3   119  CYS119      0.0956
     63  SG        79.6030   71.7320   14.7360 S.3   119  CYS119     -0.0801
     64  N         69.9500   70.2550   14.5620 N.3   143  HIS143     -0.1241
     65  CA        68.5970   70.4740   14.0770 C.3   143  HIS143      0.1621
     66  C         68.1190   69.2180   13.3590 C.2   143  HIS143      0.2264
     67  O         68.9120   68.3320   13.0560 O.2   143  HIS143     -0.2867
     68  CB        68.4350   71.7750   13.2420 C.3   143  HIS143      0.0745
     69  CG        69.2550   71.8950   12.0030 C.ar  143  HIS143      0.0817
     70  ND1       69.1890   70.9970   10.9590 N.ar  143  HIS143     -0.2268
     71  CD2       70.0500   72.9070   11.5900 C.ar  143  HIS143      0.1154
     72  CE1       69.9550   71.4360    9.9750 C.ar  143  HIS143      0.1986
     73  NE2       70.4900   72.5900   10.3320 N.ar  143  HIS143     -0.2212
     74  N         81.3950   73.8990   -1.4210 N.3   172  GLY172     -0.1225
     75  CA        80.3990   74.9390   -1.4290 C.3   172  GLY172      0.1811
     76  C         80.7560   76.1430   -2.2770 C.2   172  GLY172      0.2280
     77  O         81.9080   76.3420   -2.6480 O.2   172  GLY172     -0.2866
     78  N         80.5560   79.2250   -1.2390 N.3   174  ASP174     -0.1239
     79  CA        81.0940   80.2400   -0.3550 C.3   174  ASP174      0.1674
     80  C         82.6230   80.3200   -0.4050 C.2   174  ASP174      0.2266
     81  O         83.2900   79.4380   -0.9360 O.2   174  ASP174     -0.2867
     82  CB        80.5760   80.0490    1.0930 C.3   174  ASP174      0.1410
     83  CG        80.8810   78.6810    1.6950 C.2   174  ASP174      0.3668
     84  OD1       80.9310   77.6650    0.9520 O.co2 174  ASP174     -0.2456
     85  OD2       81.0110   78.6170    2.9450 O.co2 174  ASP174     -0.2456
     86  N         84.6730   79.9950    2.0060 N.3   176  SER176     -0.1217
     87  CA        85.3000   78.9850    2.8270 C.3   176  SER176      0.1889
     88  C         85.3810   77.6270    2.1390 C.2   176  SER176      0.2288
     89  O         86.2010   76.8230    2.5430 O.2   176  SER176     -0.2866
     90  CB        84.5990   78.8320    4.1620 C.3   176  SER176      0.2089
     91  OG        83.4210   78.0520    4.0670 O.3   176  SER176     -0.2183
     92  N         84.4260   74.7070    2.3980 N.3   178  ASN178     -0.1240
     93  CA        84.0330   73.5750    3.2270 C.3   178  ASN178      0.1653
     94  C         84.1840   72.2430    2.5140 C.2   178  ASN178      0.2266
     95  O         83.3910   71.3290    2.6840 O.2   178  ASN178     -0.2867
     96  CB        82.5960   73.7380    3.7100 C.3   178  ASN178      0.1155
     97  CG        82.3240   72.9950    5.0150 C.2   178  ASN178      0.2627
     98  OD1       81.7030   71.9170    5.0470 O.2   178  ASN178     -0.2716
     99  ND2       82.8270   73.5540    6.0920 N.am  178  ASN178     -0.0877
    100  N         70.6900   80.6900    5.4300 N.3   205  GLU205     -0.1231
    101  CA        71.7370   80.2870    6.3340 C.3   205  GLU205      0.1699
    102  C         71.9440   78.7890    6.4150 C.2   205  GLU205      0.2592
    103  O         72.9480   78.3380    6.9620 O.2   205  GLU205     -0.2718
    104  CB        71.4600   80.8730    7.7330 C.3   205  GLU205      0.0402
    105  CG        70.2040   80.3950    8.4520 C.3   205  GLU205      0.1161
    106  CD        68.9390   81.1700    8.1380 C.2   205  GLU205      0.3649
    107  OE1       68.8050   81.8060    7.0670 O.co2 205  GLU205     -0.2457
    108  OE2       68.0460   81.1240    9.0100 O.co2 205  GLU205     -0.2457
    109  N         70.9970   78.0350    5.8600 N.am  206  HIS206     -0.1976
    110  CA        71.0580   76.5720    5.8020 C.3   206  HIS206      0.1656
    111  C         71.4040   76.0490    4.4100 C.2   206  HIS206      0.2291
    112  O         71.2890   74.8680    4.1370 O.2   206  HIS206     -0.2864
    113  CB        69.7540   75.9500    6.3020 C.3   206  HIS206      0.0771
    114  CG        69.3970   76.3340    7.7050 C.ar  206  HIS206      0.0820
    115  ND1       68.0950   76.5650    8.1080 N.ar  206  HIS206     -0.2267
    116  CD2       70.1770   76.4980    8.7990 C.ar  206  HIS206      0.1154
    117  CE1       68.1030   76.8880    9.3960 C.ar  206  HIS206      0.1986
    118  NE2       69.3490   76.8320    9.8390 N.ar  206  HIS206     -0.2212
    119  N         71.8010   71.9960   -0.5160 N.3   211  ARG211     -0.1245
    120  CA        72.8160   71.4960    0.4100 C.3   211  ARG211      0.1563
    121  C         72.9010   69.9830    0.3240 C.2   211  ARG211      0.2260
    122  O         71.9470   69.3330   -0.1010 O.2   211  ARG211     -0.2867
    123  CB        72.5280   71.8990    1.8640 C.3   211  ARG211      0.0307
    124  CG        71.4530   71.0440    2.5460 C.3   211  ARG211      0.0489
    125  CD        71.2470   71.4190    3.9940 C.3   211  ARG211      0.2205
    126  NE        72.4930   71.3030    4.7510 N.pl3 211  ARG211     -0.0865
    127  CZ        72.7070   71.9000    5.9170 C.cat 211  ARG211      0.5346
    128  NH1       71.7140   72.4850    6.5720 N.pl3 211  ARG211      0.1354
    129  NH2       73.9110   71.8420    6.4760 N.pl3 211  ARG211      0.1354
    130  N         77.9750   67.1160   11.0550 N.3   219  GLY219     -0.1210
    131  CA        77.3780   68.2410   10.3360 C.3   219  GLY219      0.1956
    132  C         78.3080   68.8980    9.3360 C.2   219  GLY219      0.2611
    133  O         77.8620   69.4370    8.3310 O.2   219  GLY219     -0.2717
    134  N         79.6100   68.9340    9.6200 N.am  220  ASN220     -0.1974
    135  CA        80.5220   69.5550    8.6720 C.3   220  ASN220      0.1688
    136  C         80.4020   68.9900    7.2630 C.2   220  ASN220      0.2292
    137  O         80.6660   69.7030    6.2880 O.2   220  ASN220     -0.2864
    138  CB        81.9720   69.4770    9.1680 C.3   220  ASN220      0.1181
    139  CG        82.9260   70.2300    8.2620 C.2   220  ASN220      0.2629
    140  OD1       83.6750   69.6130    7.4910 O.2   220  ASN220     -0.2716
    141  ND2       82.8320   71.5550    8.2530 N.am  220  ASN220     -0.0877
    142  N         77.7410   68.1950    5.7490 N.3   222  TRP222     -0.1227
    143  CA        76.4910   68.6250    5.1190 C.3   222  TRP222      0.1737
    144  C         76.7550   69.9300    4.3700 C.2   222  TRP222      0.2595
    145  O         76.3050   71.0160    4.7750 O.2   222  TRP222     -0.2718
    146  CB        75.3830   68.7810    6.1700 C.3   222  TRP222      0.0564
    147  CG        74.9510   67.5220    6.8670 C.ar  222  TRP222      0.0003
    148  CD1       75.7350   66.5650    7.4460 C.ar  222  TRP222      0.0946
    149  CD2       73.6160   67.1980    7.1860 C.ar  222  TRP222      0.0152
    150  NE1       74.9490   65.6140    8.0390 N.ar  222  TRP222     -0.2442
    151  CE2       73.6350   65.9790    7.8820 C.ar  222  TRP222      0.0810
    152  CE3       72.3880   67.7780    6.8640 C.ar  222  TRP222      0.0012
    153  CZ2       72.4790   65.3550    8.3110 C.ar  222  TRP222      0.0191
    154  CZ3       71.2460   67.1750    7.2900 C.ar  222  TRP222      0.0001
    155  CH2       71.2890   65.9700    8.0120 C.ar  222  TRP222      0.0015
    156  N         77.5360   69.8390    3.2990 N.am  223  VAL223     -0.1966
    157  CA        78.0280   71.0030    2.5790 C.3   223  VAL223      0.1727
    158  C         76.8350   71.8520    2.0880 C.2   223  VAL223      0.2616
    159  O         75.9480   71.3560    1.3870 O.2   223  VAL223     -0.2715
    160  CB        78.9530   70.5850    1.4110 C.3   223  VAL223      0.0290
    161  CG1       79.4080   71.8170    0.6280 C.3   223  VAL223      0.0023
    162  CG2       80.1490   69.8030    1.9080 C.3   223  VAL223      0.0023
    163  N         76.8510   73.1270    2.4520 N.am  224  LYS224     -0.1963
    164  CA        75.8160   74.0810    2.0720 C.3   224  LYS224      0.1728
    165  C         76.2030   74.8430    0.8050 C.2   224  LYS224      0.2616
    166  O         77.3820   75.0030    0.4760 O.2   224  LYS224     -0.2715
    167  CB        75.5900   75.0550    3.2330 C.3   224  LYS224      0.0311
    168  CG        74.9350   74.4350    4.4190 C.3   224  LYS224      0.0038
    169  CD        74.6360   75.4180    5.5490 C.3   224  LYS224      0.0206
    170  CE        75.8610   75.9650    6.2450 C.3   224  LYS224      0.1093
    171  NZ        75.4530   76.9740    7.2470 N.3   224  LYS224     -0.1314
    172  N         75.1860   75.3260    0.1010 N.am  225  TRP225     -0.1974
    173  CA        75.3860   76.0850   -1.1380 C.3   225  TRP225      0.1640
    174  C         76.2690   75.2720   -2.0800 C.2   225  TRP225      0.2290
    175  O         77.2050   75.7860   -2.6800 O.2   225  TRP225     -0.2864
    176  CB        75.9840   77.4960   -0.8720 C.3   225  TRP225      0.0576
    177  CG        75.3710   78.2180    0.2970 C.ar  225  TRP225      0.0006
    178  CD1       74.1510   78.8190    0.3030 C.ar  225  TRP225      0.0946
    179  CD2       75.9330   78.4440    1.5890 C.ar  225  TRP225      0.0152
    180  NE1       73.9060   79.3890    1.5240 N.ar  225  TRP225     -0.2442
    181  CE2       74.9810   79.1610    2.3330 C.ar  225  TRP225      0.0810
    182  CE3       77.1510   78.1390    2.1850 C.ar  225  TRP225      0.0012
    183  CZ2       75.1900   79.5210    3.6560 C.ar  225  TRP225      0.0191
    184  CZ3       77.3670   78.5160    3.4890 C.ar  225  TRP225      0.0001
    185  CH2       76.3850   79.1840    4.2250 C.ar  225  TRP225      0.0015
    186  N         88.1420   68.6420   12.2650 N.3   245  TYR245     -0.1241
    187  CA        87.3610   67.3950   12.2170 C.3   245  TYR245      0.1605
    188  C         88.2880   66.1800   12.1860 C.2   245  TYR245      0.2264
    189  O         88.0090   65.1490   11.5810 O.2   245  TYR245     -0.2867
    190  CB        86.2610   67.4180   11.1340 C.3   245  TYR245      0.0534
    191  CG        85.5050   68.7120   11.2400 C.ar  245  TYR245     -0.0201
    192  CD1       84.5970   68.9260   12.2590 C.ar  245  TYR245     -0.0009
    193  CD2       85.7940   69.7670   10.3930 C.ar  245  TYR245     -0.0009
    194  CE1       83.9460   70.1730   12.3940 C.ar  245  TYR245      0.0417
    195  CE2       85.1750   70.9950   10.5270 C.ar  245  TYR245      0.0417
    196  CZ        84.2810   71.2060   11.5160 C.ar  245  TYR245      0.1957
    197  OH        83.7480   72.4720   11.6280 O.3   245  TYR245     -0.2866
@<TRIPOS>BOND
     1   175   174    2
     2    77    76    2
     3    76    75    1
     4   174   173    1
     5    75    74    1
     6    78    79    1
     7   173   176    1
     8   173   172    1
     9    81    80    2
    10   176   177    1
    11   119   120    1
    12    80    79    1
    13    79    82    1
    14   122   121    2
    15   172   165   am
    16   177   178   ar
    17   177   179   ar
    18   178   180   ar
    19   121   120    1
    20   120   123    1
    21   166   165    2
    22   161   160    1
    23   165   164    1
    24    84    83   ar
    25    82    83    1
    26   159   158    2
    27   160   162    1
    28   160   157    1
    29   180   181   ar
    30   179   182   ar
    31   179   181   ar
    32    83    85   ar
    33   123   124    1
    34    86    87    1
    35   164   163    1
    36   164   167    1
    37   158   163   am
    38   158   157    1
    39    88    89    2
    40    88    87    1
    41   182   184   ar
    42   181   183   ar
    43    92    93    1
    44    94    95    2
    45    94    93    1
    46   124   125    1
    47   157   156    1
    48    87    90    1
    49    93    96    1
    50   167   168    1
    51   156   144   am
    52   184   185   ar
    53   183   185   ar
    54    96    97    1
    55   125   126    1
    56    91    90    1
    57   112   111    2
    58   144   145    2
    59   144   143    1
    60   111   110    1
    61   168   169    1
    62   126   127    2
    63    97    98    2
    64    97    99   am
    65   143   142    1
    66   143   146    1
    67   100   101    1
    68   169   170    1
    69   110   109    1
    70   110   113    1
    71   109   102   am
    72   127   129    1
    73   127   128    1
    74   146   147    1
    75   170   171    1
    76   137   136    2
    77   113   114    1
    78   101   102    1
    79   101   104    1
    80   102   103    2
    81   152   149   ar
    82   152   154   ar
    83   147   149   ar
    84   147   148   ar
    85   107   106   ar
    86   149   151   ar
    87   136   135    1
    88    44    45    2
    89    44    43    1
    90   154   155   ar
    91   148   150   ar
    92    46    43    1
    93    46    47    1
    94   140   139    2
    95   114   115   ar
    96   114   116   ar
    97   104   105    1
    98   151   150   ar
    99   151   153   ar
   100    42    43    1
   101    42    34   am
   102   155   153   ar
   103    39    41   ar
   104    39    37   ar
   105   115   117   ar
   106   106   105    1
   107   106   108   ar
   108   141   139   am
   109   139   138    1
   110    47    49   ar
   111    47    48   ar
   112   133   132    2
   113    41    40   ar
   114    49    51   ar
   115    36    37    1
   116    36    33    1
   117    37    38   ar
   118   135   138    1
   119   135   134    1
   120   116   118   ar
   121    33    34    1
   122    33    32    1
   123    40    38   ar
   124    34    35    2
   125    24    23    2
   126    48    50   ar
   127    51    50   ar
   128   132   134   am
   129   132   131    1
   130   117   118   ar
   131    72    73   ar
   132    72    70   ar
   133    32    23   am
   134    57    56    1
   135    23    22    1
   136    73    71   ar
   137   131   130    1
   138   193   195   ar
   139   193   191   ar
   140    19    18   ar
   141   195   196   ar
   142    56    53    1
   143    70    69   ar
   144   190   191    1
   145   190   187    1
   146   191   192   ar
   147    18    17    1
   148    18    20   ar
   149    17    16    1
   150    21    22    1
   151    21    14   am
   152    53    52    1
   153    53    54    1
   154    22    25    1
   155   196   197    1
   156   196   194   ar
   157   189   188    2
   158    71    69   ar
   159    16    13    1
   160    27    28    1
   161    27    26    1
   162    30    29    1
   163    25    26    1
   164    13    14    1
   165    13    12    1
   166    69    68    1
   167     4     3    2
   168   188   187    1
   169   187   186    1
   170   192   194   ar
   171    14    15    2
   172    28    29    2
   173    29    31    1
   174    54    55    2
   175    67    66    2
   176    12     3   am
   177     3     2    1
   178    68    65    1
   179    66    65    1
   180    11     9   ar
   181    11    10   ar
   182     9     7   ar
   183    10     8   ar
   184    65    64    1
   185     7     6   ar
   186     1     2    1
   187     2     5    1
   188    59    58    1
   189    59    62    1
   190    59    60    1
   191     8     6   ar
   192     6     5    1
   193    63    62    1
   194    60    61    2
