@<TRIPOS>MOLECULE
tmp/2xtsB00.pdb
 197 195 0 0 0
SMALL
GASTEIGER

@<TRIPOS>ATOM
      1  N        102.9060   87.8840    2.4330 N.3    41  PHE41      -0.1241
      2  CA       102.3160   87.6450    3.7400 C.3    41  PHE41       0.1605
      3  C        102.1470   88.9760    4.4880 C.2    41  PHE41       0.2264
      4  O        101.1270   89.2330    5.1280 O.2    41  PHE41      -0.2867
      5  CB       103.1840   86.6700    4.5370 C.3    41  PHE41       0.0534
      6  CG       102.4170   85.9160    5.5830 C.ar   41  PHE41      -0.0203
      7  CD1      101.7340   84.7540    5.2370 C.ar   41  PHE41      -0.0042
      8  CD2      102.3710   86.3600    6.9020 C.ar   41  PHE41      -0.0042
      9  CE1      101.0030   84.0790    6.1850 C.ar   41  PHE41      -0.0003
     10  CE2      101.6480   85.6520    7.8620 C.ar   41  PHE41      -0.0003
     11  CZ       100.9910   84.5080    7.4980 C.ar   41  PHE41      -0.0000
     12  N         99.1250   90.8270    2.9050 N.3    44  ASN44      -0.1225
     13  CA        97.8240   90.1760    2.8020 C.3    44  ASN44       0.1785
     14  C         97.4030   89.2900    3.9650 C.2    44  ASN44       0.2597
     15  O         96.2370   88.9190    4.0410 O.2    44  ASN44      -0.2718
     16  CB        97.7930   89.3190    1.5420 C.3    44  ASN44       0.1169
     17  CG        98.0150   90.1190    0.2950 C.2    44  ASN44       0.2627
     18  OD1       97.1610   90.8960   -0.1090 O.2    44  ASN44      -0.2716
     19  ND2       99.1750   89.9530   -0.3220 N.am   44  ASN44      -0.0877
     20  N         98.3270   88.9820    4.8690 N.am   45  CYS45      -0.1970
     21  CA        98.0980   87.9440    5.9010 C.3    45  CYS45       0.1712
     22  C         98.4710   88.3170    7.3350 C.2    45  CYS45       0.2296
     23  O         97.8410   87.8820    8.2820 O.2    45  CYS45      -0.2864
     24  CB        98.8650   86.6590    5.5310 C.3    45  CYS45       0.0983
     25  SG        98.7900   86.2260    3.7570 S.3    45  CYS45      -0.0798
     26  N         98.3560   90.9440    9.1070 N.3    47  SER47      -0.1202
     27  CA        97.3940   91.7030    9.9010 C.3    47  SER47       0.2020
     28  C         96.5520   90.8480   10.8340 C.2    47  SER47       0.2619
     29  O         96.0180   91.3830   11.8020 O.2    47  SER47      -0.2717
     30  CB        96.4680   92.5190    9.0120 C.3    47  SER47       0.2103
     31  OG        95.7190   91.6870    8.1660 O.3    47  SER47      -0.2182
     32  N         96.4320   89.5510   10.5230 N.am   48  CYS48      -0.1955
     33  CA        95.7670   88.5820   11.3940 C.3    48  CYS48       0.1843
     34  C         96.7210   87.5370   11.9310 C.2    48  CYS48       0.2625
     35  O         96.6860   87.2040   13.1080 O.2    48  CYS48      -0.2714
     36  CB        94.6080   87.9230   10.6490 C.3    48  CYS48       0.0997
     37  SG        93.3960   89.1670   10.1540 S.3    48  CYS48      -0.0797
     38  N         97.5660   86.9860   11.0650 N.am   49  HIS49      -0.1973
     39  CA        98.3730   85.8310   11.4470 C.3    49  HIS49       0.1656
     40  C         99.7850   86.1750   11.9360 C.2    49  HIS49       0.2291
     41  O        100.5480   85.2790   12.2600 O.2    49  HIS49      -0.2864
     42  CB        98.4320   84.8260   10.2870 C.3    49  HIS49       0.0771
     43  CG        97.1100   84.2200    9.9060 C.ar   49  HIS49       0.0820
     44  ND1       96.4320   83.3370   10.7120 N.ar   49  HIS49      -0.2267
     45  CD2       96.3970   84.3070    8.7540 C.ar   49  HIS49       0.1154
     46  CE1       95.3450   82.9260   10.0820 C.ar   49  HIS49       0.1986
     47  NE2       95.2970   83.5040    8.8930 N.ar   49  HIS49      -0.2212
     48  N         93.6370   85.2300   16.5610 N.3    59  TRP59      -0.1228
     49  CA        93.5840   84.6640   15.2090 C.3    59  TRP59       0.1722
     50  C         94.4420   83.3940   15.1380 C.2    59  TRP59       0.2437
     51  O         95.3560   83.2050   15.9530 O.2    59  TRP59      -0.2733
     52  CB        94.1040   85.6630   14.1860 C.3    59  TRP59       0.0563
     53  CG        93.3310   86.9330   14.0260 C.ar   59  TRP59       0.0003
     54  CD1       93.8010   88.1890   14.3190 C.ar   59  TRP59       0.0946
     55  CD2       92.0140   87.1190   13.4710 C.ar   59  TRP59       0.0152
     56  NE1       92.8750   89.1250   13.9840 N.ar   59  TRP59      -0.2442
     57  CE2       91.7670   88.5080   13.4690 C.ar   59  TRP59       0.0810
     58  CE3       91.0150   86.2580   12.9960 C.ar   59  TRP59       0.0012
     59  CZ2       90.5800   89.0580   13.0100 C.ar   59  TRP59       0.0191
     60  CZ3       89.8370   86.8120   12.5140 C.ar   59  TRP59       0.0001
     61  CH2       89.6230   88.1990   12.5430 C.ar   59  TRP59       0.0015
     62  N         94.1920   82.5320   14.1310 N.am   60  PRO60      -0.2718
     63  CA        94.9480   81.2820   14.1440 C.3    60  PRO60       0.1535
     64  C         96.4690   81.4440   14.0420 C.2    60  PRO60       0.2598
     65  O         96.9960   82.2630   13.2730 O.2    60  PRO60      -0.2715
     66  CB        94.3820   80.5300   12.9370 C.3    60  PRO60       0.0310
     67  CG        92.9950   81.0540   12.7820 C.3    60  PRO60       0.0237
     68  CD        93.1110   82.5130   13.1190 C.3    60  PRO60       0.0939
     69  N         97.1440   80.6070   14.8060 N.am   61  VAL61      -0.1964
     70  CA        98.5920   80.4600   14.7920 C.3    61  VAL61       0.1727
     71  C         98.9410   79.4780   13.6650 C.2    61  VAL61       0.2616
     72  O         98.3880   78.3790   13.6120 O.2    61  VAL61      -0.2715
     73  CB        99.0650   79.8990   16.1490 C.3    61  VAL61       0.0290
     74  CG1      100.5850   79.6820   16.1430 C.3    61  VAL61       0.0023
     75  CG2       98.6590   80.8190   17.3010 C.3    61  VAL61       0.0023
     76  N         99.8390   79.8910   12.7590 N.am   62  LEU62      -0.1977
     77  CA       100.2190   79.0680   11.6070 C.3    62  LEU62       0.1596
     78  C        101.5640   78.3830   11.7540 C.2    62  LEU62       0.2287
     79  O        101.9180   77.5420   10.9330 O.2    62  LEU62      -0.2864
     80  CB       100.1770   79.8940   10.3250 C.3    62  LEU62       0.0297
     81  CG        98.8650   80.6330   10.0510 C.3    62  LEU62       0.0022
     82  CD1       98.9240   81.2980    8.6800 C.3    62  LEU62       0.0001
     83  CD2       97.6390   79.7130   10.1810 C.3    62  LEU62       0.0001
     84  N         98.2230   73.2940   17.8570 N.3    76  LYS76      -0.1231
     85  CA        98.1040   72.5670   16.6140 C.3    76  LYS76       0.1693
     86  C         98.2160   73.5350   15.4540 C.2    76  LYS76       0.2593
     87  O         97.3330   74.3750   15.2300 O.2    76  LYS76      -0.2718
     88  CB        96.7640   71.8420   16.5800 C.3    76  LYS76       0.0285
     89  CG        96.6440   70.7780   17.6420 C.3    76  LYS76       0.0035
     90  CD        95.2340   70.4880   18.0910 C.3    76  LYS76       0.0206
     91  CE        94.3910   69.8950   17.0000 C.3    76  LYS76       0.1093
     92  NZ        92.9750   69.6090   17.4320 N.3    76  LYS76      -0.1314
     93  N         99.3030   73.4180   14.7140 N.am   77  THR77      -0.1939
     94  CA        99.5920   74.3080   13.5960 C.3    77  THR77       0.2028
     95  C         99.9670   73.5150   12.3570 C.2    77  THR77       0.2642
     96  O        100.1080   72.3090   12.4000 O.2    77  THR77      -0.2714
     97  CB       100.7790   75.2690   13.9440 C.3    77  THR77       0.1808
     98  OG1      101.9870   74.5130   13.9940 O.3    77  THR77      -0.2208
     99  CG2      100.5530   76.0030   15.2460 C.3    77  THR77       0.0379
    100  N        100.1900   74.2260   11.2610 N.am   78  ILE78      -0.1977
    101  CA       100.7130   73.5820   10.0590 C.3    78  ILE78       0.1596
    102  C        101.9180   72.7060   10.3910 C.2    78  ILE78       0.2287
    103  O        101.9550   71.5380   10.0300 O.2    78  ILE78      -0.2864
    104  CB       101.1210   74.6110    8.9810 C.3    78  ILE78       0.0276
    105  CG1       99.8870   75.3720    8.4720 C.3    78  ILE78       0.0022
    106  CG2      101.8280   73.9110    7.8100 C.3    78  ILE78       0.0022
    107  CD1      100.2200   76.5200    7.5830 C.3    78  ILE78       0.0001
    108  N         99.6060   69.5020   10.9480 N.3    82  TRP82      -0.1241
    109  CA        99.0320   69.1440    9.6430 C.3    82  TRP82       0.1605
    110  C         99.8340   68.0410    8.9760 C.2    82  TRP82       0.2264
    111  O        101.0640   68.0100    9.0620 O.2    82  TRP82      -0.2867
    112  CB        98.9900   70.3330    8.6840 C.3    82  TRP82       0.0550
    113  CG        98.0180   71.4240    9.0230 C.ar   82  TRP82       0.0003
    114  CD1       97.5930   71.8200   10.2570 C.ar   82  TRP82       0.0946
    115  CD2       97.3700   72.2700    8.0930 C.ar   82  TRP82       0.0152
    116  NE1       96.7380   72.8780   10.1500 N.ar   82  TRP82      -0.2442
    117  CE2       96.5850   73.1760    8.8260 C.ar   82  TRP82       0.0810
    118  CE3       97.3840   72.3650    6.7110 C.ar   82  TRP82       0.0012
    119  CZ2       95.7860   74.1140    8.2090 C.ar   82  TRP82       0.0191
    120  CZ3       96.6240   73.3300    6.1070 C.ar   82  TRP82       0.0001
    121  CH2       95.8490   74.1970    6.8520 C.ar   82  TRP82       0.0015
    122  N         97.7910   73.0110    2.6180 N.3    88  VAL88      -0.1245
    123  CA        98.2110   74.4040    2.8470 C.3    88  VAL88       0.1561
    124  C         98.0080   75.1980    1.5620 C.2    88  VAL88       0.2260
    125  O         97.3530   76.2100    1.5480 O.2    88  VAL88      -0.2867
    126  CB        99.7020   74.4980    3.2720 C.3    88  VAL88       0.0252
    127  CG1      100.0930   75.9390    3.4750 C.3    88  VAL88       0.0019
    128  CG2       99.9880   73.6900    4.5360 C.3    88  VAL88       0.0019
    129  N         93.9850   75.2730    0.5890 N.3    91  TYR91      -0.1227
    130  CA        93.1580   76.0860    1.4490 C.3    91  TYR91       0.1736
    131  C         93.5120   77.5670    1.2890 C.2    91  TYR91       0.2595
    132  O         92.6270   78.4180    1.2270 O.2    91  TYR91      -0.2718
    133  CB        93.3350   75.6650    2.9260 C.3    91  TYR91       0.0548
    134  CG        92.4980   76.4740    3.8780 C.ar   91  TYR91      -0.0200
    135  CD1       91.1310   76.2600    3.9680 C.ar   91  TYR91      -0.0009
    136  CD2       93.0690   77.4410    4.6800 C.ar   91  TYR91      -0.0009
    137  CE1       90.3490   77.0100    4.8320 C.ar   91  TYR91       0.0417
    138  CE2       92.2860   78.2110    5.5270 C.ar   91  TYR91       0.0417
    139  CZ        90.9330   77.9700    5.6320 C.ar   91  TYR91       0.1957
    140  OH        90.1960   78.7100    6.5210 O.3    91  TYR91      -0.2866
    141  N         94.8030   77.9050    1.2660 N.am   92  VAL92      -0.1980
    142  CA        95.1900   79.3140    1.1100 C.3    92  VAL92       0.1595
    143  C         94.6730   79.8590   -0.2260 C.2    92  VAL92       0.2287
    144  O         94.1150   80.9450   -0.2850 O.2    92  VAL92      -0.2864
    145  CB        96.7150   79.5030    1.2540 C.3    92  VAL92       0.0276
    146  CG1       97.1430   80.8910    0.7830 C.3    92  VAL92       0.0022
    147  CG2       97.1420   79.2370    2.7010 C.3    92  VAL92       0.0022
    148  N         91.7120   82.0320    1.5780 N.3    96  MET96      -0.1231
    149  CA        92.3600   83.1550    2.2420 C.3    96  MET96       0.1687
    150  C         92.7710   84.1800    1.1790 C.2    96  MET96       0.2434
    151  O         92.8600   83.8430    0.0040 O.2    96  MET96      -0.2733
    152  CB        93.5640   82.6640    3.0530 C.3    96  MET96       0.0400
    153  CG        93.1410   81.8770    4.2630 C.3    96  MET96       0.0596
    154  SD        92.4700   82.9050    5.6120 S.3    96  MET96      -0.1393
    155  CE        90.9610   81.9890    6.0380 C.3    96  MET96       0.0692
    156  N         92.9970   85.4440    1.5710 N.am   97  PRO97      -0.2718
    157  CA        92.7460   86.0240    2.8810 C.3    97  PRO97       0.1535
    158  C         91.2830   86.0100    3.2640 C.2    97  PRO97       0.2598
    159  O         90.3990   86.1190    2.4160 O.2    97  PRO97      -0.2715
    160  CB        93.2210   87.4790    2.7510 C.3    97  PRO97       0.0310
    161  CG        93.9670   87.5500    1.4870 C.3    97  PRO97       0.0237
    162  CD        93.4990   86.4380    0.6150 C.3    97  PRO97       0.0939
    163  N         91.0430   85.9250    4.5610 N.am   98  PHE98      -0.1974
    164  CA        89.7030   85.8560    5.1450 C.3    98  PHE98       0.1639
    165  C         89.0000   87.1770    4.8580 C.2    98  PHE98       0.2290
    166  O         89.4570   88.2340    5.2990 O.2    98  PHE98      -0.2864
    167  CB        89.8900   85.6620    6.6500 C.3    98  PHE98       0.0560
    168  CG        88.6570   85.3530    7.4570 C.ar   98  PHE98      -0.0200
    169  CD1       87.9290   84.1970    7.2520 C.ar   98  PHE98      -0.0042
    170  CD2       88.3030   86.1670    8.5170 C.ar   98  PHE98      -0.0042
    171  CE1       86.8460   83.8690    8.0590 C.ar   98  PHE98      -0.0003
    172  CE2       87.2120   85.8540    9.3390 C.ar   98  PHE98      -0.0003
    173  CZ        86.4720   84.6940    9.0980 C.ar   98  PHE98      -0.0000
    174  N         94.7010   85.3180   -4.7180 N.3   104  LEU104     -0.1245
    175  CA        96.1040   84.9590   -4.9260 C.3   104  LEU104      0.1561
    176  C         96.2910   84.1910   -6.2300 C.2   104  LEU104      0.2260
    177  O         95.5140   83.3060   -6.5560 O.2   104  LEU104     -0.2867
    178  CB        96.5680   84.0830   -3.7680 C.3   104  LEU104      0.0270
    179  CG        96.5580   84.7030   -2.3680 C.3   104  LEU104      0.0019
    180  CD1       96.7830   83.6020   -1.3670 C.3   104  LEU104      0.0001
    181  CD2       97.6090   85.7670   -2.2140 C.3   104  LEU104      0.0001
    182  N        103.7580   81.9830   -0.7750 N.3   112  ILE112     -0.1245
    183  CA       103.2440   82.0030    0.5950 C.3   112  ILE112      0.1561
    184  C        103.4690   80.6560    1.2640 C.2   112  ILE112      0.2260
    185  O        103.8790   80.6010    2.4140 O.2   112  ILE112     -0.2867
    186  CB       101.7760   82.4020    0.6120 C.3   112  ILE112      0.0252
    187  CG1      101.6500   83.9020    0.2960 C.3   112  ILE112      0.0019
    188  CG2      101.1080   82.0490    1.9720 C.3   112  ILE112      0.0019
    189  CD1      100.2660   84.3560    0.0430 C.3   112  ILE112      0.0001
    190  N        105.4400   79.9170    4.7040 N.3   116  LEU116     -0.1245
    191  CA       104.8950   79.1690    5.8270 C.3   116  LEU116      0.1561
    192  C        105.7960   77.9960    6.2190 C.2   116  LEU116      0.2260
    193  O        105.9500   77.6950    7.4060 O.2   116  LEU116     -0.2867
    194  CB       103.4700   78.7170    5.5260 C.3   116  LEU116      0.0270
    195  CG       102.4410   79.8500    5.4800 C.3   116  LEU116      0.0019
    196  CD1      101.0880   79.3310    4.9330 C.3   116  LEU116      0.0001
    197  CD2      102.3110   80.5120    6.8660 C.3   116  LEU116      0.0001
@<TRIPOS>BOND
     1   177   176    2
     2   176   175    1
     3   175   174    1
     4   175   178    1
     5   178   179    1
     6   179   181    1
     7   179   180    1
     8   182   183    1
     9    19    17   am
    10   144   143    2
    11   143   142    1
    12    18    17    2
    13   151   150    2
    14   189   187    1
    15    17    16    1
    16   187   186    1
    17   129   130    1
    18   183   186    1
    19   183   184    1
    20   186   188    1
    21   162   161    1
    22   162   156    1
    23   146   145    1
    24   142   145    1
    25   142   141    1
    26   150   156   am
    27   150   149    1
    28   132   131    2
    29   145   147    1
    30   184   185    2
    31   141   131   am
    32   131   130    1
    33   130   133    1
    34   161   160    1
    35    16    13    1
    36   125   124    2
    37   124   123    1
    38   156   157    1
    39   148   149    1
    40   149   152    1
    41   159   158    2
    42     1     2    1
    43   122   123    1
    44   160   157    1
    45    13    12    1
    46    13    14    1
    47   123   126    1
    48   157   158    1
    49   133   134    1
    50   152   153    1
    51   158   163   am
    52   126   127    1
    53   126   128    1
    54     2     3    1
    55     2     5    1
    56    25    24    1
    57   134   135   ar
    58   134   136   ar
    59    14    15    2
    60    14    20   am
    61   135   137   ar
    62   153   154    1
    63     3     4    2
    64     5     6    1
    65   163   164    1
    66   136   138   ar
    67   190   191    1
    68   137   139   ar
    69   165   164    1
    70   165   166    2
    71    20    21    1
    72   196   195    1
    73   164   167    1
    74     7     6   ar
    75     7     9   ar
    76   195   194    1
    77   195   197    1
    78   194   191    1
    79   138   139   ar
    80    24    21    1
    81     6     8   ar
    82   154   155    1
    83   139   140    1
    84   191   192    1
    85    21    22    1
    86   120   118   ar
    87   120   121   ar
    88     9    11   ar
    89   192   193    2
    90   167   168    1
    91   118   115   ar
    92   121   119   ar
    93     8    10   ar
    94   169   168   ar
    95   169   171   ar
    96    22    23    2
    97   168   170   ar
    98    11    10   ar
    99   107   105    1
   100   106   104    1
   101   171   173   ar
   102   115   117   ar
   103   115   113   ar
   104    31    30    1
   105   119   117   ar
   106   105   104    1
   107   170   172   ar
   108    82    81    1
   109   112   113    1
   110   112   109    1
   111    45    47   ar
   112    45    43   ar
   113   117   116   ar
   114    47    46   ar
   115   110   111    2
   116   110   109    1
   117   104   101    1
   118    30    27    1
   119   113   114   ar
   120   173   172   ar
   121    26    27    1
   122   109   108    1
   123    27    28    1
   124    43    42    1
   125    43    44   ar
   126   103   102    2
   127    81    83    1
   128    81    80    1
   129   101   102    1
   130   101   100    1
   131    46    44   ar
   132   116   114   ar
   133    37    36    1
   134    42    39    1
   135    80    77    1
   136    32    28   am
   137    32    33    1
   138    36    33    1
   139    28    29    2
   140    79    78    2
   141    38    39    1
   142    38    34   am
   143   100    95   am
   144    33    34    1
   145    39    40    1
   146    77    78    1
   147    77    76    1
   148    34    35    2
   149    40    41    2
   150    95    96    2
   151    95    94    1
   152    60    61   ar
   153    60    58   ar
   154    61    59   ar
   155    76    71   am
   156    67    66    1
   157    67    68    1
   158    66    63    1
   159    58    55   ar
   160    59    57   ar
   161    68    62    1
   162    65    64    2
   163    57    55   ar
   164    57    56   ar
   165    55    53   ar
   166    94    97    1
   167    94    93    1
   168    72    71    2
   169    71    70    1
   170    97    98    1
   171    97    99    1
   172    56    54   ar
   173    53    52    1
   174    53    54   ar
   175    64    63    1
   176    64    69   am
   177    62    63    1
   178    62    50   am
   179    52    49    1
   180    93    86   am
   181    70    69    1
   182    70    73    1
   183    50    49    1
   184    50    51    2
   185    49    48    1
   186    87    86    2
   187    86    85    1
   188    74    73    1
   189    73    75    1
   190    88    85    1
   191    88    89    1
   192    85    84    1
   193    91    92    1
   194    91    90    1
   195    89    90    1
