@<TRIPOS>MOLECULE
tmp/2xtuA03.pdb
 75 71 0 0 0
SMALL
GASTEIGER

@<TRIPOS>ATOM
      1  N        -25.7440   13.4540   17.1060 N.3    94  LEU94      -0.1245
      2  CA       -25.3960   14.7540   16.5210 C.3    94  LEU94       0.1561
      3  C        -24.2610   14.6050   15.5020 C.2    94  LEU94       0.2260
      4  O        -24.3040   15.1910   14.4290 O.2    94  LEU94      -0.2867
      5  CB       -24.9860   15.7680   17.6020 C.3    94  LEU94       0.0270
      6  CG       -24.7350   17.2000   17.0970 C.3    94  LEU94       0.0019
      7  CD1      -25.9900   17.7850   16.4860 C.3    94  LEU94       0.0001
      8  CD2      -24.2170   18.1210   18.2060 C.3    94  LEU94       0.0001
      9  N        -24.5900   15.4000   11.4760 N.3    98  VAL98      -0.1245
     10  CA       -23.7370   16.3150   10.7250 C.3    98  VAL98       0.1561
     11  C        -23.0250   15.5590    9.6200 C.2    98  VAL98       0.2260
     12  O        -22.9090   16.0510    8.4980 O.2    98  VAL98      -0.2867
     13  CB       -22.7190   17.0450   11.6440 C.3    98  VAL98       0.0252
     14  CG1      -21.7600   17.9000   10.8320 C.3    98  VAL98       0.0019
     15  CG2      -23.4580   17.9020   12.6740 C.3    98  VAL98       0.0019
     16  N        -23.3530   16.5540    5.5440 N.3   102  PHE102     -0.1241
     17  CA       -22.2140   16.9260    4.7070 C.3   102  PHE102      0.1605
     18  C        -21.8310   15.8690    3.6650 C.2   102  PHE102      0.2264
     19  O        -21.3970   16.2170    2.5640 O.2   102  PHE102     -0.2867
     20  CB       -20.9820   17.2590    5.5590 C.3   102  PHE102      0.0534
     21  CG       -21.1410   18.4900    6.4090 C.ar  102  PHE102     -0.0203
     22  CD1      -20.1830   18.8180    7.3530 C.ar  102  PHE102     -0.0042
     23  CD2      -22.2460   19.3060    6.2760 C.ar  102  PHE102     -0.0042
     24  CE1      -20.3180   19.9490    8.1400 C.ar  102  PHE102     -0.0003
     25  CE2      -22.3900   20.4420    7.0620 C.ar  102  PHE102     -0.0003
     26  CZ       -21.4260   20.7610    7.9950 C.ar  102  PHE102     -0.0000
     27  N         -8.4030   14.3170   11.2390 N.3   151  TRP151     -0.1241
     28  CA        -8.6540   15.6650   10.7560 C.3   151  TRP151      0.1605
     29  C         -8.0840   15.8560    9.3560 C.2   151  TRP151      0.2264
     30  O         -8.7060   16.5080    8.5050 O.2   151  TRP151     -0.2867
     31  CB        -8.0830   16.7150   11.7130 C.3   151  TRP151      0.0550
     32  CG        -8.5920   18.0790   11.4000 C.ar  151  TRP151      0.0003
     33  CD1       -8.0810   18.9580   10.4900 C.ar  151  TRP151      0.0946
     34  CD2       -9.7410   18.7130   11.9690 C.ar  151  TRP151      0.0152
     35  NE1       -8.8290   20.1090   10.4690 N.ar  151  TRP151     -0.2442
     36  CE2       -9.8560   19.9830   11.3680 C.ar  151  TRP151      0.0810
     37  CE3      -10.6810   18.3330   12.9340 C.ar  151  TRP151      0.0012
     38  CZ2      -10.8750   20.8730   11.6950 C.ar  151  TRP151      0.0191
     39  CZ3      -11.6910   19.2200   13.2580 C.ar  151  TRP151      0.0001
     40  CH2      -11.7780   20.4750   12.6400 C.ar  151  TRP151      0.0015
     41  N        -16.2920   13.5320    8.2390 N.3   160  ALA160     -0.1231
     42  CA       -16.2360   14.9570    7.9970 C.3   160  ALA160      0.1694
     43  C        -15.7620   15.6220    9.2810 C.2   160  ALA160      0.2592
     44  O        -16.1600   15.2290   10.3840 O.2   160  ALA160     -0.2718
     45  CB       -17.6200   15.4800    7.6030 C.3   160  ALA160      0.0304
     46  N        -14.8970   16.6190    9.1520 N.am  161  ASN161     -0.1960
     47  CA       -14.4240   17.3190   10.3340 C.3   161  ASN161      0.1819
     48  C        -15.5530   18.0250   11.0700 C.2   161  ASN161      0.2621
     49  O        -15.4810   18.2260   12.2770 O.2   161  ASN161     -0.2715
     50  CB       -13.3090   18.2980    9.9740 C.3   161  ASN161      0.1195
     51  CG       -12.0230   17.5900    9.6400 C.2   161  ASN161      0.2630
     52  OD1      -11.8170   16.4440   10.0440 O.2   161  ASN161     -0.2716
     53  ND2      -11.1490   18.2580    8.8890 N.am  161  ASN161     -0.0877
     54  N        -16.5940   18.4100   10.3430 N.am  162  GLY162     -0.1954
     55  CA       -17.7590   18.9680   10.9960 C.3   162  GLY162      0.1869
     56  C        -18.3700   17.9600   11.9570 C.2   162  GLY162      0.2309
     57  O        -18.8730   18.3360   13.0140 O.2   162  GLY162     -0.2863
     58  N        -16.1950   17.8100   15.0510 N.3   165  ILE165     -0.1231
     59  CA       -16.4480   18.9810   15.8850 C.3   165  ILE165      0.1692
     60  C        -17.7470   18.8160   16.6450 C.2   165  ILE165      0.2591
     61  O        -17.8340   19.1460   17.8280 O.2   165  ILE165     -0.2718
     62  CB       -16.5400   20.2600   15.0180 C.3   165  ILE165      0.0266
     63  CG1      -15.1680   20.6230   14.4450 C.3   165  ILE165      0.0019
     64  CG2      -17.1040   21.4260   15.8150 C.3   165  ILE165      0.0020
     65  CD1      -15.2390   21.7080   13.3890 C.3   165  ILE165      0.0001
     66  N        -18.7680   18.3100   15.9570 N.am  166  ALA166     -0.1980
     67  CA       -20.0600   18.0900   16.5980 C.3   166  ALA166      0.1597
     68  C        -19.9300   17.1460   17.8010 C.2   166  ALA166      0.2287
     69  O        -20.4420   17.4250   18.8800 O.2   166  ALA166     -0.2864
     70  CB       -21.0810   17.5520   15.5810 C.3   166  ALA166      0.0319
     71  N        -18.0240   18.8980   20.6060 N.3   169  ALA169     -0.1245
     72  CA       -18.8630   19.9300   21.2160 C.3   169  ALA169      0.1562
     73  C        -19.8100   19.3650   22.2720 C.2   169  ALA169      0.2260
     74  O        -20.0100   19.9800   23.3100 O.2   169  ALA169     -0.2867
     75  CB       -19.6520   20.6750   20.1480 C.3   169  ALA169      0.0290
@<TRIPOS>BOND
     1    19    18    2
     2    18    17    1
     3    17    16    1
     4    17    20    1
     5    20    21    1
     6    23    21   ar
     7    23    25   ar
     8    21    22   ar
     9    25    26   ar
    10    22    24   ar
    11    45    42    1
    12    26    24   ar
    13    42    41    1
    14    42    43    1
    15    12    11    2
    16    30    29    2
    17    53    51   am
    18    46    43   am
    19    46    47    1
    20    43    44    2
    21    29    28    1
    22    11    10    1
    23    51    50    1
    24    51    52    2
    25    50    47    1
    26    47    48    1
    27    54    55    1
    28    54    48   am
    29    35    33   ar
    30    35    36   ar
    31    33    32   ar
    32    10     9    1
    33    10    13    1
    34    28    27    1
    35    28    31    1
    36    14    13    1
    37    55    56    1
    38    48    49    2
    39    36    38   ar
    40    36    34   ar
    41    32    31    1
    42    32    34   ar
    43    13    15    1
    44    38    40   ar
    45    56    57    2
    46    34    37   ar
    47    40    39   ar
    48    37    39   ar
    49    65    63    1
    50     4     3    2
    51    63    62    1
    52    62    64    1
    53    62    59    1
    54    58    59    1
    55     3     2    1
    56    70    67    1
    57    59    60    1
    58    66    67    1
    59    66    60   am
    60     7     6    1
    61     2     1    1
    62     2     5    1
    63    67    68    1
    64    60    61    2
    65     6     5    1
    66     6     8    1
    67    68    69    2
    68    75    72    1
    69    71    72    1
    70    72    73    1
    71    73    74    2
