@<TRIPOS>MOLECULE
tmp/2xtuA01.pdb
 123 121 0 0 0
SMALL
GASTEIGER

@<TRIPOS>ATOM
      1  N        -12.2600   -0.7950    9.2260 N.3    57  SER57      -0.1217
      2  CA       -10.8950   -1.3120    9.1470 C.3    57  SER57       0.1889
      3  C        -10.4150   -1.7010   10.5350 C.2    57  SER57       0.2288
      4  O        -11.0120   -1.3190   11.5420 O.2    57  SER57      -0.2866
      5  CB        -9.9440   -0.2890    8.5220 C.3    57  SER57       0.2089
      6  OG        -9.6040    0.7320    9.4410 O.3    57  SER57      -0.2183
      7  N         -7.7000   -0.7110   12.1100 N.3    59  MET59      -0.1230
      8  CA        -7.2590    0.4920   12.8180 C.3    59  MET59       0.1702
      9  C         -8.4400    1.3000   13.3440 C.2    59  MET59       0.2592
     10  O         -8.3770    1.8890   14.4220 O.2    59  MET59      -0.2718
     11  CB        -6.4350    1.3900   11.8940 C.3    59  MET59       0.0401
     12  CG        -5.1030    0.8070   11.4550 C.3    59  MET59       0.0596
     13  SD        -3.8490    0.8800   12.7450 S.3    59  MET59      -0.1393
     14  CE        -4.0620   -0.7160   13.5220 C.3    59  MET59       0.0692
     15  N         -9.5020    1.3510   12.5510 N.am   60  HIS60      -0.1976
     16  CA       -10.7020    2.1010   12.9220 C.3    60  HIS60       0.1656
     17  C        -11.2530    1.5530   14.2300 C.2    60  HIS60       0.2291
     18  O        -11.4420    2.2990   15.1970 O.2    60  HIS60      -0.2864
     19  CB       -11.7500    1.9870   11.8090 C.3    60  HIS60       0.0771
     20  CG       -12.9170    2.9190   11.9610 C.ar   60  HIS60       0.0820
     21  ND1      -14.1230    2.6990   11.3300 N.ar   60  HIS60      -0.2267
     22  CD2      -13.0570    4.0800   12.6480 C.ar   60  HIS60       0.1154
     23  CE1      -14.9640    3.6740   11.6370 C.ar   60  HIS60       0.1986
     24  NE2      -14.3400    4.5310   12.4270 N.ar   60  HIS60      -0.2212
     25  N         -8.3670    1.5260   17.5260 N.3    63  PHE63      -0.1241
     26  CA        -8.1390    2.7450   18.2780 C.3    63  PHE63       0.1605
     27  C         -9.4250    3.3140   18.8630 C.2    63  PHE63       0.2264
     28  O         -9.4030    3.9000   19.9360 O.2    63  PHE63      -0.2867
     29  CB        -7.3550    3.7650   17.4660 C.3    63  PHE63       0.0534
     30  CG        -5.9080    3.3890   17.3080 C.ar   63  PHE63      -0.0203
     31  CD1       -5.4670    2.7430   16.1690 C.ar   63  PHE63      -0.0042
     32  CD2       -5.0090    3.6230   18.3340 C.ar   63  PHE63      -0.0042
     33  CE1       -4.1430    2.3710   16.0340 C.ar   63  PHE63      -0.0003
     34  CE2       -3.6830    3.2530   18.2070 C.ar   63  PHE63      -0.0003
     35  CZ        -3.2520    2.6270   17.0550 C.ar   63  PHE63      -0.0000
     36  N         -9.7180    3.9070   23.0110 N.3    67  TRP67      -0.1241
     37  CA       -10.1090    5.1610   23.6430 C.3    67  TRP67       0.1605
     38  C        -11.4090    4.9890   24.4330 C.2    67  TRP67       0.2264
     39  O        -11.5510    5.5220   25.5310 O.2    67  TRP67      -0.2867
     40  CB       -10.2750    6.2740   22.6010 C.3    67  TRP67       0.0550
     41  CG        -8.9750    6.8390   22.1010 C.ar   67  TRP67       0.0003
     42  CD1       -8.4960    6.7950   20.8310 C.ar   67  TRP67       0.0946
     43  CD2       -7.9940    7.5300   22.8810 C.ar   67  TRP67       0.0152
     44  NE1       -7.2720    7.4280   20.7610 N.ar   67  TRP67      -0.2442
     45  CE2       -6.9460    7.8910   22.0080 C.ar   67  TRP67       0.0810
     46  CE3       -7.9110    7.8980   24.2300 C.ar   67  TRP67       0.0012
     47  CZ2       -5.8260    8.5900   22.4420 C.ar   67  TRP67       0.0191
     48  CZ3       -6.7940    8.5920   24.6580 C.ar   67  TRP67       0.0001
     49  CH2       -5.7710    8.9300   23.7700 C.ar   67  TRP67       0.0015
     50  N        -16.1580    7.0500   16.1970 N.3   111  THR111     -0.1218
     51  CA       -15.2300    8.1790   16.1770 C.3   111  THR111      0.1862
     52  C        -15.8320    9.4580   16.7860 C.2   111  THR111      0.2287
     53  O        -15.1680   10.1540   17.5420 O.2   111  THR111     -0.2866
     54  CB       -14.6500    8.4280   14.7540 C.3   111  THR111      0.1770
     55  OG1      -13.9580    7.2490   14.3200 O.3   111  THR111     -0.2211
     56  CG2      -13.6750    9.5980   14.7530 C.3   111  THR111      0.0375
     57  N         -1.2820   11.9700   22.8050 N.3   142  PHE142     -0.1241
     58  CA        -1.6970   10.8800   21.9320 C.3   142  PHE142      0.1605
     59  C         -3.1370   11.0310   21.4360 C.2   142  PHE142      0.2264
     60  O         -3.4550   10.6560   20.3060 O.2   142  PHE142     -0.2867
     61  CB        -1.3930    9.5450   22.6050 C.3   142  PHE142      0.0534
     62  CG         0.0680    9.3890   22.8730 C.ar  142  PHE142     -0.0203
     63  CD1        0.5830    9.5790   24.1380 C.ar  142  PHE142     -0.0042
     64  CD2        0.9460    9.2000   21.8130 C.ar  142  PHE142     -0.0042
     65  CE1        1.9510    9.5010   24.3560 C.ar  142  PHE142     -0.0003
     66  CE2        2.3100    9.1200   22.0270 C.ar  142  PHE142     -0.0003
     67  CZ         2.8070    9.2730   23.2960 C.ar  142  PHE142     -0.0000
     68  N         -2.7170   13.2780   18.4990 N.3   145  ILE145     -0.1231
     69  CA        -2.2000   12.5740   17.3370 C.3   145  ILE145      0.1692
     70  C         -3.3100   11.7910   16.6280 C.2   145  ILE145      0.2592
     71  O         -3.3780   11.7560   15.3960 O.2   145  ILE145     -0.2718
     72  CB        -1.0460   11.6380   17.7200 C.3   145  ILE145      0.0266
     73  CG1        0.2030   12.4720   18.0750 C.3   145  ILE145      0.0019
     74  CG2       -0.7450   10.6790   16.5830 C.3   145  ILE145      0.0020
     75  CD1        1.3410   11.6370   18.6720 C.3   145  ILE145      0.0001
     76  N         -4.1760   11.1670   17.4180 N.am  146  TRP146     -0.1976
     77  CA        -5.3430   10.4580   16.8980 C.3   146  TRP146      0.1640
     78  C         -6.2980   11.4360   16.2040 C.2   146  TRP146      0.2290
     79  O         -6.8410   11.1370   15.1450 O.2   146  TRP146     -0.2864
     80  CB        -6.0300    9.6970   18.0420 C.3   146  TRP146      0.0576
     81  CG        -7.2790    8.9410   17.6500 C.ar  146  TRP146      0.0006
     82  CD1       -7.3570    7.6650   17.1680 C.ar  146  TRP146      0.0946
     83  CD2       -8.6240    9.4250   17.7280 C.ar  146  TRP146      0.0152
     84  NE1       -8.6780    7.3240   16.9400 N.ar  146  TRP146     -0.2442
     85  CE2       -9.4700    8.3930   17.2720 C.ar  146  TRP146      0.0810
     86  CE3       -9.1930   10.6390   18.1280 C.ar  146  TRP146      0.0012
     87  CZ2      -10.8550    8.5370   17.2110 C.ar  146  TRP146      0.0191
     88  CZ3      -10.5690   10.7830   18.0660 C.ar  146  TRP146      0.0001
     89  CH2      -11.3840    9.7390   17.6050 C.ar  146  TRP146      0.0015
     90  N         -4.7980   12.6040   12.8870 N.3   149  ALA149     -0.1231
     91  CA        -4.9120   11.5250   11.9100 C.3   149  ALA149      0.1694
     92  C         -6.2440   11.5880   11.1510 C.2   149  ALA149      0.2592
     93  O         -6.2920   11.4020    9.9310 O.2   149  ALA149     -0.2718
     94  CB        -4.7720   10.1800   12.6040 C.3   149  ALA149      0.0304
     95  N         -7.3260   11.8460   11.8780 N.am  150  GLY150     -0.1957
     96  CA        -8.6370   11.9140   11.2570 C.3   150  GLY150      0.1869
     97  C         -8.8870   13.2570   10.6020 C.2   150  GLY150      0.2309
     98  O         -9.5140   13.3420    9.5420 O.2   150  GLY150     -0.2863
     99  N         -5.6470    8.5760    6.6710 N.3   155  PHE155     -0.1241
    100  CA        -5.8940    7.1800    6.3090 C.3   155  PHE155      0.1605
    101  C         -6.9430    7.0290    5.2070 C.2   155  PHE155      0.2264
    102  O         -7.3070    5.9120    4.8360 O.2   155  PHE155     -0.2867
    103  CB        -6.2670    6.3420    7.5360 C.3   155  PHE155      0.0534
    104  CG        -5.1090    6.0660    8.4480 C.ar  155  PHE155     -0.0203
    105  CD1       -4.0400    5.2940    8.0160 C.ar  155  PHE155     -0.0042
    106  CD2       -5.0840    6.5750    9.7360 C.ar  155  PHE155     -0.0042
    107  CE1       -2.9650    5.0390    8.8510 C.ar  155  PHE155     -0.0003
    108  CE2       -4.0130    6.3190   10.5760 C.ar  155  PHE155     -0.0003
    109  CZ        -2.9530    5.5520   10.1330 C.ar  155  PHE155     -0.0000
    110  N         -9.9730    7.1770    5.0650 N.3   157  MET157     -0.1230
    111  CA       -11.3130    6.8180    5.5130 C.3   157  MET157      0.1702
    112  C        -11.6660    7.5070    6.8280 C.2   157  MET157      0.2593
    113  O        -11.7060    6.8690    7.8810 O.2   157  MET157     -0.2718
    114  CB       -11.4320    5.3010    5.6680 C.3   157  MET157      0.0401
    115  CG       -10.3580    4.7000    6.5550 C.3   157  MET157      0.0596
    116  SD       -10.7630    2.9870    6.8220 S.3   157  MET157     -0.1393
    117  CE       -10.5580    2.3890    5.1060 C.3   157  MET157      0.0692
    118  N        -11.9200    8.8100    6.7620 N.am  158  SER158     -0.1952
    119  CA       -12.2690    9.5760    7.9520 C.3   158  SER158      0.1924
    120  C        -13.6150   10.2790    7.8000 C.2   158  SER158      0.2314
    121  O        -14.0840   10.5250    6.6840 O.2   158  SER158     -0.2863
    122  CB       -11.1810   10.6070    8.2650 C.3   158  SER158      0.2116
    123  OG       -11.1000   11.5820    7.2380 O.3   158  SER158     -0.2180
@<TRIPOS>BOND
     1   102   101    2
     2   110   111    1
     3   117   116    1
     4   101   100    1
     5   111   114    1
     6   111   112    1
     7   114   115    1
     8   100    99    1
     9   100   103    1
    10   115   116    1
    11   121   120    2
    12   118   112   am
    13   118   119    1
    14   112   113    2
    15   123   122    1
    16   103   104    1
    17   120   119    1
    18   119   122    1
    19   105   104   ar
    20   105   107   ar
    21   104   106   ar
    22     5     2    1
    23     5     6    1
    24   107   109   ar
    25     2     1    1
    26     2     3    1
    27    98    97    2
    28   106   108   ar
    29    93    92    2
    30   109   108   ar
    31     3     4    2
    32    97    96    1
    33    92    95   am
    34    92    91    1
    35    96    95    1
    36    21    23   ar
    37    21    20   ar
    38    12    11    1
    39    12    13    1
    40    23    24   ar
    41    19    20    1
    42    19    16    1
    43    11     8    1
    44    91    94    1
    45    91    90    1
    46    20    22   ar
    47     7     8    1
    48    24    22   ar
    49    15    16    1
    50    15     9   am
    51    13    14    1
    52     8     9    1
    53    16    17    1
    54     9    10    2
    55    17    18    2
    56    55    54    1
    57    56    54    1
    58    54    51    1
    59    79    78    2
    60    71    70    2
    61    33    31   ar
    62    33    35   ar
    63    31    30   ar
    64    51    50    1
    65    51    52    1
    66    78    77    1
    67    74    72    1
    68    70    69    1
    69    70    76   am
    70    52    53    2
    71    77    76    1
    72    77    80    1
    73    84    82   ar
    74    84    85   ar
    75    35    34   ar
    76    82    81   ar
    77    87    85   ar
    78    87    89   ar
    79    85    83   ar
    80    30    29    1
    81    30    32   ar
    82    69    72    1
    83    69    68    1
    84    29    26    1
    85    25    26    1
    86    89    88   ar
    87    81    83   ar
    88    81    80    1
    89    72    73    1
    90    83    86   ar
    91    88    86   ar
    92    73    75    1
    93    34    32   ar
    94    26    27    1
    95    27    28    2
    96    60    59    2
    97    44    42   ar
    98    44    45   ar
    99    42    41   ar
   100    59    58    1
   101    64    66   ar
   102    64    62   ar
   103    58    61    1
   104    58    57    1
   105    45    47   ar
   106    45    43   ar
   107    66    67   ar
   108    41    40    1
   109    41    43   ar
   110    47    49   ar
   111    40    37    1
   112    61    62    1
   113    62    63   ar
   114    43    46   ar
   115    36    37    1
   116    67    65   ar
   117    37    38    1
   118    49    48   ar
   119    63    65   ar
   120    46    48   ar
   121    38    39    2
