@<TRIPOS>MOLECULE
tmp/2xtvA02.pdb
 121 119 0 0 0
SMALL
GASTEIGER

@<TRIPOS>ATOM
      1  N         -0.6830    7.0350   30.1280 N.3     6  TRP6       -0.1241
      2  CA        -2.0120    7.1950   29.5380 C.3     6  TRP6        0.1605
      3  C         -2.0280    7.9550   28.2170 C.2     6  TRP6        0.2264
      4  O         -2.7800    7.5950   27.3110 O.2     6  TRP6       -0.2867
      5  CB        -2.9910    7.8490   30.5180 C.3     6  TRP6        0.0550
      6  CG        -3.3630    6.9750   31.6720 C.ar    6  TRP6        0.0003
      7  CD1       -3.0780    7.1950   32.9920 C.ar    6  TRP6        0.0946
      8  CD2       -4.0850    5.7390   31.6180 C.ar    6  TRP6        0.0152
      9  NE1       -3.5760    6.1710   33.7590 N.ar    6  TRP6       -0.2442
     10  CE2       -4.1990    5.2630   32.9400 C.ar    6  TRP6        0.0810
     11  CE3       -4.6490    4.9900   30.5810 C.ar    6  TRP6        0.0012
     12  CZ2       -4.8530    4.0710   33.2510 C.ar    6  TRP6        0.0191
     13  CZ3       -5.2990    3.8010   30.8950 C.ar    6  TRP6        0.0001
     14  CH2       -5.3930    3.3560   32.2150 C.ar    6  TRP6        0.0015
     15  N         -1.1980    5.6910   25.3940 N.3     9  MET9       -0.1245
     16  CA        -2.2950    4.7840   25.0920 C.3     9  MET9        0.1570
     17  C         -3.3870    5.4820   24.3050 C.2     9  MET9        0.2261
     18  O         -3.8970    4.9380   23.3200 O.2     9  MET9       -0.2867
     19  CB        -2.8430    4.1530   26.3760 C.3     9  MET9        0.0387
     20  CG        -1.7780    3.3010   27.1010 C.3     9  MET9        0.0595
     21  SD        -2.2520    2.7900   28.7640 S.3     9  MET9       -0.1393
     22  CE        -3.4080    1.4820   28.3710 C.3     9  MET9        0.0692
     23  N         -4.3840    4.4780   20.3740 N.3    13  VAL13      -0.1245
     24  CA        -5.7500    4.0850   20.0690 C.3    13  VAL13       0.1561
     25  C         -6.3850    5.0040   19.0150 C.2    13  VAL13       0.2260
     26  O         -6.9890    4.5250   18.0510 O.2    13  VAL13      -0.2867
     27  CB        -6.6210    4.0190   21.3440 C.3    13  VAL13       0.0252
     28  CG1       -8.0990    3.8290   20.9800 C.3    13  VAL13       0.0019
     29  CG2       -6.1530    2.8850   22.2080 C.3    13  VAL13       0.0019
     30  N         -4.7510    4.3400   15.6520 N.3    16  PHE16      -0.1227
     31  CA        -5.1620    3.0480   15.1000 C.3    16  PHE16       0.1736
     32  C         -6.5480    3.1420   14.4610 C.2    16  PHE16       0.2595
     33  O         -6.7690    2.6670   13.3420 O.2    16  PHE16      -0.2718
     34  CB        -5.1510    1.9660   16.1910 C.3    16  PHE16       0.0547
     35  CG        -5.4920    0.5890   15.6720 C.ar   16  PHE16      -0.0202
     36  CD1       -4.5900   -0.1020   14.8750 C.ar   16  PHE16      -0.0042
     37  CD2       -6.7030   -0.0010   15.9670 C.ar   16  PHE16      -0.0042
     38  CE1       -4.8940   -1.3870   14.3870 C.ar   16  PHE16      -0.0003
     39  CE2       -7.0140   -1.2760   15.4840 C.ar   16  PHE16      -0.0003
     40  CZ        -6.1060   -1.9640   14.6870 C.ar   16  PHE16      -0.0000
     41  N         -7.4790    3.7620   15.1770 N.am   17  ILE17      -0.1980
     42  CA        -8.8180    3.9820   14.6430 C.3    17  ILE17       0.1595
     43  C         -8.7300    4.7950   13.3550 C.2    17  ILE17       0.2287
     44  O         -9.3610    4.4540   12.3560 O.2    17  ILE17      -0.2864
     45  CB        -9.7330    4.6570   15.6770 C.3    17  ILE17       0.0276
     46  CG1       -9.9130    3.7430   16.8920 C.3    17  ILE17       0.0022
     47  CG2      -11.0930    4.9680   15.0680 C.3    17  ILE17       0.0022
     48  CD1      -10.4910    4.4650   18.1030 C.3    17  ILE17       0.0001
     49  N         -5.0310   -5.7150   14.9450 N.3    56  LEU56      -0.1231
     50  CA        -5.5700   -5.6930   16.2920 C.3    56  LEU56       0.1693
     51  C         -4.6330   -6.3470   17.3110 C.2    56  LEU56       0.2591
     52  O         -4.5060   -5.8510   18.4290 O.2    56  LEU56      -0.2718
     53  CB        -6.9570   -6.3370   16.3410 C.3    56  LEU56       0.0284
     54  CG        -7.7620   -6.0160   17.6020 C.3    56  LEU56       0.0019
     55  CD1       -8.0290   -4.5160   17.7050 C.3    56  LEU56       0.0001
     56  CD2       -9.0720   -6.7930   17.6200 C.3    56  LEU56       0.0001
     57  N         -3.9760   -7.4490   16.9450 N.am   57  MET57      -0.1979
     58  CA        -3.0730   -8.1060   17.8960 C.3    57  MET57       0.1605
     59  C         -1.8330   -7.2430   18.1640 C.2    57  MET57       0.2287
     60  O         -1.3240   -7.1940   19.2860 O.2    57  MET57      -0.2864
     61  CB        -2.6650   -9.5010   17.4140 C.3    57  MET57       0.0413
     62  CG        -3.8180  -10.5190   17.3470 C.3    57  MET57       0.0598
     63  SD        -4.6200  -10.8240   18.9360 S.3    57  MET57      -0.1393
     64  CE        -5.9710   -9.6470   18.9090 C.3    57  MET57       0.0692
     65  N         -1.5360   -3.9090   18.1970 N.3    59  ILE59      -0.1231
     66  CA        -1.7930   -2.8450   19.1690 C.3    59  ILE59       0.1692
     67  C         -2.2400   -3.3850   20.5320 C.2    59  ILE59       0.2592
     68  O         -1.8430   -2.8590   21.5620 O.2    59  ILE59      -0.2718
     69  CB        -2.8090   -1.7900   18.6600 C.3    59  ILE59       0.0266
     70  CG1       -2.9660   -0.6740   19.6990 C.3    59  ILE59       0.0019
     71  CG2       -4.1500   -2.4420   18.3110 C.3    59  ILE59       0.0020
     72  CD1       -3.7010    0.5630   19.1910 C.3    59  ILE59       0.0001
     73  N         -3.0540   -4.4410   20.5490 N.am   60  LEU60      -0.1966
     74  CA        -3.5700   -4.9310   21.8250 C.3    60  LEU60       0.1728
     75  C         -2.4550   -5.3430   22.7710 C.2    60  LEU60       0.2616
     76  O         -2.3840   -4.8760   23.9060 O.2    60  LEU60      -0.2715
     77  CB        -4.5340   -6.1110   21.6170 C.3    60  LEU60       0.0311
     78  CG        -5.0180   -6.7890   22.8980 C.3    60  LEU60       0.0022
     79  CD1       -5.7790   -5.8130   23.7920 C.3    60  LEU60       0.0001
     80  CD2       -5.8740   -8.0170   22.5570 C.3    60  LEU60       0.0001
     81  N         -1.5930   -6.2440   22.3150 N.am   61  PHE61      -0.1974
     82  CA        -0.5270   -6.7050   23.1820 C.3    61  PHE61       0.1639
     83  C          0.5150   -5.6150   23.4690 C.2    61  PHE61       0.2290
     84  O          1.0350   -5.5380   24.5800 O.2    61  PHE61      -0.2864
     85  CB         0.0840   -7.9950   22.6460 C.3    61  PHE61       0.0560
     86  CG        -0.8810   -9.1490   22.6960 C.ar   61  PHE61      -0.0200
     87  CD1       -1.4400   -9.5270   23.9030 C.ar   61  PHE61      -0.0042
     88  CD2       -1.2650   -9.8060   21.5490 C.ar   61  PHE61      -0.0042
     89  CE1       -2.3490  -10.5730   23.9690 C.ar   61  PHE61      -0.0003
     90  CE2       -2.1680  -10.8550   21.6060 C.ar   61  PHE61      -0.0003
     91  CZ        -2.7100  -11.2330   22.8170 C.ar   61  PHE61      -0.0000
     92  N         -0.0770   -2.3980   23.7980 N.3    63  LEU63      -0.1231
     93  CA        -0.6130   -1.5070   24.8260 C.3    63  LEU63       0.1693
     94  C         -0.7290   -2.1710   26.2020 C.2    63  LEU63       0.2591
     95  O         -0.5930   -1.4950   27.2180 O.2    63  LEU63      -0.2718
     96  CB        -1.9220   -0.8490   24.3920 C.3    63  LEU63       0.0284
     97  CG        -1.7840    0.1530   23.2380 C.3    63  LEU63       0.0019
     98  CD1       -3.0900    0.8980   23.0430 C.3    63  LEU63       0.0001
     99  CD2       -0.6310    1.1640   23.4450 C.3    63  LEU63       0.0001
    100  N         -0.9870   -3.4830   26.2390 N.am   64  LEU64      -0.1980
    101  CA        -0.9990   -4.1980   27.5150 C.3    64  LEU64       0.1596
    102  C          0.3890   -4.1590   28.1500 C.2    64  LEU64       0.2287
    103  O          0.5340   -3.8320   29.3360 O.2    64  LEU64      -0.2864
    104  CB        -1.4760   -5.6500   27.3440 C.3    64  LEU64       0.0297
    105  CG        -2.9620   -5.8840   27.0530 C.3    64  LEU64       0.0022
    106  CD1       -3.2120   -7.3470   26.6760 C.3    64  LEU64       0.0001
    107  CD2       -3.8260   -5.4880   28.2450 C.3    64  LEU64       0.0001
    108  N          1.2900   -0.4970   29.1570 N.3    67  TRP67      -0.1241
    109  CA         0.5750   -0.1110   30.3710 C.3    67  TRP67       0.1605
    110  C          1.2170   -0.7050   31.6190 C.2    67  TRP67       0.2264
    111  O          1.4000   -0.0110   32.6220 O.2    67  TRP67      -0.2867
    112  CB        -0.9010   -0.5280   30.2830 C.3    67  TRP67       0.0550
    113  CG        -1.6600   -0.3020   31.5710 C.ar   67  TRP67       0.0003
    114  CD1       -2.1640    0.8830   32.0350 C.ar   67  TRP67       0.0946
    115  CD2       -1.9880   -1.2890   32.5540 C.ar   67  TRP67       0.0152
    116  NE1       -2.7880    0.6910   33.2440 N.ar   67  TRP67      -0.2442
    117  CE2       -2.6930   -0.6340   33.5860 C.ar   67  TRP67       0.0810
    118  CE3       -1.7570   -2.6650   32.6600 C.ar   67  TRP67       0.0012
    119  CZ2       -3.1670   -1.3080   34.7100 C.ar   67  TRP67       0.0191
    120  CZ3       -2.2260   -3.3320   33.7780 C.ar   67  TRP67       0.0001
    121  CH2       -2.9250   -2.6530   34.7880 C.ar   67  TRP67       0.0015
@<TRIPOS>BOND
     1    44    43    2
     2    33    32    2
     3    43    42    1
     4    38    40   ar
     5    38    36   ar
     6    32    31    1
     7    32    41   am
     8    42    41    1
     9    42    45    1
    10    40    39   ar
    11    36    35   ar
    12    49    50    1
    13    47    45    1
    14    31    30    1
    15    31    34    1
    16    39    37   ar
    17    35    37   ar
    18    35    34    1
    19    45    46    1
    20    50    53    1
    21    50    51    1
    22    53    54    1
    23    46    48    1
    24    57    51   am
    25    57    58    1
    26    51    52    2
    27    62    61    1
    28    62    63    1
    29    61    58    1
    30    54    56    1
    31    54    55    1
    32    58    59    1
    33    26    25    2
    34    59    60    2
    35    65    66    1
    36    71    69    1
    37    69    66    1
    38    69    70    1
    39    64    63    1
    40    25    24    1
    41    66    67    1
    42    72    70    1
    43    24    23    1
    44    24    27    1
    45    67    73   am
    46    67    68    2
    47    73    74    1
    48    28    27    1
    49    27    29    1
    50    88    90   ar
    51    88    86   ar
    52    90    91   ar
    53    77    74    1
    54    77    78    1
    55    74    75    1
    56    81    75   am
    57    81    82    1
    58    80    78    1
    59    85    86    1
    60    85    82    1
    61    86    87   ar
    62    75    76    2
    63    91    89   ar
    64    78    79    1
    65    98    97    1
    66    82    83    1
    67    97    99    1
    68    97    96    1
    69    18    17    2
    70    83    84    2
    71    92    93    1
    72    87    89   ar
    73    17    16    1
    74    96    93    1
    75    93    94    1
    76    16    15    1
    77    16    19    1
    78    94   100   am
    79    94    95    2
    80   100   101    1
    81    19    20    1
    82   106   105    1
    83   105   104    1
    84   105   107    1
    85    20    21    1
    86     4     3    2
    87   104   101    1
    88   101   102    1
    89   102   103    2
    90     3     2    1
    91    22    21    1
    92   108   109    1
    93     2     1    1
    94     2     5    1
    95   112   109    1
    96   112   113    1
    97   109   110    1
    98     5     6    1
    99    11    13   ar
   100    11     8   ar
   101    13    14   ar
   102   113   114   ar
   103   113   115   ar
   104     8     6   ar
   105     8    10   ar
   106   110   111    2
   107     6     7   ar
   108   114   116   ar
   109    14    12   ar
   110   115   118   ar
   111   115   117   ar
   112   118   120   ar
   113    10    12   ar
   114    10     9   ar
   115     7     9   ar
   116   116   117   ar
   117   117   119   ar
   118   120   121   ar
   119   119   121   ar
