@<TRIPOS>MOLECULE
tmp/2xtvA03.pdb
 104 97 0 0 0
SMALL
GASTEIGER

@<TRIPOS>ATOM
      1  N         14.5350    7.2220   23.3780 N.3    88  ILE88      -0.1245
      2  CA        15.7860    6.6160   22.9070 C.3    88  ILE88       0.1561
      3  C         15.5270    5.3040   22.1740 C.2    88  ILE88       0.2260
      4  O         16.0280    5.1010   21.0720 O.2    88  ILE88      -0.2867
      5  CB        16.8060    6.4260   24.0560 C.3    88  ILE88       0.0252
      6  CG1       17.2220    7.7920   24.6100 C.3    88  ILE88       0.0019
      7  CG2       18.0160    5.6310   23.5600 C.3    88  ILE88       0.0019
      8  CD1       18.2060    7.7090   25.7930 C.3    88  ILE88       0.0001
      9  N         16.2640    4.6660   18.1880 N.3    92  LEU92      -0.1245
     10  CA        17.2320    3.6470   17.7750 C.3    92  LEU92       0.1561
     11  C         16.5810    2.4780   17.0380 C.2    92  LEU92       0.2260
     12  O         17.0690    2.0440   15.9900 O.2    92  LEU92      -0.2867
     13  CB        18.0340    3.1440   18.9800 C.3    92  LEU92       0.0270
     14  CG        19.0620    2.0670   18.6460 C.3    92  LEU92       0.0019
     15  CD1       20.0030    2.5740   17.5540 C.3    92  LEU92       0.0001
     16  CD2       19.8350    1.6610   19.8900 C.3    92  LEU92       0.0001
     17  N         15.6120    3.7040   13.6630 N.3    95  TYR95      -0.1227
     18  CA        16.7970    3.8530   12.8190 C.3    95  TYR95       0.1736
     19  C         17.2400    2.5160   12.2240 C.2    95  TYR95       0.2595
     20  O         17.5210    2.4070   11.0190 O.2    95  TYR95      -0.2718
     21  CB        17.9450    4.4880   13.6150 C.3    95  TYR95       0.0548
     22  CG        19.2020    4.6360   12.7960 C.ar   95  TYR95      -0.0200
     23  CD1       19.3460    5.6900   11.9060 C.ar   95  TYR95      -0.0009
     24  CD2       20.2310    3.7070   12.8940 C.ar   95  TYR95      -0.0009
     25  CE1       20.4930    5.8250   11.1370 C.ar   95  TYR95       0.0417
     26  CE2       21.3770    3.8350   12.1300 C.ar   95  TYR95       0.0417
     27  CZ        21.5020    4.8960   11.2600 C.ar   95  TYR95       0.1957
     28  OH        22.6420    5.0240   10.4980 O.3    95  TYR95      -0.2866
     29  N         17.2990    1.4970   13.0710 N.am   96  VAL96      -0.1980
     30  CA        17.7050    0.1730   12.6220 C.3    96  VAL96       0.1595
     31  C         16.6860   -0.4030   11.6450 C.2    96  VAL96       0.2287
     32  O         17.0550   -0.9290   10.6020 O.2    96  VAL96      -0.2864
     33  CB        17.9410   -0.7760   13.8110 C.3    96  VAL96       0.0276
     34  CG1       18.2170   -2.1910   13.3260 C.3    96  VAL96       0.0022
     35  CG2       19.0960   -0.2540   14.6520 C.3    96  VAL96       0.0022
     36  N         17.0260    1.2820    8.1880 N.3    99  LYS99      -0.1231
     37  CA        18.2550    0.9170    7.4810 C.3    99  LYS99       0.1693
     38  C         18.0660   -0.4170    6.7750 C.2    99  LYS99       0.2592
     39  O         18.5110   -0.6100    5.6430 O.2    99  LYS99      -0.2718
     40  CB        19.4440    0.8460    8.4470 C.3    99  LYS99       0.0285
     41  CG        20.7730    0.6450    7.6790 C.3    99  LYS99       0.0035
     42  CD        21.9340    0.5950    8.6630 C.3    99  LYS99       0.0206
     43  CE        21.9330   -0.8080    9.2830 C.3    99  LYS99       0.1093
     44  NZ        23.0890   -0.8830   10.2360 N.3    99  LYS99      -0.1314
     45  N         17.3840   -1.3360    7.4430 N.am  100  PHE100     -0.1976
     46  CA        17.1790   -2.6660    6.8940 C.3   100  PHE100      0.1639
     47  C         16.1120   -2.7310    5.8040 C.2   100  PHE100      0.2290
     48  O         16.3230   -3.3820    4.7800 O.2   100  PHE100     -0.2864
     49  CB        16.8630   -3.6690    8.0060 C.3   100  PHE100      0.0560
     50  CG        18.0840   -4.2460    8.6650 C.ar  100  PHE100     -0.0200
     51  CD1       18.6290   -5.4410    8.2180 C.ar  100  PHE100     -0.0042
     52  CD2       18.6860   -3.5980    9.7310 C.ar  100  PHE100     -0.0042
     53  CE1       19.7530   -5.9780    8.8240 C.ar  100  PHE100     -0.0003
     54  CE2       19.8080   -4.1310   10.3430 C.ar  100  PHE100     -0.0003
     55  CZ        20.3420   -5.3220    9.8890 C.ar  100  PHE100     -0.0000
     56  N         16.0250   -7.4570   14.2420 N.3   158  GLY158     -0.1225
     57  CA        17.1860   -6.6350   14.5410 C.3   158  GLY158      0.1811
     58  C         16.8300   -5.3450   15.2600 C.2   158  GLY158      0.2280
     59  O         17.5000   -4.9430   16.2180 O.2   158  GLY158     -0.2866
     60  N         15.9020   -6.1500   18.8370 N.3   161  ILE161     -0.1231
     61  CA        17.0700   -6.4110   19.6710 C.3   161  ILE161      0.1692
     62  C         17.7750   -5.1020   20.0420 C.2   161  ILE161      0.2591
     63  O         18.2470   -4.9360   21.1640 O.2   161  ILE161     -0.2718
     64  CB        18.0460   -7.4010   19.0010 C.3   161  ILE161      0.0266
     65  CG1       17.3720   -8.7640   18.8390 C.3   161  ILE161      0.0019
     66  CG2       19.3210   -7.5450   19.8290 C.3   161  ILE161      0.0020
     67  CD1       16.9660   -9.4130   20.1600 C.3   161  ILE161      0.0001
     68  N         17.8230   -4.1640   19.1060 N.am  162  ALA162     -0.1980
     69  CA        18.3540   -2.8360   19.3950 C.3   162  ALA162      0.1597
     70  C         17.5760   -2.1760   20.5430 C.2   162  ALA162      0.2287
     71  O         18.1700   -1.5860   21.4420 O.2   162  ALA162     -0.2864
     72  CB        18.3200   -1.9710   18.1600 C.3   162  ALA162      0.0319
     73  N         18.4480   -3.8260   23.7890 N.3   165  ALA165     -0.1231
     74  CA        19.7760   -3.4040   24.2140 C.3   165  ALA165      0.1694
     75  C         19.7470   -2.0820   24.9540 C.2   165  ALA165      0.2591
     76  O         20.4480   -1.9170   25.9490 O.2   165  ALA165     -0.2718
     77  CB        20.7330   -3.3390   23.0170 C.3   165  ALA165      0.0304
     78  N         18.9360   -1.1420   24.4730 N.am  166  VAL166     -0.1980
     79  CA        18.7820    0.1520   25.1370 C.3   166  VAL166      0.1595
     80  C         18.2610   -0.0380   26.5600 C.2   166  VAL166      0.2287
     81  O         18.7570    0.5710   27.5030 O.2   166  VAL166     -0.2864
     82  CB        17.8150    1.0770   24.3690 C.3   166  VAL166      0.0276
     83  CG1       17.3960    2.2760   25.2410 C.3   166  VAL166      0.0022
     84  CG2       18.4490    1.5570   23.0660 C.3   166  VAL166      0.0022
     85  N         20.9300   -1.8280   28.8310 N.3   169  ALA169     -0.1231
     86  CA        21.9930   -0.8650   29.1280 C.3   169  ALA169      0.1694
     87  C         21.5770    0.1730   30.1690 C.2   169  ALA169      0.2591
     88  O         22.2890    0.4030   31.1500 O.2   169  ALA169     -0.2718
     89  CB        22.4770   -0.1730   27.8400 C.3   169  ALA169      0.0304
     90  N         20.4350    0.8200   29.9530 N.am  170  MET170     -0.1979
     91  CA        19.9470    1.8100   30.9000 C.3   170  MET170      0.1605
     92  C         19.6940    1.2080   32.2860 C.2   170  MET170      0.2287
     93  O         20.0060    1.8250   33.2950 O.2   170  MET170     -0.2864
     94  CB        18.6940    2.5080   30.3740 C.3   170  MET170      0.0413
     95  CG        18.9440    3.3210   29.1130 C.3   170  MET170      0.0598
     96  SD        17.4620    4.2080   28.5760 S.3   170  MET170     -0.1393
     97  CE        17.2230    5.3090   29.9660 C.3   170  MET170      0.0692
     98  N         23.1410    0.5730   34.0380 N.3   173  VAL173     -0.1245
     99  CA        23.7350    1.8050   34.5490 C.3   173  VAL173      0.1561
    100  C         22.9440    2.3630   35.7310 C.2   173  VAL173      0.2260
    101  O         23.5220    2.7720   36.7400 O.2   173  VAL173     -0.2867
    102  CB        23.8390    2.8770   33.4680 C.3   173  VAL173      0.0252
    103  CG1       24.3150    4.1810   34.0900 C.3   173  VAL173      0.0019
    104  CG2       24.7760    2.4180   32.3840 C.3   173  VAL173      0.0019
@<TRIPOS>BOND
     1    48    47    2
     2    39    38    2
     3    47    46    1
     4    38    45   am
     5    38    37    1
     6    46    45    1
     7    46    49    1
     8    37    36    1
     9    37    40    1
    10    41    40    1
    11    41    42    1
    12    49    50    1
    13    51    50   ar
    14    51    53   ar
    15    42    43    1
    16    50    52   ar
    17    53    55   ar
    18    43    44    1
    19    52    54   ar
    20    55    54   ar
    21    28    27    1
    22    32    31    2
    23    20    19    2
    24    25    27   ar
    25    25    23   ar
    26    27    26   ar
    27    31    30    1
    28    23    22   ar
    29    26    24   ar
    30    19    18    1
    31    19    29   am
    32    30    29    1
    33    30    33    1
    34    22    24   ar
    35    22    21    1
    36    18    21    1
    37    18    17    1
    38    34    33    1
    39    33    35    1
    40    56    57    1
    41    57    58    1
    42    58    59    2
    43    12    11    2
    44    11    10    1
    45    15    14    1
    46    10     9    1
    47    10    13    1
    48    72    69    1
    49    14    13    1
    50    14    16    1
    51    60    61    1
    52    65    64    1
    53    65    67    1
    54    64    61    1
    55    64    66    1
    56    68    69    1
    57    68    62   am
    58    69    70    1
    59    61    62    1
    60    62    63    2
    61    70    71    2
    62     4     3    2
    63     3     2    1
    64     2     1    1
    65     2     5    1
    66    77    74    1
    67    84    82    1
    68     7     5    1
    69    73    74    1
    70     5     6    1
    71    74    75    1
    72    82    79    1
    73    82    83    1
    74    78    75   am
    75    78    79    1
    76     6     8    1
    77    75    76    2
    78    79    80    1
    79    80    81    2
    80    89    86    1
    81    96    95    1
    82    96    97    1
    83    85    86    1
    84    95    94    1
    85    86    87    1
    86    90    87   am
    87    90    91    1
    88    87    88    2
    89    94    91    1
    90    91    92    1
    91    92    93    2
    92   104   102    1
    93   102   103    1
    94   102    99    1
    95    98    99    1
    96    99   100    1
    97   100   101    2
