@<TRIPOS>MOLECULE
tmp/2xtvA01.pdb
 133 133 0 0 0
SMALL
GASTEIGER

@<TRIPOS>ATOM
      1  N         -3.9760   -7.4490   16.9450 N.3    57  MET57      -0.1245
      2  CA        -3.0730   -8.1060   17.8960 C.3    57  MET57       0.1570
      3  C         -1.8330   -7.2430   18.1640 C.2    57  MET57       0.2261
      4  O         -1.3240   -7.1940   19.2860 O.2    57  MET57      -0.2867
      5  CB        -2.6650   -9.5010   17.4140 C.3    57  MET57       0.0387
      6  CG        -3.8180  -10.5190   17.3470 C.3    57  MET57       0.0595
      7  SD        -4.6200  -10.8240   18.9360 S.3    57  MET57      -0.1393
      8  CE        -5.9710   -9.6470   18.9090 C.3    57  MET57       0.0692
      9  N         -1.5930   -6.2440   22.3150 N.3    61  PHE61      -0.1241
     10  CA        -0.5270   -6.7050   23.1820 C.3    61  PHE61       0.1605
     11  C          0.5150   -5.6150   23.4690 C.2    61  PHE61       0.2264
     12  O          1.0350   -5.5380   24.5800 O.2    61  PHE61      -0.2867
     13  CB         0.0840   -7.9950   22.6460 C.3    61  PHE61       0.0534
     14  CG        -0.8810   -9.1490   22.6960 C.ar   61  PHE61      -0.0203
     15  CD1       -1.4400   -9.5270   23.9030 C.ar   61  PHE61      -0.0042
     16  CD2       -1.2650   -9.8060   21.5490 C.ar   61  PHE61      -0.0042
     17  CE1       -2.3490  -10.5730   23.9690 C.ar   61  PHE61      -0.0003
     18  CE2       -2.1680  -10.8550   21.6060 C.ar   61  PHE61      -0.0003
     19  CZ        -2.7100  -11.2330   22.8170 C.ar   61  PHE61      -0.0000
     20  N         -0.9870   -3.4830   26.2390 N.3    64  LEU64      -0.1231
     21  CA        -0.9990   -4.1980   27.5150 C.3    64  LEU64       0.1693
     22  C          0.3890   -4.1590   28.1500 C.2    64  LEU64       0.2592
     23  O          0.5340   -3.8320   29.3360 O.2    64  LEU64      -0.2718
     24  CB        -1.4760   -5.6500   27.3440 C.3    64  LEU64       0.0284
     25  CG        -2.9620   -5.8840   27.0530 C.3    64  LEU64       0.0019
     26  CD1       -3.2120   -7.3470   26.6760 C.3    64  LEU64       0.0001
     27  CD2       -3.8260   -5.4880   28.2450 C.3    64  LEU64       0.0001
     28  N          1.4090   -4.4670   27.3520 N.am   65  TRP65      -0.1976
     29  CA         2.7900   -4.4210   27.8340 C.3    65  TRP65       0.1640
     30  C          3.2170   -2.9980   28.2140 C.2    65  TRP65       0.2290
     31  O          3.8700   -2.7860   29.2390 O.2    65  TRP65      -0.2864
     32  CB         3.7530   -4.9650   26.7830 C.3    65  TRP65       0.0576
     33  CG         3.7600   -6.4730   26.6630 C.ar   65  TRP65       0.0006
     34  CD1        3.5150   -7.2110   25.5350 C.ar   65  TRP65       0.0946
     35  CD2        4.0040   -7.4130   27.7160 C.ar   65  TRP65       0.0152
     36  NE1        3.6150   -8.5550   25.8210 N.ar   65  TRP65      -0.2442
     37  CE2        3.9100   -8.7050   27.1530 C.ar   65  TRP65       0.0810
     38  CE3        4.3110   -7.2870   29.0760 C.ar   65  TRP65       0.0012
     39  CZ2        4.1110   -9.8690   27.9080 C.ar   65  TRP65       0.0191
     40  CZ3        4.5120   -8.4480   29.8280 C.ar   65  TRP65       0.0001
     41  CH2        4.4050   -9.7220   29.2370 C.ar   65  TRP65       0.0015
     42  N          1.2900   -0.4970   29.1570 N.3    67  TRP67      -0.1227
     43  CA         0.5750   -0.1110   30.3710 C.3    67  TRP67       0.1737
     44  C          1.2170   -0.7050   31.6190 C.2    67  TRP67       0.2595
     45  O          1.4000   -0.0110   32.6220 O.2    67  TRP67      -0.2718
     46  CB        -0.9010   -0.5280   30.2830 C.3    67  TRP67       0.0564
     47  CG        -1.6600   -0.3020   31.5710 C.ar   67  TRP67       0.0003
     48  CD1       -2.1640    0.8830   32.0350 C.ar   67  TRP67       0.0946
     49  CD2       -1.9880   -1.2890   32.5540 C.ar   67  TRP67       0.0152
     50  NE1       -2.7880    0.6910   33.2440 N.ar   67  TRP67      -0.2442
     51  CE2       -2.6930   -0.6340   33.5860 C.ar   67  TRP67       0.0810
     52  CE3       -1.7570   -2.6650   32.6600 C.ar   67  TRP67       0.0012
     53  CZ2       -3.1670   -1.3080   34.7100 C.ar   67  TRP67       0.0191
     54  CZ3       -2.2260   -3.3320   33.7780 C.ar   67  TRP67       0.0001
     55  CH2       -2.9250   -2.6530   34.7880 C.ar   67  TRP67       0.0015
     56  N          1.5760   -1.9850   31.5540 N.am   68  TYR68      -0.1976
     57  CA         2.1540   -2.6810   32.7040 C.3    68  TYR68       0.1639
     58  C          3.5830   -2.2360   32.9870 C.2    68  TYR68       0.2290
     59  O          3.9160   -1.8810   34.1180 O.2    68  TYR68      -0.2864
     60  CB         2.1220   -4.1940   32.4720 C.3    68  TYR68       0.0560
     61  CG         2.8580   -5.0120   33.5180 C.ar   68  TYR68      -0.0198
     62  CD1        2.3380   -5.1730   34.7950 C.ar   68  TYR68      -0.0009
     63  CD2        4.0620   -5.6340   33.2180 C.ar   68  TYR68      -0.0009
     64  CE1        3.0010   -5.9230   35.7530 C.ar   68  TYR68       0.0417
     65  CE2        4.7360   -6.3920   34.1680 C.ar   68  TYR68       0.0417
     66  CZ         4.2010   -6.5300   35.4360 C.ar   68  TYR68       0.1957
     67  OH         4.8610   -7.2860   36.3860 O.3    68  TYR68      -0.2866
     68  N          7.2370   -9.6770   37.1580 N.3   134  GLN134     -0.1245
     69  CA         6.7520  -10.8740   37.8540 C.3   134  GLN134      0.1566
     70  C          6.9710  -12.1300   37.0190 C.2   134  GLN134      0.2260
     71  O          6.8130  -12.1010   35.8010 O.2   134  GLN134     -0.2867
     72  CB         5.2650  -10.7300   38.1720 C.3   134  GLN134      0.0367
     73  CG         4.9530   -9.5880   39.1300 C.3   134  GLN134      0.0905
     74  CD         3.4990   -9.1690   39.0970 C.2   134  GLN134      0.2608
     75  OE1        3.0650   -8.4630   38.1850 O.2   134  GLN134     -0.2717
     76  NE2        2.7370   -9.5990   40.0970 N.am  134  GLN134     -0.0878
     77  N          4.5310  -13.0960   34.4540 N.3   137  LEU137     -0.1245
     78  CA         4.5590  -12.2810   33.2500 C.3   137  LEU137      0.1561
     79  C          5.7870  -12.5620   32.3890 C.2   137  LEU137      0.2260
     80  O          5.7600  -12.3510   31.1790 O.2   137  LEU137     -0.2867
     81  CB         4.4230  -10.7960   33.5950 C.3   137  LEU137      0.0270
     82  CG         2.9700  -10.4520   33.9570 C.3   137  LEU137      0.0019
     83  CD1        2.8810   -9.1570   34.7300 C.3   137  LEU137      0.0001
     84  CD2        2.0860  -10.4040   32.7130 C.3   137  LEU137      0.0001
     85  N          4.6350  -14.9920   29.7930 N.3   140  PHE140     -0.1241
     86  CA         3.9710  -14.3770   28.6540 C.3   140  PHE140      0.1605
     87  C          4.8950  -13.4860   27.8270 C.2   140  PHE140      0.2264
     88  O          4.7560  -13.4030   26.6170 O.2   140  PHE140     -0.2867
     89  CB         2.7120  -13.6320   29.0870 C.3   140  PHE140      0.0534
     90  CG         1.5360  -14.5390   29.3000 C.ar  140  PHE140     -0.0203
     91  CD1        1.0560  -15.3160   28.2550 C.ar  140  PHE140     -0.0042
     92  CD2        0.9130  -14.6170   30.5300 C.ar  140  PHE140     -0.0042
     93  CE1       -0.0290  -16.1650   28.4350 C.ar  140  PHE140     -0.0003
     94  CE2       -0.1820  -15.4610   30.7220 C.ar  140  PHE140     -0.0003
     95  CZ        -0.6500  -16.2330   29.6710 C.ar  140  PHE140     -0.0000
     96  N          6.6100  -15.8770   25.5000 N.3   143  ILE143     -0.1231
     97  CA         5.6870  -16.3110   24.4550 C.3   143  ILE143      0.1692
     98  C          5.5500  -15.2220   23.3910 C.2   143  ILE143      0.2592
     99  O          5.6570  -15.4820   22.1910 O.2   143  ILE143     -0.2718
    100  CB         4.3130  -16.6450   25.0320 C.3   143  ILE143      0.0266
    101  CG1        4.4330  -17.8430   25.9820 C.3   143  ILE143      0.0019
    102  CG2        3.3160  -16.9300   23.9040 C.3   143  ILE143      0.0020
    103  CD1        3.1790  -18.1340   26.7630 C.3   143  ILE143      0.0001
    104  N          5.3420  -13.9940   23.8510 N.am  144  TRP144     -0.1976
    105  CA         5.2080  -12.8400   22.9680 C.3   144  TRP144      0.1640
    106  C          6.4820  -12.6030   22.1460 C.2   144  TRP144      0.2290
    107  O          6.4180  -12.3170   20.9470 O.2   144  TRP144     -0.2864
    108  CB         4.8530  -11.6100   23.8180 C.3   144  TRP144      0.0576
    109  CG         4.6600  -10.3130   23.0840 C.ar  144  TRP144      0.0006
    110  CD1        3.5040   -9.8460   22.5070 C.ar  144  TRP144      0.0946
    111  CD2        5.6430   -9.2830   22.9030 C.ar  144  TRP144      0.0152
    112  NE1        3.7250   -8.6000   21.9540 N.ar  144  TRP144     -0.2442
    113  CE2        5.0250   -8.2310   22.1900 C.ar  144  TRP144      0.0810
    114  CE3        6.9870   -9.1550   23.2680 C.ar  144  TRP144      0.0012
    115  CZ2        5.7070   -7.0620   21.8400 C.ar  144  TRP144      0.0191
    116  CZ3        7.6660   -7.9960   22.9160 C.ar  144  TRP144      0.0001
    117  CH2        7.0270   -6.9680   22.2040 C.ar  144  TRP144      0.0015
    118  N          6.8300  -15.6110   19.5370 N.3   147  ALA147     -0.1245
    119  CA         5.8110  -15.4690   18.4990 C.3   147  ALA147      0.1562
    120  C          6.1930  -14.3890   17.4890 C.2   147  ALA147      0.2260
    121  O          6.0830  -14.5810   16.2760 O.2   147  ALA147     -0.2867
    122  CB         4.4640  -15.1510   19.1150 C.3   147  ALA147      0.0290
    123  N          2.6780  -12.6810   14.4320 N.3   153  PHE153     -0.1241
    124  CA         1.9000  -11.4470   14.4750 C.3   153  PHE153      0.1605
    125  C          2.8420  -10.2370   14.5390 C.2   153  PHE153      0.2264
    126  O          4.0730  -10.3840   14.4900 O.2   153  PHE153     -0.2867
    127  CB         0.9280  -11.4280   15.6580 C.3   153  PHE153      0.0534
    128  CG         1.5870  -11.6180   16.9990 C.ar  153  PHE153     -0.0203
    129  CD1        2.5020  -10.6940   17.4820 C.ar  153  PHE153     -0.0042
    130  CD2        1.2740  -12.7150   17.7840 C.ar  153  PHE153     -0.0042
    131  CE1        3.1030  -10.8700   18.7150 C.ar  153  PHE153     -0.0003
    132  CE2        1.8690  -12.8960   19.0220 C.ar  153  PHE153     -0.0003
    133  CZ         2.7840  -11.9710   19.4880 C.ar  153  PHE153     -0.0000
@<TRIPOS>BOND
     1   123   124    1
     2   124   125    1
     3   124   127    1
     4   126   125    2
     5   127   128    1
     6   121   120    2
     7     1     2    1
     8   128   129   ar
     9   128   130   ar
    10     6     5    1
    11     6     7    1
    12     5     2    1
    13   129   131   ar
    14   120   119    1
    15   130   132   ar
    16     2     3    1
    17     3     4    2
    18   119   122    1
    19   119   118    1
    20   131   133   ar
    21     8     7    1
    22   132   133   ar
    23   107   106    2
    24    16    18   ar
    25    16    14   ar
    26    18    19   ar
    27   115   113   ar
    28   115   117   ar
    29   112   113   ar
    30   112   110   ar
    31   106   105    1
    32   113   111   ar
    33    99    98    2
    34   117   116   ar
    35     9    10    1
    36   110   109   ar
    37    13    14    1
    38    13    10    1
    39    14    15   ar
    40    19    17   ar
    41   111   109   ar
    42   111   114   ar
    43   116   114   ar
    44   105   108    1
    45   105   104    1
    46   109   108    1
    47    10    11    1
    48    98   104   am
    49    98    97    1
    50    11    12    2
    51    15    17   ar
    52   102   100    1
    53    97   100    1
    54    97    96    1
    55   100   101    1
    56    34    36   ar
    57    34    33   ar
    58    36    37   ar
    59   101   103    1
    60    20    21    1
    61    88    87    2
    62    33    32    1
    63    33    35   ar
    64    26    25    1
    65    32    29    1
    66    25    24    1
    67    25    27    1
    68    37    35   ar
    69    37    39   ar
    70    24    21    1
    71    28    29    1
    72    28    22   am
    73    21    22    1
    74    35    38   ar
    75    87    86    1
    76    29    30    1
    77    39    41   ar
    78    22    23    2
    79    30    31    2
    80    91    93   ar
    81    91    90   ar
    82    93    95   ar
    83    86    89    1
    84    86    85    1
    85    38    40   ar
    86    89    90    1
    87    42    43    1
    88    41    40   ar
    89    90    92   ar
    90    95    94   ar
    91    46    43    1
    92    46    47    1
    93    43    44    1
    94    92    94   ar
    95    80    79    2
    96    56    44   am
    97    56    57    1
    98    47    48   ar
    99    47    49   ar
   100    44    45    2
   101    48    50   ar
   102    79    78    1
   103    60    57    1
   104    60    61    1
   105    49    52   ar
   106    49    51   ar
   107    52    54   ar
   108    57    58    1
   109    84    82    1
   110    58    59    2
   111    63    61   ar
   112    63    65   ar
   113    50    51   ar
   114    78    81    1
   115    78    77    1
   116    61    62   ar
   117    51    53   ar
   118    81    82    1
   119    54    55   ar
   120    82    83    1
   121    65    66   ar
   122    53    55   ar
   123    62    64   ar
   124    66    64   ar
   125    66    67    1
   126    71    70    2
   127    70    69    1
   128    68    69    1
   129    69    72    1
   130    72    73    1
   131    75    74    2
   132    74    73    1
   133    74    76   am
