@<TRIPOS>MOLECULE
tmp/2xtvA06.pdb
 116 112 0 0 0
SMALL
GASTEIGER

@<TRIPOS>ATOM
      1  N          0.6520   10.1200   33.6720 N.3     3  PRO3       -0.2102
      2  CA         0.2310   10.8460   32.4650 C.3     3  PRO3        0.1504
      3  C          0.9360   10.3900   31.1820 C.2     3  PRO3        0.2575
      4  O          0.2760   10.3110   30.1580 O.2     3  PRO3       -0.2718
      5  CB         0.5810   12.3100   32.7790 C.3     3  PRO3        0.0282
      6  CG         0.8570   12.3540   34.2460 C.3     3  PRO3        0.0208
      7  CD         1.3280   10.9980   34.6420 C.3     3  PRO3        0.0893
      8  N          2.2360   10.1000   31.2290 N.am    4  VAL4       -0.1980
      9  CA         2.9330    9.6400   30.0240 C.3     4  VAL4        0.1595
     10  C          2.3540    8.2910   29.5800 C.2     4  VAL4        0.2287
     11  O          2.0900    8.0660   28.3870 O.2     4  VAL4       -0.2864
     12  CB         4.4530    9.5250   30.2490 C.3     4  VAL4        0.0276
     13  CG1        5.1470    8.9370   29.0070 C.3     4  VAL4        0.0022
     14  CG2        5.0420   10.9000   30.5870 C.3     4  VAL4        0.0022
     15  N          0.1880    8.0590   25.9180 N.3     8  MET8       -0.1245
     16  CA         0.6460    7.1680   24.8530 C.3     8  MET8        0.1570
     17  C         -0.4560    6.2090   24.4220 C.2     8  MET8        0.2261
     18  O         -0.6250    5.9360   23.2350 O.2     8  MET8       -0.2867
     19  CB         1.8660    6.3530   25.3080 C.3     8  MET8        0.0387
     20  CG         2.3200    5.3030   24.3020 C.3     8  MET8        0.0595
     21  SD         3.0510    5.9490   22.7810 S.3     8  MET8       -0.1393
     22  CE         4.7040    6.3330   23.3460 C.3     8  MET8        0.0692
     23  N         11.2320   16.6490   12.7950 N.3    43  PHE43      -0.1227
     24  CA        11.9730   15.8010   13.7320 C.3    43  PHE43       0.1736
     25  C         11.0890   14.9180   14.6100 C.2    43  PHE43       0.2595
     26  O         11.5640   13.9470   15.1830 O.2    43  PHE43      -0.2718
     27  CB        12.8740   16.6670   14.6180 C.3    43  PHE43       0.0547
     28  CG        12.1230   17.6980   15.4020 C.ar   43  PHE43      -0.0202
     29  CD1       11.5680   17.3790   16.6310 C.ar   43  PHE43      -0.0042
     30  CD2       11.9560   18.9820   14.9040 C.ar   43  PHE43      -0.0042
     31  CE1       10.8600   18.3220   17.3500 C.ar   43  PHE43      -0.0003
     32  CE2       11.2540   19.9270   15.6170 C.ar   43  PHE43      -0.0003
     33  CZ        10.7030   19.5970   16.8410 C.ar   43  PHE43      -0.0000
     34  N          9.8150   15.2730   14.7370 N.am   44  TRP44      -0.1976
     35  CA         8.8740   14.4000   15.4400 C.3    44  TRP44       0.1640
     36  C          8.7470   13.0270   14.7740 C.2    44  TRP44       0.2290
     37  O          8.4320   12.0440   15.4430 O.2    44  TRP44      -0.2864
     38  CB         7.4970   15.0600   15.5770 C.3    44  TRP44       0.0576
     39  CG         6.9500   15.5820   14.2830 C.ar   44  TRP44       0.0006
     40  CD1        6.1180   14.9360   13.4130 C.ar   44  TRP44       0.0946
     41  CD2        7.2030   16.8720   13.7150 C.ar   44  TRP44       0.0152
     42  NE1        5.8540   15.7410   12.3240 N.ar   44  TRP44      -0.2442
     43  CE2        6.5080   16.9370   12.4920 C.ar   44  TRP44       0.0810
     44  CE3        7.9690   17.9750   14.1210 C.ar   44  TRP44       0.0012
     45  CZ2        6.5390   18.0690   11.6780 C.ar   44  TRP44       0.0191
     46  CZ3        8.0030   19.0940   13.3100 C.ar   44  TRP44       0.0001
     47  CH2        7.2980   19.1310   12.1000 C.ar   44  TRP44       0.0015
     48  N         10.1830    9.6960   15.9630 N.3    47  PHE47      -0.1227
     49  CA         9.5050    9.0860   17.0950 C.3    47  PHE47       0.1736
     50  C          8.0570    8.6830   16.7990 C.2    47  PHE47       0.2596
     51  O          7.6040    7.6380   17.2760 O.2    47  PHE47      -0.2718
     52  CB         9.5500   10.0300   18.2900 C.3    47  PHE47       0.0547
     53  CG        10.9170   10.5820   18.5640 C.ar   47  PHE47      -0.0202
     54  CD1       11.8450    9.8440   19.2880 C.ar   47  PHE47      -0.0042
     55  CD2       11.2780   11.8370   18.0900 C.ar   47  PHE47      -0.0042
     56  CE1       13.1020   10.3490   19.5420 C.ar   47  PHE47      -0.0003
     57  CE2       12.5360   12.3520   18.3470 C.ar   47  PHE47      -0.0003
     58  CZ        13.4490   11.6070   19.0790 C.ar   47  PHE47      -0.0000
     59  N          7.3360    9.4870   16.0140 N.am   48  THR48      -0.1953
     60  CA         5.9050    9.2380   15.8030 C.3    48  THR48       0.1897
     61  C          5.5760    7.9420   15.0560 C.2    48  THR48       0.2313
     62  O          4.4340    7.4950   15.0960 O.2    48  THR48      -0.2863
     63  CB         5.1720   10.4020   15.0930 C.3    48  THR48       0.1794
     64  OG1        5.8090   10.6780   13.8350 O.3    48  THR48      -0.2208
     65  CG2        5.1810   11.6670   15.9700 C.3    48  THR48       0.0378
     66  N          6.2570    5.2360   16.0730 N.3    50  ALA50      -0.1231
     67  CA         5.8820    4.3310   17.1540 C.3    50  ALA50       0.1694
     68  C          4.3840    4.3000   17.4460 C.2    50  ALA50       0.2591
     69  O          3.9140    3.3650   18.0940 O.2    50  ALA50      -0.2718
     70  CB         6.6650    4.6620   18.4280 C.3    50  ALA50       0.0304
     71  N          3.6450    5.3080   16.9730 N.am   51  LEU51      -0.1980
     72  CA         2.2220    5.4430   17.2880 C.3    51  LEU51       0.1596
     73  C          1.2940    4.6250   16.3720 C.2    51  LEU51       0.2287
     74  O          0.1030    4.5060   16.6510 O.2    51  LEU51      -0.2864
     75  CB         1.7990    6.9180   17.2460 C.3    51  LEU51       0.0297
     76  CG         2.5290    7.9040   18.1590 C.3    51  LEU51       0.0022
     77  CD1        2.0670    9.3320   17.8640 C.3    51  LEU51       0.0001
     78  CD2        2.2640    7.5260   19.6090 C.3    51  LEU51       0.0001
     79  N          7.9420   10.1650   35.4890 N.3    79  SER79      -0.1202
     80  CA         7.6080   10.3710   34.0800 C.3    79  SER79       0.2020
     81  C          8.8470   10.5520   33.2140 C.2    79  SER79       0.2619
     82  O          8.8980   10.0750   32.0710 O.2    79  SER79      -0.2717
     83  CB         6.6970   11.5950   33.9270 C.3    79  SER79       0.2103
     84  OG         5.4680   11.3850   34.5890 O.3    79  SER79      -0.2182
     85  N          9.8350   11.2590   33.7560 N.am   80  GLY80      -0.1956
     86  CA        11.0540   11.5450   33.0240 C.3    80  GLY80       0.1869
     87  C         11.7910   10.2870   32.5920 C.2    80  GLY80       0.2309
     88  O         12.2300   10.1930   31.4460 O.2    80  GLY80      -0.2863
     89  N          9.8450    8.7430   29.7090 N.3    83  ILE83      -0.1245
     90  CA        10.0550    9.5120   28.4800 C.3    83  ILE83       0.1561
     91  C         11.4050    9.2170   27.8230 C.2    83  ILE83       0.2260
     92  O         11.4770    9.0030   26.6110 O.2    83  ILE83      -0.2867
     93  CB         9.9130   11.0190   28.7400 C.3    83  ILE83       0.0252
     94  CG1        8.4530   11.3490   29.0380 C.3    83  ILE83       0.0019
     95  CG2       10.4500   11.8300   27.5400 C.3    83  ILE83       0.0019
     96  CD1        8.2600   12.7140   29.6850 C.3    83  ILE83       0.0001
     97  N         11.5600    5.7000   26.3480 N.3    86  THR86      -0.1203
     98  CA        10.6850    5.6520   25.1760 C.3    86  THR86       0.1994
     99  C         11.2960    6.3510   23.9600 C.2    86  THR86       0.2617
    100  O         11.2960    5.8060   22.8510 O.2    86  THR86      -0.2717
    101  CB         9.3020    6.2640   25.5120 C.3    86  THR86       0.1784
    102  OG1        8.7050    5.5090   26.5700 O.3    86  THR86      -0.2211
    103  CG2        8.3670    6.2270   24.3030 C.3    86  THR86       0.0376
    104  N         11.8220    7.5570   24.1650 N.am   87  LEU87      -0.1979
    105  CA        12.3940    8.3230   23.0620 C.3    87  LEU87       0.1596
    106  C         13.6360    7.6490   22.5000 C.2    87  LEU87       0.2287
    107  O         13.7850    7.5150   21.2800 O.2    87  LEU87      -0.2864
    108  CB        12.7210    9.7590   23.5090 C.3    87  LEU87       0.0297
    109  CG        11.5060   10.6530   23.7720 C.3    87  LEU87       0.0022
    110  CD1       11.9530   12.0380   24.1790 C.3    87  LEU87       0.0001
    111  CD2       10.5840   10.7280   22.5570 C.3    87  LEU87       0.0001
    112  N         12.7030    4.2920   20.7630 N.3    90  ALA90      -0.1245
    113  CA        11.9690    4.5410   19.5210 C.3    90  ALA90       0.1562
    114  C         12.8940    5.0430   18.4100 C.2    90  ALA90       0.2260
    115  O         12.7810    4.6460   17.2470 O.2    90  ALA90      -0.2867
    116  CB        10.8500    5.5520   19.7590 C.3    90  ALA90       0.0290
@<TRIPOS>BOND
     1    45    47   ar
     2    45    43   ar
     3    47    46   ar
     4    42    43   ar
     5    42    40   ar
     6    43    41   ar
     7    23    24    1
     8    46    44   ar
     9    40    39   ar
    10    41    44   ar
    11    41    39   ar
    12    24    25    1
    13    24    27    1
    14    64    63    1
    15    39    38    1
    16    25    34   am
    17    25    26    2
    18    27    28    1
    19    34    35    1
    20    36    35    1
    21    36    37    2
    22    30    28   ar
    23    30    32   ar
    24    61    62    2
    25    61    60    1
    26    63    60    1
    27    63    65    1
    28    28    29   ar
    29    35    38    1
    30    32    33   ar
    31    60    59    1
    32    48    49    1
    33    59    50   am
    34    66    67    1
    35    73    74    2
    36    73    72    1
    37    29    31   ar
    38    50    49    1
    39    50    51    2
    40    33    31   ar
    41    71    72    1
    42    71    68   am
    43    49    52    1
    44    67    68    1
    45    67    70    1
    46    75    72    1
    47    75    76    1
    48   115   114    2
    49    68    69    2
    50    77    76    1
    51    55    57   ar
    52    55    53   ar
    53    76    78    1
    54    52    53    1
    55    57    58   ar
    56   114   113    1
    57    53    54   ar
    58    58    56   ar
    59    54    56   ar
    60   113   116    1
    61   113   112    1
    62   107   106    2
    63   106   105    1
    64   111   109    1
    65    21    22    1
    66    21    20    1
    67   100    99    2
    68   105   108    1
    69   105   104    1
    70    18    17    2
    71   108   109    1
    72   109   110    1
    73    99   104   am
    74    99    98    1
    75    20    19    1
    76   103   101    1
    77    17    16    1
    78    16    19    1
    79    16    15    1
    80    98   101    1
    81    98    97    1
    82   101   102    1
    83    92    91    2
    84    95    93    1
    85    91    90    1
    86    11    10    2
    87    90    93    1
    88    90    89    1
    89    93    94    1
    90    13    12    1
    91    94    96    1
    92    10     9    1
    93     9    12    1
    94     9     8    1
    95     4     3    2
    96    12    14    1
    97     3     8   am
    98     3     2    1
    99    88    87    2
   100    82    81    2
   101     2     5    1
   102     2     1    1
   103    87    86    1
   104     5     6    1
   105    86    85    1
   106    81    85   am
   107    81    80    1
   108     1     7    1
   109    83    80    1
   110    83    84    1
   111    80    79    1
   112     6     7    1
