@<TRIPOS>MOLECULE
tmp/2xtzA00.pdb
 199 193 0 0 0
SMALL
GASTEIGER

@<TRIPOS>ATOM
      1  N        -12.5910  -22.2120   17.9380 N.3    16  GLY16      -0.1210
      2  CA       -11.7040  -23.1280   17.2050 C.3    16  GLY16       0.1956
      3  C        -11.5330  -24.4540   17.9450 C.2    16  GLY16       0.2612
      4  O        -11.3570  -24.4690   19.1780 O.2    16  GLY16      -0.2717
      5  N        -11.6100  -25.5500   17.1930 N.am   17  GLU17      -0.1965
      6  CA       -11.2970  -26.9010   17.6750 C.3    17  GLU17       0.1733
      7  C        -12.3570  -27.4820   18.6060 C.2    17  GLU17       0.2617
      8  O        -12.0900  -28.4360   19.3370 O.2    17  GLU17      -0.2715
      9  CB        -9.9080  -26.9660   18.3470 C.3    17  GLU17       0.0429
     10  CG        -8.7140  -26.8430   17.3840 C.3    17  GLU17       0.1163
     11  CD        -7.3770  -26.6040   18.1000 C.2    17  GLU17       0.3649
     12  OE1       -6.6200  -25.7150   17.6780 O.co2  17  GLU17      -0.2457
     13  OE2       -7.0690  -27.2810   19.0980 O.co2  17  GLU17      -0.2457
     14  N        -13.5590  -26.9300   18.5820 N.am   18  SER18      -0.1936
     15  CA       -14.5570  -27.3610   19.5460 C.3    18  SER18       0.2055
     16  C        -15.3030  -28.6060   19.1190 C.2    18  SER18       0.2644
     17  O        -15.9440  -29.2240   19.9490 O.2    18  SER18      -0.2714
     18  CB       -15.5370  -26.2430   19.8600 C.3    18  SER18       0.2130
     19  OG       -16.1370  -25.8080   18.6630 O.3    18  SER18      -0.2179
     20  N        -15.2010  -28.9910   17.8460 N.am   19  GLY19      -0.1939
     21  CA       -15.8260  -30.2250   17.3730 C.3    19  GLY19       0.2014
     22  C        -16.8640  -30.0600   16.2740 C.2    19  GLY19       0.2639
     23  O        -17.5050  -31.0360   15.8890 O.2    19  GLY19      -0.2714
     24  N        -17.0160  -28.8440   15.7520 N.am   20  LYS20      -0.1963
     25  CA       -18.0470  -28.5370   14.7450 C.3    20  LYS20       0.1728
     26  C        -17.9420  -29.4070   13.4840 C.2    20  LYS20       0.2617
     27  O        -18.9110  -30.0460   13.0800 O.2    20  LYS20      -0.2715
     28  CB       -18.0180  -27.0440   14.3740 C.3    20  LYS20       0.0311
     29  CG       -18.3630  -26.1020   15.5460 C.3    20  LYS20       0.0038
     30  CD       -18.2420  -24.6290   15.1860 C.3    20  LYS20       0.0206
     31  CE       -16.8570  -24.2500   14.6240 C.3    20  LYS20       0.1093
     32  NZ       -15.7780  -24.1440   15.6380 N.3    20  LYS20      -0.1314
     33  N        -16.7710  -29.4390   12.8660 N.am   21  SER21      -0.1936
     34  CA       -16.6030  -30.2270   11.6480 C.3    21  SER21       0.2055
     35  C        -16.7880  -31.7170   11.9210 C.2    21  SER21       0.2643
     36  O        -17.2490  -32.4530   11.0600 O.2    21  SER21      -0.2714
     37  CB       -15.2360  -29.9770   11.0230 C.3    21  SER21       0.2130
     38  OG       -15.1280  -28.6270   10.6020 O.3    21  SER21      -0.2179
     39  N        -16.4520  -32.1410   13.1350 N.am   22  THR22      -0.1950
     40  CA       -16.5190  -33.5350   13.5240 C.3    22  THR22       0.1897
     41  C        -17.9810  -33.9230   13.6000 C.2    22  THR22       0.2313
     42  O        -18.3820  -34.9650   13.0530 O.2    22  THR22      -0.2863
     43  CB       -15.7540  -33.7650   14.8380 C.3    22  THR22       0.1794
     44  OG1      -14.4090  -33.3070   14.6570 O.3    22  THR22      -0.2208
     45  CG2      -15.6980  -35.2200   15.1960 C.3    22  THR22       0.0378
     46  N         -4.9260  -33.2960   21.2690 N.3   130  ASP130     -0.1239
     47  CA        -5.4530  -34.4230   22.0450 C.3   130  ASP130      0.1674
     48  C         -5.2800  -35.8040   21.3860 C.2   130  ASP130      0.2266
     49  O         -5.1130  -36.8180   22.0740 O.2   130  ASP130     -0.2867
     50  CB        -6.9310  -34.1680   22.3800 C.3   130  ASP130      0.1410
     51  CG        -7.1360  -32.8920   23.2140 C.2   130  ASP130      0.3668
     52  OD1       -6.2820  -32.6010   24.0720 O.co2 130  ASP130     -0.2456
     53  OD2       -8.1430  -32.1730   23.0080 O.co2 130  ASP130     -0.2456
     54  N        -12.4370  -39.0210   11.3410 N.3   154  LEU154     -0.1231
     55  CA       -13.1130  -38.1780   12.3130 C.3   154  LEU154      0.1693
     56  C        -12.0730  -37.4720   13.1740 C.2   154  LEU154      0.2592
     57  O        -12.2480  -36.3010   13.5270 O.2   154  LEU154     -0.2718
     58  CB       -14.0750  -39.0040   13.1690 C.3   154  LEU154      0.0284
     59  CG       -15.4230  -39.3540   12.5300 C.3   154  LEU154      0.0019
     60  CD1      -16.0270  -40.5290   13.2520 C.3   154  LEU154      0.0001
     61  CD2      -16.3890  -38.1780   12.5500 C.3   154  LEU154      0.0001
     62  N        -10.9970  -38.1980   13.4940 N.am  155  TYR155     -0.1962
     63  CA        -9.8070  -37.6080   14.0780 C.3   155  TYR155      0.1771
     64  C         -9.1740  -36.5490   13.1830 C.2   155  TYR155      0.2619
     65  O         -8.8140  -35.4800   13.6840 O.2   155  TYR155     -0.2715
     66  CB        -8.7830  -38.6700   14.4200 C.3   155  TYR155      0.0574
     67  CG        -8.8950  -39.1550   15.8410 C.ar  155  TYR155     -0.0198
     68  CD1       -8.5060  -38.3380   16.9010 C.ar  155  TYR155     -0.0009
     69  CD2       -9.3810  -40.4180   16.1330 C.ar  155  TYR155     -0.0009
     70  CE1       -8.6000  -38.7610   18.2160 C.ar  155  TYR155      0.0417
     71  CE2       -9.4700  -40.8550   17.4590 C.ar  155  TYR155      0.0417
     72  CZ        -9.0800  -40.0090   18.4860 C.ar  155  TYR155      0.1957
     73  OH        -9.1550  -40.4050   19.7990 O.3   155  TYR155     -0.2866
     74  N         -9.0360  -36.8400   11.8830 N.am  156  ALA156     -0.1963
     75  CA        -8.3510  -35.9560   10.9370 C.3   156  ALA156      0.1728
     76  C         -8.7150  -34.4880   11.1360 C.2   156  ALA156      0.2616
     77  O         -9.8990  -34.1100   11.1540 O.2   156  ALA156     -0.2715
     78  CB        -8.6160  -36.3870    9.4890 C.3   156  ALA156      0.0334
     79  N         -7.6950  -33.6590   11.2780 N.am  157  ARG157     -0.1963
     80  CA        -7.8910  -32.2970   11.7080 C.3   157  ARG157      0.1729
     81  C         -7.4540  -31.2590   10.6900 C.2   157  ARG157      0.2616
     82  O         -6.2650  -31.1320   10.3940 O.2   157  ARG157     -0.2715
     83  CB        -7.2020  -32.0330   13.0620 C.3   157  ARG157      0.0348
     84  CG        -7.6450  -30.6910   13.6750 C.3   157  ARG157      0.0492
     85  CD        -6.9500  -30.4460   14.9810 C.3   157  ARG157      0.2205
     86  NE        -5.5780  -29.9660   14.7980 N.pl3 157  ARG157     -0.0865
     87  CZ        -4.7420  -29.6960   15.7930 C.cat 157  ARG157      0.5346
     88  NH1       -5.1180  -29.8730   17.0590 N.pl3 157  ARG157      0.1354
     89  NH2       -3.5240  -29.2520   15.5220 N.pl3 157  ARG157      0.1354
     90  N         -8.4410  -30.5250   10.1780 N.am  158  VAL158     -0.1963
     91  CA        -8.2410  -29.3610    9.3230 C.3   158  VAL158      0.1727
     92  C         -8.9600  -28.1840    9.9770 C.2   158  VAL158      0.2616
     93  O        -10.1230  -28.3230   10.3710 O.2   158  VAL158     -0.2715
     94  CB        -8.8470  -29.5730    7.8920 C.3   158  VAL158      0.0290
     95  CG1       -8.5560  -28.3530    6.9900 C.3   158  VAL158      0.0023
     96  CG2       -8.2520  -30.7960    7.2250 C.3   158  VAL158      0.0023
     97  N         -8.3040  -27.0360   10.1040 N.am  159  ARG159     -0.1963
     98  CA        -9.0220  -25.8140   10.4950 C.3   159  ARG159      0.1729
     99  C         -9.9310  -25.3370    9.3620 C.2   159  ARG159      0.2616
    100  O         -9.4820  -25.1630    8.2400 O.2   159  ARG159     -0.2715
    101  CB        -8.0540  -24.7020   10.8540 C.3   159  ARG159      0.0348
    102  CG        -7.2030  -24.9920   12.0690 C.3   159  ARG159      0.0492
    103  CD        -6.3570  -23.8060   12.3400 C.3   159  ARG159      0.2205
    104  NE        -5.3430  -23.5670   11.3030 N.pl3 159  ARG159     -0.0865
    105  CZ        -4.7340  -22.3950   11.1250 C.cat 159  ARG159      0.5346
    106  NH1       -5.0630  -21.3530   11.8880 N.pl3 159  ARG159      0.1354
    107  NH2       -3.8100  -22.2570   10.1740 N.pl3 159  ARG159      0.1354
    108  N        -11.2130  -25.1420    9.6500 N.am  160  THR160     -0.1951
    109  CA       -12.1720  -24.7790    8.5980 C.3   160  THR160      0.1897
    110  C        -12.0180  -23.3230    8.2300 C.2   160  THR160      0.2313
    111  O        -11.9900  -22.4590    9.1050 O.2   160  THR160     -0.2863
    112  CB       -13.6200  -25.0880    9.0470 C.3   160  THR160      0.1794
    113  OG1      -13.6760  -26.4280    9.5570 O.3   160  THR160     -0.2208
    114  CG2      -14.6310  -24.9180    7.8750 C.3   160  THR160      0.0378
    115  N        -21.5540  -25.4420    8.3990 N.3   179  ASP179     -0.1225
    116  CA       -20.2970  -25.5270    9.1430 C.3   179  ASP179      0.1805
    117  C        -19.4390  -24.3390    8.7320 C.2   179  ASP179      0.2598
    118  O        -19.3790  -23.9940    7.5520 O.2   179  ASP179     -0.2718
    119  CB       -19.5510  -26.8270    8.8120 C.3   179  ASP179      0.1424
    120  CG       -18.3450  -27.0830    9.7370 C.2   179  ASP179      0.3668
    121  OD1      -18.3290  -26.5850   10.8950 O.co2 179  ASP179     -0.2456
    122  OD2      -17.4080  -27.8070    9.3010 O.co2 179  ASP179     -0.2456
    123  N        -18.7700  -23.7410    9.7220 N.am  180  VAL180     -0.1966
    124  CA       -17.9700  -22.5380    9.5480 C.3   180  VAL180      0.1727
    125  C        -16.7940  -22.6290   10.5470 C.2   180  VAL180      0.2617
    126  O        -16.8880  -23.3450   11.5320 O.2   180  VAL180     -0.2715
    127  CB       -18.8680  -21.2900    9.7910 C.3   180  VAL180      0.0290
    128  CG1      -19.4230  -21.2770   11.2230 C.3   180  VAL180      0.0023
    129  CG2      -18.1270  -19.9830    9.4810 C.3   180  VAL180      0.0023
    130  N        -15.6780  -21.9490   10.2770 N.am  181  GLY181     -0.1940
    131  CA       -14.5430  -21.9130   11.2120 C.3   181  GLY181      0.2014
    132  C        -14.8520  -21.1300   12.4860 C.2   181  GLY181      0.2639
    133  O        -15.6390  -20.1720   12.4680 O.2   181  GLY181     -0.2714
    134  N        -14.2310  -21.5240   13.5940 N.am  182  GLY182     -0.1939
    135  CA       -14.4510  -20.8410   14.8760 C.3   182  GLY182      0.2014
    136  C        -13.2380  -20.1240   15.4640 C.2   182  GLY182      0.2638
    137  O        -13.3350  -19.4420   16.4940 O.2   182  GLY182     -0.2714
    138  N        -12.0880  -20.2680   14.8340 N.am  183  GLN183     -0.1977
    139  CA       -10.9640  -19.4380   15.2210 C.3   183  GLN183      0.1601
    140  C        -11.3290  -17.9950   14.9670 C.2   183  GLN183      0.2287
    141  O        -12.1280  -17.7040   14.0660 O.2   183  GLN183     -0.2864
    142  CB        -9.6660  -19.8490   14.5110 C.3   183  GLN183      0.0394
    143  CG        -9.1180  -21.1610   15.0600 C.3   183  GLN183      0.0908
    144  CD        -7.7510  -21.5200   14.5500 C.2   183  GLN183      0.2608
    145  OE1       -7.2460  -20.9210   13.5940 O.2   183  GLN183     -0.2717
    146  NE2       -7.1270  -22.5050   15.1930 N.am  183  GLN183     -0.0878
    147  N        -19.1290  -30.7640   24.5780 N.3   248  ASN248     -0.1225
    148  CA       -18.4160  -31.7600   23.7660 C.3   248  ASN248      0.1785
    149  C        -17.0590  -32.1820   24.3420 C.2   248  ASN248      0.2597
    150  O        -16.5120  -31.5200   25.2370 O.2   248  ASN248     -0.2718
    151  CB       -18.2380  -31.2210   22.3340 C.3   248  ASN248      0.1169
    152  CG       -17.7470  -32.2830   21.3640 C.2   248  ASN248      0.2627
    153  OD1      -18.3090  -33.3930   21.2960 O.2   248  ASN248     -0.2716
    154  ND2      -16.6810  -31.9640   20.6220 N.am  248  ASN248     -0.0877
    155  N        -16.5190  -33.2870   23.8130 N.am  249  LYS249     -0.1980
    156  CA       -15.2650  -33.8950   24.2990 C.3   249  LYS249      0.1596
    157  C        -15.4110  -34.4100   25.7210 C.2   249  LYS249      0.2287
    158  O        -14.4930  -34.3350   26.5410 O.2   249  LYS249     -0.2864
    159  CB       -14.0750  -32.9440   24.1470 C.3   249  LYS249      0.0298
    160  CG       -13.9100  -32.4280   22.7160 C.3   249  LYS249      0.0038
    161  CD       -12.5320  -31.8190   22.3880 C.3   249  LYS249      0.0206
    162  CE       -12.5920  -31.1640   21.0150 C.3   249  LYS249      0.1093
    163  NZ       -11.2880  -30.6990   20.4890 N.3   249  LYS249     -0.1314
    164  N        -15.5260  -37.5360   26.5800 N.3   251  ASP251     -0.1225
    165  CA       -14.5060  -38.6060   26.6840 C.3   251  ASP251      0.1805
    166  C        -13.1500  -38.0860   27.2020 C.2   251  ASP251      0.2597
    167  O        -12.5200  -38.7270   28.0230 O.2   251  ASP251     -0.2718
    168  CB       -14.3180  -39.3340   25.3360 C.3   251  ASP251      0.1424
    169  CG       -13.7470  -38.4060   24.2310 C.2   251  ASP251      0.3668
    170  OD1      -14.1330  -37.2370   24.1210 O.co2 251  ASP251     -0.2456
    171  OD2      -12.9050  -38.8500   23.4470 O.co2 251  ASP251     -0.2456
    172  N        -12.7030  -36.9230   26.7410 N.am  252  ILE252     -0.1980
    173  CA       -11.4480  -36.3480   27.2560 C.3   252  ILE252      0.1595
    174  C        -11.6130  -35.7710   28.6760 C.2   252  ILE252      0.2287
    175  O        -10.7770  -36.0130   29.5620 O.2   252  ILE252     -0.2864
    176  CB       -10.8730  -35.2810   26.3230 C.3   252  ILE252      0.0276
    177  CG1      -10.5890  -35.8870   24.9350 C.3   252  ILE252      0.0022
    178  CG2       -9.5680  -34.7030   26.9190 C.3   252  ILE252      0.0022
    179  CD1      -10.2180  -34.8150   23.8710 C.3   252  ILE252      0.0001
    180  N        -19.6830  -36.6650   22.7640 N.3   315  THR315     -0.1203
    181  CA       -18.3740  -37.0210   22.2660 C.3   315  THR315      0.1994
    182  C        -18.6420  -37.1340   20.7780 C.2   315  THR315      0.2618
    183  O        -19.3520  -38.0410   20.3300 O.2   315  THR315     -0.2717
    184  CB       -17.8850  -38.3330   22.8680 C.3   315  THR315      0.1784
    185  OG1      -17.6020  -38.1190   24.2540 O.3   315  THR315     -0.2211
    186  CG2      -16.5990  -38.8390   22.1590 C.3   315  THR315      0.0376
    187  N        -18.1390  -36.1540   20.0310 N.am  316  ALA316     -0.1965
    188  CA       -18.3770  -36.0430   18.5870 C.3   316  ALA316      0.1728
    189  C        -17.8360  -37.2270   17.7740 C.2   316  ALA316      0.2616
    190  O        -18.3720  -37.5470   16.7240 O.2   316  ALA316     -0.2715
    191  CB       -17.8260  -34.7010   18.0530 C.3   316  ALA316      0.0334
    192  N        -16.7950  -37.8840   18.2690 N.am  317  LEU317     -0.1977
    193  CA       -16.2690  -39.0930   17.6350 C.3   317  LEU317      0.1596
    194  C        -17.1970  -40.3170   17.7800 C.2   317  LEU317      0.2287
    195  O        -17.0270  -41.3090   17.0740 O.2   317  LEU317     -0.2864
    196  CB       -14.8850  -39.4620   18.2080 C.3   317  LEU317      0.0297
    197  CG       -13.7480  -38.4470   18.3850 C.3   317  LEU317      0.0022
    198  CD1      -12.5070  -39.1520   18.9320 C.3   317  LEU317      0.0001
    199  CD2      -13.4410  -37.7900   17.0650 C.3   317  LEU317      0.0001
@<TRIPOS>BOND
     1    95    94    1
     2    96    94    1
     3   118   117    2
     4   114   112    1
     5    94    91    1
     6   110   109    1
     7   110   111    2
     8   100    99    2
     9   115   116    1
    10   109   112    1
    11   109   108    1
    12   117   116    1
    13   117   123   am
    14   119   116    1
    15   119   120    1
    16   112   113    1
    17   122   120   ar
    18    91    92    1
    19    91    90    1
    20    99   108   am
    21    99    98    1
    22   129   127    1
    23    78    75    1
    24   124   123    1
    25   124   127    1
    26   124   125    1
    27   120   121   ar
    28   127   128    1
    29    92    97   am
    30    92    93    2
    31    97    98    1
    32   107   105    1
    33    90    81   am
    34   130   125   am
    35   130   131    1
    36    82    81    2
    37    98   101    1
    38   125   126    2
    39    38    37    1
    40    81    80    1
    41   101   102    1
    42    75    76    1
    43    75    74    1
    44    37    34    1
    45    36    35    2
    46   105   104    2
    47   105   106    1
    48    76    77    2
    49    76    79   am
    50   131   132    1
    51    79    80    1
    52   104   103    1
    53    54    55    1
    54    34    35    1
    55    34    33    1
    56    80    83    1
    57    74    64   am
    58    35    39   am
    59   102   103    1
    60    55    58    1
    61    55    56    1
    62   133   132    2
    63   132   134   am
    64    59    61    1
    65    59    58    1
    66    59    60    1
    67    33    26   am
    68    42    41    2
    69    83    84    1
    70    27    26    2
    71    39    40    1
    72    56    62   am
    73    56    57    2
    74    64    65    2
    75    64    63    1
    76    26    25    1
    77    62    63    1
    78    40    41    1
    79    40    43    1
    80   145   144    2
    81   134   135    1
    82    84    85    1
    83   141   140    2
    84    63    66    1
    85    28    25    1
    86    28    29    1
    87    66    67    1
    88   142   143    1
    89   142   139    1
    90   144   143    1
    91   144   146   am
    92    31    30    1
    93    31    32    1
    94    44    43    1
    95    25    24    1
    96    86    85    1
    97    86    87    2
    98   138   139    1
    99   138   136   am
   100    43    45    1
   101   135   136    1
   102   140   139    1
   103    30    29    1
   104   136   137    2
   105    89    87    1
   106    24    22   am
   107    87    88    1
   108    67    69   ar
   109    67    68   ar
   110    23    22    2
   111    69    71   ar
   112    22    21    1
   113   190   189    2
   114    68    70   ar
   115   199   197    1
   116   195   194    2
   117     5     6    1
   118     5     3   am
   119     2     1    1
   120     2     3    1
   121    21    20    1
   122    10    11    1
   123    10     9    1
   124    71    72   ar
   125   193   194    1
   126   193   196    1
   127   193   192    1
   128     6     9    1
   129     6     7    1
   130    12    11   ar
   131   189   192   am
   132   189   188    1
   133    20    16   am
   134     3     4    2
   135   191   188    1
   136    11    13   ar
   137   196   197    1
   138    70    72   ar
   139   197   198    1
   140    72    73    1
   141    14     7   am
   142    14    15    1
   143   188   187    1
   144     7     8    2
   145    19    18    1
   146    16    15    1
   147    16    17    2
   148    15    18    1
   149   187   182   am
   150   183   182    2
   151   163   162    1
   152   154   152   am
   153   182   181    1
   154   162   161    1
   155    46    47    1
   156   153   152    2
   157   152   151    1
   158    48    47    1
   159    48    49    2
   160    47    50    1
   161   186   184    1
   162   181   180    1
   163   181   184    1
   164   151   148    1
   165    50    51    1
   166   161   160    1
   167   160   159    1
   168   184   185    1
   169    53    51   ar
   170    51    52   ar
   171   171   169   ar
   172   148   149    1
   173   148   147    1
   174   155   156    1
   175   155   149   am
   176   179   177    1
   177   170   169   ar
   178   159   156    1
   179   169   168    1
   180   156   157    1
   181   149   150    2
   182   177   176    1
   183   168   165    1
   184   157   158    2
   185   176   178    1
   186   176   173    1
   187   164   165    1
   188   165   166    1
   189   172   166   am
   190   172   173    1
   191   166   167    2
   192   173   174    1
   193   174   175    2
