@<TRIPOS>MOLECULE
tmp/2xu2A00.pdb
 135 131 0 0 0
SMALL
GASTEIGER

@<TRIPOS>ATOM
      1  N         29.8170    2.3500   12.5040 N.3     7  ASP7       -0.1239
      2  CA        30.7430    2.5000   13.6140 C.3     7  ASP7        0.1674
      3  C         32.0140    3.1970   13.1440 C.2     7  ASP7        0.2266
      4  O         32.7080    2.6970   12.2610 O.2     7  ASP7       -0.2867
      5  CB        31.1030    1.1340   14.1980 C.3     7  ASP7        0.1410
      6  CG        29.8830    0.3170   14.5940 C.2     7  ASP7        0.3668
      7  OD1       28.7650    0.8850   14.7170 O.co2   7  ASP7       -0.2456
      8  OD2       30.0580   -0.9020   14.7770 O.co2   7  ASP7       -0.2456
      9  N         29.0750    5.4140   21.1770 N.3    61  HIS61      -0.1241
     10  CA        29.2600    3.9910   20.8860 C.3    61  HIS61       0.1621
     11  C         30.0880    3.3390   22.0170 C.2    61  HIS61       0.2264
     12  O         31.2340    2.9470   21.8010 O.2    61  HIS61      -0.2867
     13  CB        29.9720    3.8410   19.5290 C.3    61  HIS61       0.0745
     14  CG        29.8450    2.4880   18.8910 C.ar   61  HIS61       0.0817
     15  ND1       28.6940    1.7360   18.9420 N.ar   61  HIS61      -0.2268
     16  CD2       30.7240    1.7760   18.1460 C.ar   61  HIS61       0.1154
     17  CE1       28.8760    0.6100   18.2740 C.ar   61  HIS61       0.1986
     18  NE2       30.1030    0.6050   17.7880 N.ar   61  HIS61      -0.2212
     19  N         34.8070   -6.6560   21.5920 N.3    72  ARG72      -0.1245
     20  CA        33.9940   -7.7130   20.9810 C.3    72  ARG72       0.1563
     21  C         33.9510   -9.0120   21.7990 C.2    72  ARG72       0.2260
     22  O         33.4960  -10.0400   21.3110 O.2    72  ARG72      -0.2867
     23  CB        34.5070   -7.9960   19.5730 C.3    72  ARG72       0.0307
     24  CG        34.1900   -6.8550   18.6560 C.3    72  ARG72       0.0489
     25  CD        34.5140   -7.1320   17.2200 C.3    72  ARG72       0.2205
     26  NE        33.9350   -6.0850   16.3800 N.pl3  72  ARG72      -0.0865
     27  CZ        34.4270   -5.6940   15.2070 C.cat  72  ARG72       0.5346
     28  NH1       35.5210   -6.2690   14.7010 N.pl3  72  ARG72       0.1354
     29  NH2       33.8180   -4.7160   14.5330 N.pl3  72  ARG72       0.1354
     30  N         24.4730    3.8720   20.8800 N.3   108  LYS108     -0.1231
     31  CA        24.5590    2.4940   20.3850 C.3   108  LYS108      0.1678
     32  C         25.7320    1.7520   21.0300 C.2   108  LYS108      0.2434
     33  O         26.8770    1.9310   20.6370 O.2   108  LYS108     -0.2733
     34  CB        24.7200    2.4580   18.8680 C.3   108  LYS108      0.0284
     35  CG        24.6670    1.0460   18.2540 C.3   108  LYS108      0.0035
     36  CD        25.3740    0.9680   16.9020 C.3   108  LYS108      0.0206
     37  CE        25.6050   -0.4660   16.4820 C.3   108  LYS108      0.1093
     38  NZ        25.9860   -0.5600   15.0540 N.3   108  LYS108     -0.1314
     39  N         25.4430    0.8650   21.9890 N.am  109  PRO109     -0.2718
     40  CA        26.4930    0.0130   22.5250 C.3   109  PRO109      0.1535
     41  C         27.2970   -0.7070   21.4210 C.2   109  PRO109      0.2599
     42  O         26.7530   -1.0170   20.3430 O.2   109  PRO109     -0.2715
     43  CB        25.7150   -0.9990   23.3810 C.3   109  PRO109      0.0310
     44  CG        24.4530   -0.3230   23.7390 C.3   109  PRO109      0.0237
     45  CD        24.1250    0.5510   22.5710 C.3   109  PRO109      0.0939
     46  N         28.5820   -0.9440   21.6950 N.am  110  HIS110     -0.1960
     47  CA        29.4910   -1.6030   20.7540 C.3   110  HIS110      0.1787
     48  C         29.7310   -3.0500   21.1520 C.2   110  HIS110      0.2621
     49  O         29.7140   -3.3810   22.3360 O.2   110  HIS110     -0.2715
     50  CB        30.8510   -0.8880   20.7220 C.3   110  HIS110      0.0785
     51  CG        31.9170   -1.6530   19.9900 C.ar  110  HIS110      0.0821
     52  ND1       32.0600   -1.6090   18.6180 N.ar  110  HIS110     -0.2267
     53  CD2       32.8780   -2.4960   20.4390 C.ar  110  HIS110      0.1154
     54  CE1       33.0610   -2.3930   18.2550 C.ar  110  HIS110      0.1986
     55  NE2       33.5730   -2.9430   19.3410 N.ar  110  HIS110     -0.2212
     56  N         29.9860   -3.8980   20.1600 N.am  111  GLY111     -0.1940
     57  CA        30.6190   -5.1940   20.3910 C.3   111  GLY111      0.2014
     58  C         29.7920   -6.1310   21.2520 C.2   111  GLY111      0.2638
     59  O         28.5770   -6.1670   21.1280 O.2   111  GLY111     -0.2714
     60  N         30.4480   -6.8720   22.1400 N.am  112  ALA112     -0.1977
     61  CA        29.7500   -7.8490   22.9820 C.3   112  ALA112      0.1597
     62  C         28.6830   -7.2030   23.8780 C.2   112  ALA112      0.2287
     63  O         27.6690   -7.8230   24.1700 O.2   112  ALA112     -0.2864
     64  CB        30.7390   -8.6410   23.8210 C.3   112  ALA112      0.0319
     65  N         26.6180   -4.7960   23.1510 N.3   114  TYR114     -0.1227
     66  CA        25.3910   -4.6700   22.3350 C.3   114  TYR114      0.1736
     67  C         24.6320   -5.9780   22.2520 C.2   114  TYR114      0.2595
     68  O         23.4120   -6.0100   22.4160 O.2   114  TYR114     -0.2718
     69  CB        25.7630   -4.2050   20.9260 C.3   114  TYR114      0.0548
     70  CG        24.6240   -4.0300   19.9430 C.ar  114  TYR114     -0.0200
     71  CD1       24.0600   -2.7770   19.7130 C.ar  114  TYR114     -0.0009
     72  CD2       24.1460   -5.1090   19.2030 C.ar  114  TYR114     -0.0009
     73  CE1       23.0310   -2.6060   18.7940 C.ar  114  TYR114      0.0417
     74  CE2       23.1170   -4.9530   18.2830 C.ar  114  TYR114      0.0417
     75  CZ        22.5650   -3.6910   18.0810 C.ar  114  TYR114      0.1957
     76  OH        21.5510   -3.5290   17.1720 O.3   114  TYR114     -0.2866
     77  N         25.3580   -7.0540   21.9820 N.am  115  ASN115     -0.1974
     78  CA        24.7480   -8.3680   21.9020 C.3   115  ASN115      0.1688
     79  C         24.3230   -8.9210   23.2620 C.2   115  ASN115      0.2292
     80  O         23.3190   -9.6070   23.3440 O.2   115  ASN115     -0.2864
     81  CB        25.6550   -9.3420   21.1350 C.3   115  ASN115      0.1181
     82  CG        25.8150   -8.9490   19.6640 C.2   115  ASN115      0.2629
     83  OD1       26.9280   -8.9150   19.1310 O.2   115  ASN115     -0.2716
     84  ND2       24.7040   -8.6270   19.0120 N.am  115  ASN115     -0.0877
     85  N         21.1340   -4.9880   10.3920 N.3   167  PHE167     -0.1241
     86  CA        22.4940   -5.0540    9.8730 C.3   167  PHE167      0.1605
     87  C         22.5020   -5.5710    8.4280 C.2   167  PHE167      0.2264
     88  O         21.8680   -6.5930    8.1050 O.2   167  PHE167     -0.2867
     89  CB        23.3480   -5.9320   10.7950 C.3   167  PHE167      0.0534
     90  CG        23.5900   -5.3160   12.1490 C.ar  167  PHE167     -0.0203
     91  CD1       24.7910   -4.6840   12.4390 C.ar  167  PHE167     -0.0042
     92  CD2       22.6050   -5.3460   13.1280 C.ar  167  PHE167     -0.0042
     93  CE1       25.0040   -4.0750   13.6940 C.ar  167  PHE167     -0.0003
     94  CE2       22.8100   -4.7520   14.3710 C.ar  167  PHE167     -0.0003
     95  CZ        24.0070   -4.1110   14.6540 C.ar  167  PHE167     -0.0000
     96  N         25.8870   -8.5790    8.2430 N.3   170  ARG170     -0.1245
     97  CA        26.0220   -9.6170    9.2490 C.3   170  ARG170      0.1563
     98  C         24.9700  -10.6800    8.9700 C.2   170  ARG170      0.2260
     99  O         23.8490  -10.3630    8.5510 O.2   170  ARG170     -0.2867
    100  CB        25.8630   -9.0360   10.6620 C.3   170  ARG170      0.0307
    101  CG        26.9570   -8.0440   11.0830 C.3   170  ARG170      0.0489
    102  CD        28.2520   -8.7310   11.5320 C.3   170  ARG170      0.2205
    103  NE        28.2130   -9.1360   12.9370 N.pl3 170  ARG170     -0.0865
    104  CZ        27.9540  -10.3670   13.3880 C.cat 170  ARG170      0.5346
    105  NH1       27.7090  -11.3760   12.5570 N.pl3 170  ARG170      0.1354
    106  NH2       27.9430  -10.5990   14.6980 N.pl3 170  ARG170      0.1354
    107  N         22.2640  -12.0930   15.7910 N.3   178  LEU178     -0.1245
    108  CA        23.3450  -12.1030   14.8140 C.3   178  LEU178      0.1561
    109  C         24.2780  -13.2900   15.0480 C.2   178  LEU178      0.2260
    110  O         24.4980  -13.7000   16.1930 O.2   178  LEU178     -0.2867
    111  CB        24.1380  -10.8090   14.9030 C.3   178  LEU178      0.0270
    112  CG        23.3430   -9.5300   14.6660 C.3   178  LEU178      0.0019
    113  CD1       24.2440   -8.3360   14.9630 C.3   178  LEU178      0.0001
    114  CD2       22.8140   -9.4790   13.2660 C.3   178  LEU178      0.0001
    115  N         30.7150  -13.6920   15.7750 N.3   181  ARG181     -0.1245
    116  CA        31.9060  -13.5020   14.9460 C.3   181  ARG181      0.1563
    117  C         32.9040  -14.6600   15.0520 C.2   181  ARG181      0.2260
    118  O         33.6480  -14.9090   14.1080 O.2   181  ARG181     -0.2867
    119  CB        32.5940  -12.1720   15.2830 C.3   181  ARG181      0.0307
    120  CG        31.7610  -10.9630   14.8980 C.3   181  ARG181      0.0489
    121  CD        32.4480   -9.6610   15.2400 C.3   181  ARG181      0.2205
    122  NE        31.7360   -8.4950   14.7140 N.pl3 181  ARG181     -0.0865
    123  CZ        32.0060   -7.8790   13.5620 C.cat 181  ARG181      0.5346
    124  NH1       32.9650   -8.3220   12.7600 N.pl3 181  ARG181      0.1354
    125  NH2       31.2920   -6.8140   13.1990 N.pl3 181  ARG181      0.1354
    126  N         29.3070   -1.7300    8.2020 N.3   225  HIS225     -0.1241
    127  CA        30.6020   -1.6720    8.8890 C.3   225  HIS225      0.1621
    128  C         31.7110   -1.1520    7.9790 C.2   225  HIS225      0.2264
    129  O         31.9060   -1.6670    6.8750 O.2   225  HIS225     -0.2867
    130  CB        31.0040   -3.0550    9.4140 C.3   225  HIS225      0.0745
    131  CG        30.2940   -3.4560   10.6670 C.ar  225  HIS225      0.0817
    132  ND1       29.0840   -4.1190   10.6570 N.ar  225  HIS225     -0.2268
    133  CD2       30.6270   -3.3000   11.9710 C.ar  225  HIS225      0.1154
    134  CE1       28.6970   -4.3440   11.8980 C.ar  225  HIS225      0.1986
    135  NE2       29.6170   -3.8600   12.7160 N.ar  225  HIS225     -0.2212
@<TRIPOS>BOND
     1   129   128    2
     2   128   127    1
     3    88    87    2
     4   126   127    1
     5    96    97    1
     6    87    86    1
     7    99    98    2
     8   127   130    1
     9    98    97    1
    10    97   100    1
    11   130   131    1
    12    86    85    1
    13    86    89    1
    14   132   131   ar
    15   132   134   ar
    16   100   101    1
    17   131   133   ar
    18    89    90    1
    19   101   102    1
    20   102   103    1
    21   134   135   ar
    22   133   135   ar
    23    90    91   ar
    24    90    92   ar
    25     4     3    2
    26    91    93   ar
    27     1     2    1
    28   105   104    1
    29   124   123    1
    30   103   104    2
    31    92    94   ar
    32     3     2    1
    33   125   123    1
    34   114   112    1
    35   104   106    1
    36   123   122    2
    37     2     5    1
    38    93    95   ar
    39   118   117    2
    40     5     6    1
    41    94    95   ar
    42    29    27    1
    43     6     7   ar
    44     6     8   ar
    45   112   111    1
    46   112   113    1
    47    28    27    1
    48   122   121    1
    49   108   111    1
    50   108   109    1
    51   108   107    1
    52   120   121    1
    53   120   119    1
    54   116   117    1
    55   116   119    1
    56   116   115    1
    57   109   110    2
    58    38    37    1
    59    27    26    2
    60    26    25    1
    61    37    36    1
    62    36    35    1
    63    76    75    1
    64    25    24    1
    65    18    16   ar
    66    18    17   ar
    67    75    74   ar
    68    75    73   ar
    69    16    14   ar
    70    35    34    1
    71    54    52   ar
    72    54    55   ar
    73    17    15   ar
    74    74    72   ar
    75    52    51   ar
    76    24    23    1
    77    73    71   ar
    78    34    31    1
    79    14    15   ar
    80    14    13    1
    81    84    82   am
    82    83    82    2
    83    72    70   ar
    84    55    53   ar
    85    13    10    1
    86    23    20    1
    87    82    81    1
    88    71    70   ar
    89    70    69    1
    90    51    53   ar
    91    51    50    1
    92    56    57    1
    93    56    48   am
    94    42    41    2
    95    31    30    1
    96    31    32    1
    97    57    58    1
    98    33    32    2
    99    50    47    1
   100    47    48    1
   101    47    46    1
   102    10     9    1
   103    10    11    1
   104    69    66    1
   105    20    19    1
   106    20    21    1
   107    32    39   am
   108    59    58    2
   109    81    78    1
   110    48    49    2
   111    58    60   am
   112    22    21    2
   113    41    46   am
   114    41    40    1
   115    12    11    2
   116    78    77    1
   117    78    79    1
   118    77    67   am
   119    39    40    1
   120    39    45    1
   121    60    61    1
   122    67    66    1
   123    67    68    2
   124    66    65    1
   125    40    43    1
   126    45    44    1
   127    61    64    1
   128    61    62    1
   129    79    80    2
   130    43    44    1
   131    62    63    2
