@<TRIPOS>MOLECULE
tmp/2xu4A00.pdb
 147 141 0 0 0
SMALL
GASTEIGER

@<TRIPOS>ATOM
      1  N         15.5670    9.4440   -7.0100 N.3    19  GLN19      -0.1245
      2  CA        16.6270    8.5110   -7.3750 C.3    19  GLN19       0.1566
      3  C         16.1340    7.0690   -7.5140 C.2    19  GLN19       0.2260
      4  O         16.8300    6.2340   -8.1260 O.2    19  GLN19      -0.2867
      5  CB        17.7480    8.5730   -6.3540 C.3    19  GLN19       0.0367
      6  CG        17.3870    8.0430   -4.9930 C.3    19  GLN19       0.0905
      7  CD        18.4860    8.2600   -3.9690 C.2    19  GLN19       0.2608
      8  OE1       18.6340    9.3450   -3.4320 O.2    19  GLN19      -0.2717
      9  NE2       19.3030    7.2550   -3.7750 N.am   19  GLN19      -0.0878
     10  N         21.5380    3.7730   -5.7940 N.3    23  GLY23      -0.1225
     11  CA        22.2760    4.5420   -4.7970 C.3    23  GLY23       0.1811
     12  C         23.0380    5.7230   -5.3740 C.2    23  GLY23       0.2280
     13  O         24.2610    5.8320   -5.2570 O.2    23  GLY23      -0.2866
     14  N         22.3310    9.0930   -4.7660 N.3    25  CYS25      -0.1221
     15  CA        22.0840   10.3350   -4.0320 C.3    25  CYS25       0.1808
     16  C         23.1460   11.4130   -4.3220 C.2    25  CYS25       0.2601
     17  O         22.8200   12.5870   -4.4930 O.2    25  CYS25      -0.2717
     18  CB        21.9640   10.0910   -2.5270 C.3    25  CYS25       0.0970
     19  SG        23.4390    9.3060   -1.7790 S.3    25  CYS25      -0.0800
     20  N         24.4120   10.9930   -4.3310 N.am   26  TRP26      -0.1976
     21  CA        25.5530   11.8720   -4.5890 C.3    26  TRP26       0.1640
     22  C         25.4020   12.5680   -5.9700 C.2    26  TRP26       0.2290
     23  O         25.8540   13.7190   -6.1400 O.2    26  TRP26      -0.2864
     24  CB        26.8480   11.0380   -4.5600 C.3    26  TRP26       0.0576
     25  CG        26.8450    9.8800   -5.5080 C.ar   26  TRP26       0.0006
     26  CD1       26.3350    8.6040   -5.2850 C.ar   26  TRP26       0.0946
     27  CD2       27.2970    9.8810   -6.8540 C.ar   26  TRP26       0.0152
     28  NE1       26.4480    7.8460   -6.4190 N.ar   26  TRP26      -0.2442
     29  CE2       27.0460    8.5970   -7.3950 C.ar   26  TRP26       0.0810
     30  CE3       27.8680   10.8590   -7.7070 C.ar   26  TRP26       0.0012
     31  CZ2       27.3690    8.2700   -8.7080 C.ar   26  TRP26       0.0191
     32  CZ3       28.1980   10.5190   -8.9930 C.ar   26  TRP26       0.0001
     33  CH2       27.9450    9.2370   -9.4770 C.ar   26  TRP26       0.0015
     34  N         36.3720    8.1760   -9.2780 N.3    61  GLY61      -0.1225
     35  CA        36.1710    7.5020   -7.9950 C.3    61  GLY61       0.1811
     36  C         34.7300    7.1690   -7.6400 C.2    61  GLY61       0.2280
     37  O         34.4710    6.6090   -6.5660 O.2    61  GLY61      -0.2866
     38  N         30.9840    5.2880   -7.8370 N.3    63  GLU63      -0.1245
     39  CA        30.6540    3.8550   -7.8840 C.3    63  GLU63       0.1567
     40  C         29.2270    3.6210   -8.3790 C.2    63  GLU63       0.2260
     41  O         28.5320    2.6970   -7.9350 O.2    63  GLU63      -0.2867
     42  CB        30.8960    3.1990   -6.5230 C.3    63  GLU63       0.0388
     43  CG        32.2850    3.3960   -6.0100 C.3    63  GLU63       0.1160
     44  CD        32.4620    2.6620   -4.7040 C.2    63  GLU63       0.3649
     45  OE1       31.7700    2.9730   -3.7030 O.co2  63  GLU63      -0.2457
     46  OE2       33.2530    1.7400   -4.6900 O.co2  63  GLU63      -0.2457
     47  N         26.0610    2.4170   -6.5520 N.3    66  ASN66      -0.1225
     48  CA        26.5260    1.9610   -5.2530 C.3    66  ASN66       0.1785
     49  C         26.9990    3.0540   -4.3050 C.2    66  ASN66       0.2598
     50  O         27.2780    2.7840   -3.1620 O.2    66  ASN66      -0.2718
     51  CB        27.6460    0.9340   -5.4080 C.3    66  ASN66       0.1169
     52  CG        27.2370   -0.2230   -6.2480 C.2    66  ASN66       0.2627
     53  OD1       27.8060   -0.5010   -7.3330 O.2    66  ASN66      -0.2716
     54  ND2       26.2110   -0.8900   -5.7980 N.am   66  ASN66      -0.0877
     55  N         27.1220    4.2760   -4.8090 N.am   67  GLY67      -0.1942
     56  CA        27.5630    5.4020   -4.0050 C.3    67  GLY67       0.2014
     57  C         28.6440    6.2190   -4.7000 C.2    67  GLY67       0.2639
     58  O         29.1110    5.8920   -5.7940 O.2    67  GLY67      -0.2714
     59  N         28.9940    7.3290   -4.0590 N.am   68  GLY68      -0.1939
     60  CA        29.9110    8.2580   -4.6750 C.3    68  GLY68       0.2014
     61  C         30.0240    9.5240   -3.8760 C.2    68  GLY68       0.2639
     62  O         29.4020    9.6740   -2.8250 O.2    68  GLY68      -0.2714
     63  N         30.8610   10.4270   -4.3710 N.am   69  LEU69      -0.1963
     64  CA        31.1460   11.6920   -3.7220 C.3    69  LEU69       0.1728
     65  C         30.8460   12.8630   -4.6690 C.2    69  LEU69       0.2616
     66  O         31.1850   12.8450   -5.8500 O.2    69  LEU69      -0.2715
     67  CB        32.6180   11.7890   -3.3060 C.3    69  LEU69       0.0311
     68  CG        33.2410   10.7370   -2.3780 C.3    69  LEU69       0.0022
     69  CD1       34.6730   11.1480   -2.0290 C.3    69  LEU69       0.0001
     70  CD2       32.4680   10.5540   -1.0730 C.3    69  LEU69       0.0001
     71  N         30.2070   13.8870   -4.1300 N.am   70  MET70      -0.1963
     72  CA        29.8870   15.0570   -4.9320 C.3    70  MET70       0.1736
     73  C         31.1250   15.7230   -5.5390 C.2    70  MET70       0.2616
     74  O         31.1090   16.0800   -6.7200 O.2    70  MET70      -0.2715
     75  CB        29.0870   16.0540   -4.1070 C.3    70  MET70       0.0427
     76  CG        27.6630   15.5860   -3.7050 C.3    70  MET70       0.0599
     77  SD        27.5590   14.4060   -2.3470 S.3    70  MET70      -0.1393
     78  CE        27.5050   15.4900   -0.9690 C.3    70  MET70       0.0692
     79  N         32.2210   15.7760   -4.7840 N.am   71  ASP71      -0.1957
     80  CA        33.4570   16.3670   -5.3190 C.3    71  ASP71       0.1840
     81  C         33.9920   15.5720   -6.5120 C.2    71  ASP71       0.2622
     82  O         34.5220   16.1580   -7.4550 O.2    71  ASP71      -0.2715
     83  CB        34.5360   16.4940   -4.2390 C.3    71  ASP71       0.1450
     84  CG        34.2850   17.6440   -3.2750 C.2    71  ASP71       0.3671
     85  OD1       33.3760   18.4770   -3.5170 O.co2  71  ASP71      -0.2456
     86  OD2       35.0550   17.7140   -2.2540 O.co2  71  ASP71      -0.2456
     87  N         33.8560   14.2370   -6.4830 N.am   72  TYR72      -0.1974
     88  CA        34.2810   13.4300   -7.6300 C.3    72  TYR72       0.1639
     89  C         33.4230   13.7410   -8.8540 C.2    72  TYR72       0.2290
     90  O         33.8950   13.7000  -10.0000 O.2    72  TYR72      -0.2864
     91  CB        34.2220   11.9250   -7.3330 C.3    72  TYR72       0.0560
     92  CG        35.2160   11.3930   -6.3430 C.ar   72  TYR72      -0.0198
     93  CD1       36.3370   12.1330   -5.9610 C.ar   72  TYR72      -0.0009
     94  CD2       35.0440   10.1200   -5.7940 C.ar   72  TYR72      -0.0009
     95  CE1       37.2580   11.6150   -5.0650 C.ar   72  TYR72       0.0417
     96  CE2       35.9610    9.5960   -4.8870 C.ar   72  TYR72       0.0417
     97  CZ        37.0590   10.3560   -4.5200 C.ar   72  TYR72       0.1957
     98  OH        37.9750    9.8620   -3.6230 O.3    72  TYR72      -0.2866
     99  N         26.7970   16.4220    2.8870 N.3   135  ALA135     -0.1245
    100  CA        26.6670   15.0690    3.4160 C.3   135  ALA135      0.1562
    101  C         25.9060   15.1290    4.7250 C.2   135  ALA135      0.2260
    102  O         26.1610   15.9770    5.5860 O.2   135  ALA135     -0.2867
    103  CB        28.0460   14.4740    3.6620 C.3   135  ALA135      0.0290
    104  N         29.8860   12.5410   12.1720 N.3   159  GLU159     -0.1245
    105  CA        31.0580   11.9540   11.5310 C.3   159  GLU159      0.1567
    106  C         30.7090   10.9030   10.4900 C.2   159  GLU159      0.2260
    107  O         31.4160   10.7660    9.4920 O.2   159  GLU159     -0.2867
    108  CB        31.9520   11.2770   12.5780 C.3   159  GLU159      0.0388
    109  CG        32.2970   12.1110   13.8050 C.3   159  GLU159      0.1160
    110  CD        33.1050   11.3280   14.8500 C.2   159  GLU159      0.3649
    111  OE1       32.7790   10.1530   15.1310 O.co2 159  GLU159     -0.2457
    112  OE2       34.0680   11.8930   15.4020 O.co2 159  GLU159     -0.2457
    113  N         28.3770   10.1280    7.9430 N.3   161  MET161     -0.1230
    114  CA        27.3450   10.5530    6.9720 C.3   161  MET161      0.1702
    115  C         27.1990    9.4820    5.8900 C.2   161  MET161      0.2592
    116  O         28.1520    8.7740    5.5510 O.2   161  MET161     -0.2718
    117  CB        27.6960   11.9080    6.3300 C.3   161  MET161      0.0401
    118  CG        27.7220   13.0960    7.3180 C.3   161  MET161      0.0596
    119  SD        29.2240   13.2610    8.3190 S.3   161  MET161     -0.1393
    120  CE        30.4080   13.6230    7.0030 C.3   161  MET161      0.0692
    121  N         25.9930    9.3550    5.3470 N.am  162  ASP162     -0.1960
    122  CA        25.6830    8.2830    4.4120 C.3   162  ASP162      0.1840
    123  C         24.7460    8.7250    3.2720 C.2   162  ASP162      0.2622
    124  O         24.2190    7.8960    2.5540 O.2   162  ASP162     -0.2715
    125  CB        25.0530    7.1030    5.1730 C.3   162  ASP162      0.1450
    126  CG        23.6780    7.4330    5.7610 C.2   162  ASP162      0.3671
    127  OD1       23.2090    8.5740    5.6220 O.co2 162  ASP162     -0.2456
    128  OD2       23.0710    6.5390    6.4070 O.co2 162  ASP162     -0.2456
    129  N         24.5730   10.0350    3.0610 N.am  163  HIS163     -0.1959
    130  CA        23.6040   10.5260    2.0900 C.3   163  HIS163      0.1787
    131  C         23.9850   11.9430    1.6790 C.2   163  HIS163      0.2620
    132  O         24.2380   12.7850    2.5200 O.2   163  HIS163     -0.2715
    133  CB        22.2350   10.5130    2.7770 C.3   163  HIS163      0.0785
    134  CG        21.0750   10.7350    1.8520 C.ar  163  HIS163      0.0821
    135  ND1       20.9500   10.0650    0.6570 N.ar  163  HIS163     -0.2267
    136  CD2       19.9790   11.5330    1.9640 C.ar  163  HIS163      0.1154
    137  CE1       19.8310   10.4480    0.0700 C.ar  163  HIS163      0.1986
    138  NE2       19.2370   11.3540    0.8270 N.ar  163  HIS163     -0.2212
    139  N         24.0310   12.1570    0.3730 N.am  164  GLY164     -0.1954
    140  CA        24.3240   13.4690   -0.2140 C.3   164  GLY164      0.1869
    141  C         23.0260   14.1490   -0.5810 C.2   164  GLY164      0.2309
    142  O         22.1970   13.5460   -1.2610 O.2   164  GLY164     -0.2863
    143  N         30.9860   17.8780    5.3550 N.3   211  ALA211     -0.1245
    144  CA        31.5150   17.6400    4.0170 C.3   211  ALA211      0.1562
    145  C         30.6670   18.3860    3.0020 C.2   211  ALA211      0.2260
    146  O         30.0250   17.7950    2.1380 O.2   211  ALA211     -0.2867
    147  CB        31.5930   16.1520    3.7280 C.3   211  ALA211      0.0290
@<TRIPOS>BOND
     1    90    89    2
     2    33    32   ar
     3    33    31   ar
     4    34    35    1
     5    32    30   ar
     6    89    88    1
     7    31    29   ar
     8    40    41    2
     9    40    39    1
    10     4     3    2
    11    35    36    1
    12    39    38    1
    13    39    42    1
    14    30    27   ar
    15    36    37    2
    16    88    91    1
    17    88    87    1
    18     3     2    1
    19    82    81    2
    20    29    27   ar
    21    29    28   ar
    22     2     1    1
    23     2     5    1
    24    53    52    2
    25    91    92    1
    26    27    25   ar
    27    74    73    2
    28    47    48    1
    29    42    43    1
    30    81    87   am
    31    81    80    1
    32    28    26   ar
    33     5     6    1
    34    92    93   ar
    35    92    94   ar
    36    52    54   am
    37    52    51    1
    38    23    22    2
    39    43    44    1
    40    22    21    1
    41    93    95   ar
    42    66    65    2
    43    58    57    2
    44    10    11    1
    45    94    96   ar
    46    73    72    1
    47    73    79   am
    48    25    26   ar
    49    25    24    1
    50    51    48    1
    51    12    13    2
    52    12    11    1
    53    80    79    1
    54    80    83    1
    55    48    49    1
    56    95    97   ar
    57     6     7    1
    58    72    71    1
    59    72    75    1
    60    96    97   ar
    61    55    49   am
    62    55    56    1
    63    14    15    1
    64    44    46   ar
    65    44    45   ar
    66    57    59   am
    67    57    56    1
    68    60    59    1
    69    60    61    1
    70    65    71   am
    71    65    64    1
    72    21    24    1
    73    21    20    1
    74    97    98    1
    75    17    16    2
    76    63    61   am
    77    63    64    1
    78    20    16   am
    79    16    15    1
    80    49    50    2
    81    83    84    1
    82    75    76    1
    83    15    18    1
    84     7     9   am
    85     7     8    2
    86    61    62    2
    87    64    67    1
    88    76    77    1
    89    85    84   ar
    90    67    68    1
    91    84    86   ar
    92    18    19    1
    93    68    69    1
    94    68    70    1
    95    77    78    1
    96   142   141    2
    97   141   140    1
    98   140   139    1
    99   137   135   ar
   100   137   138   ar
   101   139   131   am
   102   135   134   ar
   103   138   136   ar
   104   131   130    1
   105   131   132    2
   106   134   136   ar
   107   134   133    1
   108   130   133    1
   109   130   129    1
   110   146   145    2
   111   124   123    2
   112    99   100    1
   113   145   144    1
   114   129   123   am
   115   123   122    1
   116   100   103    1
   117   100   101    1
   118   147   144    1
   119   144   143    1
   120   122   125    1
   121   122   121    1
   122   101   102    2
   123   125   126    1
   124   121   115   am
   125   116   115    2
   126   127   126   ar
   127   126   128   ar
   128   115   114    1
   129   117   114    1
   130   117   118    1
   131   114   113    1
   132   120   119    1
   133   118   119    1
   134   107   106    2
   135   106   105    1
   136   105   104    1
   137   105   108    1
   138   108   109    1
   139   109   110    1
   140   110   111   ar
   141   110   112   ar
