@<TRIPOS>MOLECULE
tmp/2xu9A12.pdb
 94 94 0 0 0
SMALL
GASTEIGER

@<TRIPOS>ATOM
      1  N        -33.0390  -31.6140  -11.9660 N.3     5  PRO5       -0.2102
      2  CA       -32.3860  -30.3080  -11.9480 C.3     5  PRO5        0.1504
      3  C        -31.1130  -30.3370  -11.1010 C.2     5  PRO5        0.2576
      4  O        -31.1250  -30.8690   -9.9920 O.2     5  PRO5       -0.2718
      5  CB       -33.4360  -29.4110  -11.2990 C.3     5  PRO5        0.0282
      6  CG       -34.2260  -30.3150  -10.4550 C.3     5  PRO5        0.0208
      7  CD       -34.2870  -31.6150  -11.1920 C.3     5  PRO5        0.0893
      8  N        -30.0330  -29.8200  -11.6720 N.am    6  GLU6       -0.1967
      9  CA       -28.7630  -29.6380  -10.9690 C.3     6  GLU6        0.1718
     10  C        -28.2030  -28.2940  -11.3670 C.2     6  GLU6        0.2458
     11  O        -28.4100  -27.8480  -12.4900 O.2     6  GLU6       -0.2730
     12  CB       -27.7530  -30.7060  -11.3710 C.3     6  GLU6        0.0428
     13  CG       -27.9530  -32.0290  -10.7040 C.3     6  GLU6        0.1163
     14  CD       -26.9840  -33.0580  -11.2140 C.2     6  GLU6        0.3649
     15  OE1      -25.8510  -33.1480  -10.6840 O.co2   6  GLU6       -0.2457
     16  OE2      -27.3340  -33.7560  -12.1820 O.co2   6  GLU6       -0.2457
     17  N        -27.4520  -27.6510  -10.4610 N.am    7  PRO7       -0.2716
     18  CA       -26.8870  -26.3700  -10.8910 C.3     7  PRO7        0.1536
     19  C        -25.9570  -26.4840  -12.1030 C.2     7  PRO7        0.2598
     20  O        -25.2720  -27.4960  -12.2980 O.2     7  PRO7       -0.2715
     21  CB       -26.0980  -25.9050   -9.6500 C.3     7  PRO7        0.0310
     22  CG       -26.7550  -26.6250   -8.4940 C.3     7  PRO7        0.0237
     23  CD       -27.1100  -27.9780   -9.0650 C.3     7  PRO7        0.0939
     24  N        -25.9460  -25.4270  -12.9080 N.am    8  LYS8       -0.1978
     25  CA       -25.0060  -25.2860  -14.0130 C.3     8  LYS8        0.1596
     26  C        -23.5800  -25.4790  -13.5140 C.2     8  LYS8        0.2287
     27  O        -23.2300  -25.0060  -12.4330 O.2     8  LYS8       -0.2864
     28  CB       -25.1450  -23.8920  -14.6310 C.3     8  LYS8        0.0298
     29  CG       -23.9900  -23.4990  -15.5370 C.3     8  LYS8        0.0038
     30  CD       -24.1630  -22.0970  -16.0970 C.3     8  LYS8        0.0206
     31  CE       -23.0520  -21.7650  -17.0910 C.3     8  LYS8        0.1093
     32  NZ       -23.2810  -20.4720  -17.8020 N.3     8  LYS8       -0.1314
     33  N        -36.7930  -15.0630   -9.5750 N.3    28  LEU28      -0.1231
     34  CA       -36.7010  -16.4220  -10.0990 C.3    28  LEU28       0.1693
     35  C        -38.0490  -17.1170  -10.0480 C.2    28  LEU28       0.2592
     36  O        -38.9940  -16.5990   -9.4540 O.2    28  LEU28      -0.2718
     37  CB       -35.7070  -17.2490   -9.2730 C.3    28  LEU28       0.0284
     38  CG       -34.2120  -16.9350   -9.3610 C.3    28  LEU28       0.0019
     39  CD1      -33.4480  -17.6780   -8.2690 C.3    28  LEU28       0.0001
     40  CD2      -33.6690  -17.2850  -10.7400 C.3    28  LEU28       0.0001
     41  N        -38.1320  -18.2920  -10.6680 N.am   29  ALA29      -0.1966
     42  CA       -39.2160  -19.2160  -10.3800 C.3    29  ALA29       0.1728
     43  C        -38.6360  -20.2480   -9.4410 C.2    29  ALA29       0.2616
     44  O        -37.5960  -20.8330   -9.7230 O.2    29  ALA29      -0.2715
     45  CB       -39.7190  -19.8790  -11.6490 C.3    29  ALA29       0.0334
     46  N        -39.3260  -20.4640   -8.3290 N.am   30  ILE30      -0.1977
     47  CA       -38.8590  -21.3140   -7.2480 C.3    30  ILE30       0.1596
     48  C        -40.0310  -22.1730   -6.7870 C.2    30  ILE30       0.2287
     49  O        -41.0350  -21.6480   -6.3080 O.2    30  ILE30      -0.2864
     50  CB       -38.3290  -20.4430   -6.0620 C.3    30  ILE30       0.0276
     51  CG1      -37.7520  -21.3040   -4.9350 C.3    30  ILE30       0.0022
     52  CG2      -39.4170  -19.5230   -5.5340 C.3    30  ILE30       0.0022
     53  CD1      -36.2610  -21.5340   -5.0420 C.3    30  ILE30       0.0001
     54  N        -28.5780  -17.5940  -10.1390 N.3    43  SER43      -0.1202
     55  CA       -29.2790  -18.8650   -9.9130 C.3    43  SER43       0.2020
     56  C        -29.2960  -19.2980   -8.4520 C.2    43  SER43       0.2619
     57  O        -28.4300  -18.9080   -7.6680 O.2    43  SER43      -0.2717
     58  CB       -28.6570  -19.9930  -10.7580 C.3    43  SER43       0.2103
     59  OG       -27.3070  -20.2400  -10.3580 O.3    43  SER43      -0.2182
     60  N        -30.2630  -20.1460   -8.1190 N.am   44  PHE44      -0.1962
     61  CA       -30.3320  -20.7820   -6.8150 C.3    44  PHE44       0.1756
     62  C        -30.4480  -22.2880   -6.9960 C.2    44  PHE44       0.2461
     63  O        -31.4080  -22.7650   -7.6010 O.2    44  PHE44      -0.2730
     64  CB       -31.5480  -20.2880   -6.0460 C.3    44  PHE44       0.0574
     65  CG       -31.7600  -20.9870   -4.7430 C.ar   44  PHE44      -0.0200
     66  CD1      -30.8550  -20.8270   -3.7040 C.ar   44  PHE44      -0.0042
     67  CD2      -32.8730  -21.7980   -4.5440 C.ar   44  PHE44      -0.0042
     68  CE1      -31.0530  -21.4700   -2.4890 C.ar   44  PHE44      -0.0003
     69  CE2      -33.0840  -22.4370   -3.3330 C.ar   44  PHE44      -0.0003
     70  CZ       -32.1770  -22.2750   -2.3030 C.ar   44  PHE44      -0.0000
     71  N        -29.4600  -23.0440   -6.5070 N.am   45  PRO45      -0.2727
     72  CA       -28.1630  -22.6040   -5.9610 C.3    45  PRO45       0.1402
     73  C        -27.3340  -21.8780   -7.0050 C.2    45  PRO45       0.2269
     74  O        -27.6770  -21.8820   -8.1960 O.2    45  PRO45      -0.2865
     75  CB       -27.4600  -23.9230   -5.6330 C.3    45  PRO45       0.0296
     76  CG       -28.5850  -24.9120   -5.4190 C.3    45  PRO45       0.0237
     77  CD       -29.6250  -24.5060   -6.4410 C.3    45  PRO45       0.0939
     78  N        -31.5400  -28.9650   -4.8600 N.3   183  ASN183     -0.1225
     79  CA       -31.1010  -28.1490   -6.0000 C.3   183  ASN183      0.1785
     80  C        -32.1190  -27.0730   -6.3520 C.2   183  ASN183      0.2598
     81  O        -32.2940  -26.7370   -7.5250 O.2   183  ASN183     -0.2718
     82  CB       -30.7860  -29.0230   -7.2110 C.3   183  ASN183      0.1169
     83  CG       -29.6410  -29.9700   -6.9300 C.2   183  ASN183      0.2627
     84  OD1      -28.8070  -29.6850   -6.0710 O.2   183  ASN183     -0.2716
     85  ND2      -29.5890  -31.1050   -7.6350 N.am  183  ASN183     -0.0877
     86  N        -32.7940  -26.5520   -5.3320 N.am  184  GLY184     -0.1942
     87  CA       -33.7810  -25.4960   -5.5190 C.3   184  GLY184      0.2014
     88  C        -35.1070  -25.9780   -6.0810 C.2   184  GLY184      0.2638
     89  O        -35.9770  -25.1700   -6.3870 O.2   184  GLY184     -0.2714
     90  N        -35.2660  -27.2940   -6.2170 N.am  185  ALA185     -0.1977
     91  CA       -36.5010  -27.8800   -6.7440 C.3   185  ALA185      0.1597
     92  C        -37.2880  -28.6030   -5.6550 C.2   185  ALA185      0.2287
     93  O        -36.7100  -29.1670   -4.7230 O.2   185  ALA185     -0.2864
     94  CB       -36.1720  -28.8590   -7.8590 C.3   185  ALA185      0.0319
@<TRIPOS>BOND
     1    32    31    1
     2    31    30    1
     3    30    29    1
     4    29    28    1
     5    28    25    1
     6    25    26    1
     7    25    24    1
     8    26    27    2
     9    24    19   am
    10    11    10    2
    11    20    19    2
    12    16    14   ar
    13    19    18    1
    14     1     2    1
    15     1     7    1
    16     2     5    1
    17     2     3    1
    18     8     3   am
    19     8     9    1
    20    45    42    1
    21    12     9    1
    22    12    13    1
    23    10     9    1
    24    10    17   am
    25     5     6    1
    26    14    13    1
    27    14    15   ar
    28     7     6    1
    29     3     4    2
    30    18    17    1
    31    18    21    1
    32    58    59    1
    33    58    55    1
    34    40    38    1
    35    41    42    1
    36    41    35   am
    37    17    23    1
    38    42    43    1
    39    54    55    1
    40    34    35    1
    41    34    33    1
    42    34    37    1
    43    35    36    2
    44    55    56    1
    45    44    43    2
    46    21    22    1
    47    43    46   am
    48    38    37    1
    49    38    39    1
    50    23    22    1
    51    56    60   am
    52    56    57    2
    53    46    47    1
    54    74    73    2
    55    60    61    1
    56    94    91    1
    57    85    83   am
    58    63    62    2
    59    81    80    2
    60    47    48    1
    61    47    50    1
    62    82    83    1
    63    82    79    1
    64    73    72    1
    65    62    61    1
    66    62    71   am
    67    83    84    2
    68    61    64    1
    69    48    49    2
    70    91    90    1
    71    91    92    1
    72    71    77    1
    73    71    72    1
    74    77    76    1
    75    89    88    2
    76    80    79    1
    77    80    86   am
    78    90    88   am
    79    88    87    1
    80    50    52    1
    81    50    51    1
    82    64    65    1
    83    79    78    1
    84    72    75    1
    85    92    93    2
    86    75    76    1
    87    87    86    1
    88    53    51    1
    89    65    67   ar
    90    65    66   ar
    91    67    69   ar
    92    66    68   ar
    93    69    70   ar
    94    68    70   ar
