@<TRIPOS>MOLECULE
tmp/2xuaB00.pdb
 130 126 0 0 0
SMALL
GASTEIGER

@<TRIPOS>ATOM
      1  N        -16.6900  -11.3300   11.3790 N.3    30  SER30      -0.1202
      2  CA       -17.5340  -10.2990   12.0270 C.3    30  SER30       0.2020
      3  C        -17.1550  -10.1090   13.4840 C.2    30  SER30       0.2618
      4  O        -16.6680  -11.0560   14.1610 O.2    30  SER30      -0.2717
      5  CB       -18.9820  -10.8170   11.9990 C.3    30  SER30       0.2103
      6  OG       -19.8810   -9.7020   12.2310 O.3    30  SER30      -0.2182
      7  N        -17.4410   -8.9130   14.0260 N.am   31  LEU31      -0.1979
      8  CA       -17.4030   -8.7240   15.4770 C.3    31  LEU31       0.1596
      9  C        -18.1770   -9.7950   16.2670 C.2    31  LEU31       0.2287
     10  O        -19.3280  -10.0570   15.9790 O.2    31  LEU31      -0.2864
     11  CB       -17.9330   -7.3120   15.8270 C.3    31  LEU31       0.0297
     12  CG       -17.9290   -6.8820   17.2650 C.3    31  LEU31       0.0022
     13  CD1      -16.4970   -6.7440   17.7500 C.3    31  LEU31       0.0001
     14  CD2      -18.6950   -5.5680   17.3240 C.3    31  LEU31       0.0001
     15  N        -18.9400   -7.9100    7.5590 N.3    94  SER94      -0.1217
     16  CA       -19.1150   -6.7810    8.4860 C.3    94  SER94       0.1889
     17  C        -17.8270   -6.0160    8.8220 C.2    94  SER94       0.2288
     18  O        -17.2540   -5.4490    7.9100 O.2    94  SER94      -0.2866
     19  CB       -19.9480   -7.1520    9.7430 C.3    94  SER94       0.2089
     20  OG       -20.4640   -5.8940   10.2370 O.3    94  SER94      -0.2183
     21  N        -19.7490    1.7030    9.3170 N.3   122  ILE122     -0.1245
     22  CA       -20.7360    0.7790    9.9390 C.3   122  ILE122      0.1561
     23  C        -21.2670    1.4350   11.2250 C.2   122  ILE122      0.2260
     24  O        -20.5150    1.8560   12.1230 O.2   122  ILE122     -0.2867
     25  CB       -20.1320   -0.6370   10.2310 C.3   122  ILE122      0.0252
     26  CG1      -19.6720   -1.2900    8.9360 C.3   122  ILE122      0.0019
     27  CG2      -21.1470   -1.5680   10.9680 C.3   122  ILE122      0.0019
     28  CD1      -18.7460   -2.5010    9.1640 C.3   122  ILE122      0.0001
     29  N        -24.7660    3.7030   18.5050 N.3   127  VAL127     -0.1231
     30  CA       -24.8170    2.2320   18.6300 C.3   127  VAL127      0.1692
     31  C        -23.5720    1.7590   19.3850 C.2   127  VAL127      0.2592
     32  O        -23.6740    1.0510   20.3600 O.2   127  VAL127     -0.2718
     33  CB       -24.9620    1.5040   17.2480 C.3   127  VAL127      0.0266
     34  CG1      -24.9260   -0.0370   17.4480 C.3   127  VAL127      0.0020
     35  CG2      -26.2700    1.8410   16.5930 C.3   127  VAL127      0.0020
     36  N        -22.4110    2.2210   18.9670 N.am  128  TRP128     -0.1976
     37  CA       -21.1460    1.6160   19.3870 C.3   128  TRP128      0.1640
     38  C        -20.7020    2.0480   20.7450 C.2   128  TRP128      0.2290
     39  O        -19.9650    1.3160   21.4330 O.2   128  TRP128     -0.2864
     40  CB       -20.0470    1.9810   18.3950 C.3   128  TRP128      0.0576
     41  CG       -20.2270    1.3120   17.0550 C.ar  128  TRP128      0.0006
     42  CD1      -20.3780    1.9200   15.8570 C.ar  128  TRP128      0.0946
     43  CD2      -20.2950   -0.1090   16.8000 C.ar  128  TRP128      0.0152
     44  NE1      -20.5200    0.9860   14.8620 N.ar  128  TRP128     -0.2442
     45  CE2      -20.4970   -0.2690   15.4220 C.ar  128  TRP128      0.0810
     46  CE3      -20.1900   -1.2620   17.6130 C.ar  128  TRP128      0.0012
     47  CZ2      -20.5840   -1.5160   14.8270 C.ar  128  TRP128      0.0191
     48  CZ3      -20.2580   -2.5180   17.0090 C.ar  128  TRP128      0.0001
     49  CH2      -20.4530   -2.6330   15.6380 C.ar  128  TRP128      0.0015
     50  N        -22.7420    0.1500   23.3340 N.3   131  ARG131     -0.1245
     51  CA       -22.3830   -1.2430   23.1610 C.3   131  ARG131      0.1563
     52  C        -21.1360   -1.6180   23.9370 C.2   131  ARG131      0.2260
     53  O        -21.1160   -2.6480   24.6430 O.2   131  ARG131     -0.2867
     54  CB       -22.1940   -1.5390   21.6800 C.3   131  ARG131      0.0307
     55  CG       -22.1220   -3.0500   21.4150 C.3   131  ARG131      0.0489
     56  CD       -21.7930   -3.2770   19.9760 C.3   131  ARG131      0.2205
     57  NE       -22.8640   -3.2410   18.9690 N.pl3 131  ARG131     -0.0865
     58  CZ       -24.1710   -3.3770   19.1710 C.cat 131  ARG131      0.5346
     59  NH1      -24.6510   -3.5290   20.3990 N.pl3 131  ARG131      0.1354
     60  NH2      -25.0060   -3.3510   18.1150 N.pl3 131  ARG131      0.1354
     61  N        -27.8310   -8.6240   20.4950 N.3   146  VAL146     -0.1245
     62  CA       -27.0610   -8.6670   19.2230 C.3   146  VAL146      0.1561
     63  C        -27.4670   -9.7860   18.2970 C.2   146  VAL146      0.2260
     64  O        -27.6670   -9.5570   17.1020 O.2   146  VAL146     -0.2867
     65  CB       -25.5130   -8.6540   19.4360 C.3   146  VAL146      0.0252
     66  CG1      -24.7640   -8.8880   18.0960 C.3   146  VAL146      0.0019
     67  CG2      -25.1200   -7.3500   20.0940 C.3   146  VAL146      0.0019
     68  N        -30.0470   -9.6580   15.6550 N.3   149  ARG149     -0.1231
     69  CA       -29.7310   -8.8170   14.4890 C.3   149  ARG149      0.1694
     70  C        -28.9820   -9.5900   13.3970 C.2   149  ARG149      0.2592
     71  O        -28.7350   -9.0500   12.3120 O.2   149  ARG149     -0.2718
     72  CB       -28.9210   -7.5910   14.9310 C.3   149  ARG149      0.0321
     73  CG       -29.8100   -6.5900   15.7280 C.3   149  ARG149      0.0489
     74  CD       -28.9420   -5.6680   16.6090 C.3   149  ARG149      0.2205
     75  NE       -28.0830   -4.7590   15.8330 N.pl3 149  ARG149     -0.0865
     76  CZ       -28.5140   -3.7420   15.0610 C.cat 149  ARG149      0.5346
     77  NH1      -29.8290   -3.4870   14.9100 N.pl3 149  ARG149      0.1354
     78  NH2      -27.6170   -2.9780   14.4270 N.pl3 149  ARG149      0.1354
     79  N        -28.5970  -10.8290   13.6900 N.am  150  TRP150     -0.1976
     80  CA       -27.7120  -11.5840   12.7860 C.3   150  TRP150      0.1640
     81  C        -28.4790  -12.5550   11.9230 C.2   150  TRP150      0.2290
     82  O        -28.0210  -12.9040   10.8470 O.2   150  TRP150     -0.2864
     83  CB       -26.7140  -12.3890   13.6250 C.3   150  TRP150      0.0576
     84  CG       -25.6080  -11.5530   14.2040 C.ar  150  TRP150      0.0006
     85  CD1      -25.4890  -10.1720   14.2320 C.ar  150  TRP150      0.0946
     86  CD2      -24.4410  -12.0740   14.8520 C.ar  150  TRP150      0.0152
     87  NE1      -24.3170   -9.8180   14.9020 N.ar  150  TRP150     -0.2442
     88  CE2      -23.6620  -10.9790   15.2730 C.ar  150  TRP150      0.0810
     89  CE3      -24.0050  -13.3780   15.1350 C.ar  150  TRP150      0.0012
     90  CZ2      -22.4720  -11.1460   15.9550 C.ar  150  TRP150      0.0191
     91  CZ3      -22.8090  -13.5500   15.7850 C.ar  150  TRP150      0.0001
     92  CH2      -22.0560  -12.4300   16.2110 C.ar  150  TRP150      0.0015
     93  N        -19.8410  -16.1390   20.6390 N.3   168  PHE168     -0.1241
     94  CA       -20.1060  -14.7210   20.9870 C.3   168  PHE168      0.1605
     95  C        -19.9340  -14.5150   22.5100 C.2   168  PHE168      0.2264
     96  O        -19.1340  -13.6940   22.9400 O.2   168  PHE168     -0.2867
     97  CB       -21.5080  -14.3520   20.5120 C.3   168  PHE168      0.0534
     98  CG       -21.8400  -12.9190   20.7440 C.ar  168  PHE168     -0.0203
     99  CD1      -21.6200  -11.9910   19.7500 C.ar  168  PHE168     -0.0042
    100  CD2      -22.3050  -12.4890   21.9910 C.ar  168  PHE168     -0.0042
    101  CE1      -21.9490  -10.6290   19.9630 C.ar  168  PHE168     -0.0003
    102  CE2      -22.5880  -11.1120   22.2270 C.ar  168  PHE168     -0.0003
    103  CZ       -22.3950  -10.2090   21.2140 C.ar  168  PHE168     -0.0000
    104  N        -13.7990   -7.2810   22.6270 N.3   176  TYR176     -0.1241
    105  CA       -15.0110   -6.9330   21.8630 C.3   176  TYR176      0.1605
    106  C        -15.2610   -5.4090   21.9050 C.2   176  TYR176      0.2264
    107  O        -15.4140   -4.7630   20.8810 O.2   176  TYR176     -0.2867
    108  CB       -16.1910   -7.6470   22.5010 C.3   176  TYR176      0.0534
    109  CG       -17.5050   -7.3830   21.8200 C.ar  176  TYR176     -0.0201
    110  CD1      -17.9460   -8.1950   20.7550 C.ar  176  TYR176     -0.0009
    111  CD2      -18.3120   -6.2970   22.2110 C.ar  176  TYR176     -0.0009
    112  CE1      -19.1920   -7.9810   20.1390 C.ar  176  TYR176      0.0417
    113  CE2      -19.5460   -6.0370   21.5620 C.ar  176  TYR176      0.0417
    114  CZ       -19.9860   -6.8870   20.5440 C.ar  176  TYR176      0.1957
    115  OH       -21.1920   -6.6480   19.8930 O.3   176  TYR176     -0.2866
    116  N        -27.8970   -4.0520   10.6070 N.3   209  ALA209     -0.1245
    117  CA       -26.6210   -3.6670   11.1280 C.3   209  ALA209      0.1562
    118  C        -25.7520   -3.0570   10.0140 C.2   209  ALA209      0.2260
    119  O        -24.9880   -2.1250   10.2500 O.2   209  ALA209     -0.2867
    120  CB       -25.9710   -4.8700   11.7260 C.3   209  ALA209      0.0290
    121  N        -27.8210  -10.4000    8.7150 N.3   234  HIS234     -0.1241
    122  CA       -26.4900   -9.8600    8.7830 C.3   234  HIS234      0.1621
    123  C        -25.3880  -10.9460    8.5600 C.2   234  HIS234      0.2264
    124  O        -24.3590  -10.6590    7.9570 O.2   234  HIS234     -0.2867
    125  CB       -26.3360   -9.1390   10.1090 C.3   234  HIS234      0.0745
    126  CG       -25.0340   -8.4280   10.2780 C.ar  234  HIS234      0.0817
    127  ND1      -24.5470   -7.5260    9.3440 N.ar  234  HIS234     -0.2268
    128  CD2      -24.1310   -8.4540   11.2940 C.ar  234  HIS234      0.1154
    129  CE1      -23.4050   -7.0220    9.7910 C.ar  234  HIS234      0.1986
    130  NE2      -23.1290   -7.5660   10.9700 N.ar  234  HIS234     -0.2212
@<TRIPOS>BOND
     1    15    16    1
     2    18    17    2
     3   124   123    2
     4    16    17    1
     5    16    19    1
     6   123   122    1
     7   121   122    1
     8   122   125    1
     9    26    28    1
    10    26    25    1
    11    21    22    1
    12   127   129   ar
    13   127   126   ar
    14    19    20    1
    15   129   130   ar
    16    22    25    1
    17    22    23    1
    18   118   119    2
    19   118   117    1
    20   125   126    1
    21    25    27    1
    22   126   128   ar
    23   116   117    1
    24    82    81    2
    25   130   128   ar
    26   117   120    1
    27    23    24    2
    28     1     2    1
    29    81    80    1
    30     5     2    1
    31     5     6    1
    32     2     3    1
    33    71    70    2
    34    80    83    1
    35    80    79    1
    36    70    79   am
    37    70    69    1
    38     3     7   am
    39     3     4    2
    40    83    84    1
    41     7     8    1
    42    84    85   ar
    43    84    86   ar
    44    85    87   ar
    45    78    76    1
    46    69    72    1
    47    69    68    1
    48    47    45   ar
    49    47    49   ar
    50    86    89   ar
    51    86    88   ar
    52    44    45   ar
    53    44    42   ar
    54    87    88   ar
    55    77    76    1
    56    72    73    1
    57    76    75    2
    58    89    91   ar
    59    88    90   ar
    60    45    43   ar
    61     8    11    1
    62     8     9    1
    63    49    48   ar
    64    73    74    1
    65    91    92   ar
    66    11    12    1
    67    75    74    1
    68    42    41   ar
    69    90    92   ar
    70    10     9    2
    71    35    33    1
    72    43    41   ar
    73    43    46   ar
    74    48    46   ar
    75    41    40    1
    76    64    63    2
    77    33    34    1
    78    33    30    1
    79    12    14    1
    80    12    13    1
    81    66    65    1
    82    60    58    1
    83    63    62    1
    84    40    37    1
    85    29    30    1
    86    30    31    1
    87    36    31   am
    88    36    37    1
    89    57    58    2
    90    57    56    1
    91    58    59    1
    92    62    65    1
    93    62    61    1
    94    31    32    2
    95    37    38    1
    96    65    67    1
    97    99   101   ar
    98    99    98   ar
    99   115   114    1
   100   101   103   ar
   101    56    55    1
   102   112   114   ar
   103   112   110   ar
   104    97    98    1
   105    97    94    1
   106   114   113   ar
   107    93    94    1
   108    98   100   ar
   109    38    39    2
   110   110   109   ar
   111   107   106    2
   112    94    95    1
   113   103   102   ar
   114    55    54    1
   115   113   111   ar
   116    54    51    1
   117   109   111   ar
   118   109   108    1
   119   105   106    1
   120   105   108    1
   121   105   104    1
   122   100   102   ar
   123    95    96    2
   124    51    50    1
   125    51    52    1
   126    52    53    2
