@<TRIPOS>MOLECULE
tmp/2xucB01.pdb
 88 84 0 0 0
SMALL
GASTEIGER

@<TRIPOS>ATOM
      1  N         -9.7270   40.6540   42.8060 N.3    10  GLN10      -0.1245
      2  CA       -10.5350   39.8830   43.7140 C.3    10  GLN10       0.1566
      3  C        -12.0000   39.8140   43.2880 C.2    10  GLN10       0.2260
      4  O        -12.8690   39.5420   44.1330 O.2    10  GLN10      -0.2867
      5  CB       -10.4290   40.4740   45.1450 C.3    10  GLN10       0.0367
      6  CG        -9.1190   40.2120   45.7980 C.3    10  GLN10       0.0905
      7  CD        -8.7880   38.7200   45.8110 C.2    10  GLN10       0.2608
      8  OE1       -9.6620   37.8760   46.0490 O.2    10  GLN10      -0.2717
      9  NE2       -7.5230   38.3890   45.5660 N.am   10  GLN10      -0.0878
     10  N         -4.1950   40.7300   45.8720 N.3    33  PHE33      -0.1241
     11  CA        -3.4020   41.2700   47.0100 C.3    33  PHE33       0.1605
     12  C         -2.2020   40.3840   47.2870 C.2    33  PHE33       0.2264
     13  O         -2.2750   39.1720   47.1250 O.2    33  PHE33      -0.2867
     14  CB        -4.1970   41.1940   48.3160 C.3    33  PHE33       0.0534
     15  CG        -5.3290   42.1330   48.3880 C.ar   33  PHE33      -0.0203
     16  CD1       -5.0960   43.4880   48.6010 C.ar   33  PHE33      -0.0042
     17  CD2       -6.6490   41.6850   48.2440 C.ar   33  PHE33      -0.0042
     18  CE1       -6.1670   44.4190   48.6520 C.ar   33  PHE33      -0.0003
     19  CE2       -7.7320   42.6170   48.3260 C.ar   33  PHE33      -0.0003
     20  CZ        -7.4700   43.9590   48.5220 C.ar   33  PHE33      -0.0000
     21  N         -1.4010   38.9630   50.2430 N.3    35  ASN35      -0.1240
     22  CA        -2.1910   38.7620   51.4430 C.3    35  ASN35       0.1653
     23  C         -1.5650   37.8690   52.5100 C.2    35  ASN35       0.2266
     24  O         -2.1750   37.6870   53.5780 O.2    35  ASN35      -0.2867
     25  CB        -3.6030   38.2430   51.1120 C.3    35  ASN35       0.1155
     26  CG        -3.5790   36.9620   50.2740 C.2    35  ASN35       0.2627
     27  OD1       -2.6110   36.7140   49.5340 O.2    35  ASN35      -0.2716
     28  ND2       -4.6360   36.1240   50.4060 N.am   35  ASN35      -0.0877
     29  N         -2.5800   36.4450   46.3030 N.3    49  ASN49      -0.1240
     30  CA        -3.8210   35.9150   45.7330 C.3    49  ASN49       0.1653
     31  C         -4.4040   36.8900   44.7420 C.2    49  ASN49       0.2266
     32  O         -4.5150   38.0820   45.0230 O.2    49  ASN49      -0.2867
     33  CB        -4.8280   35.5410   46.8120 C.3    49  ASN49       0.1155
     34  CG        -6.1180   34.9270   46.2220 C.2    49  ASN49       0.2627
     35  OD1       -6.8710   35.6030   45.5280 O.2    49  ASN49      -0.2716
     36  ND2       -6.3230   33.6350   46.4360 N.am   49  ASN49      -0.0877
     37  N         -5.6300   43.2830   52.1180 N.3    96  GLY96      -0.1210
     38  CA        -7.0100   42.8890   51.8850 C.3    96  GLY96       0.1956
     39  C         -7.6660   42.1560   53.0600 C.2    96  GLY96       0.2612
     40  O         -7.1000   42.0740   54.1460 O.2    96  GLY96      -0.2717
     41  N         -8.8520   41.5990   52.8350 N.am   97  ALA97      -0.1965
     42  CA        -9.6670   41.0480   53.9210 C.3    97  ALA97       0.1728
     43  C         -9.2950   39.6490   54.3700 C.2    97  ALA97       0.2616
     44  O         -9.4650   39.3280   55.5550 O.2    97  ALA97      -0.2715
     45  CB       -11.1820   41.1390   53.5910 C.3    97  ALA97       0.0334
     46  N         -8.7290   38.8350   53.4750 N.am   98  TYR98      -0.1974
     47  CA        -8.4540   37.4360   53.7830 C.3    98  TYR98       0.1639
     48  C         -7.0280   37.0270   53.3700 C.2    98  TYR98       0.2290
     49  O         -6.6040   37.3290   52.2450 O.2    98  TYR98      -0.2864
     50  CB        -9.5350   36.5250   53.1380 C.3    98  TYR98       0.0560
     51  CG        -9.3440   35.0730   53.5030 C.ar   98  TYR98      -0.0198
     52  CD1       -8.5800   34.2450   52.6900 C.ar   98  TYR98      -0.0009
     53  CD2       -9.8920   34.5190   54.6900 C.ar   98  TYR98      -0.0009
     54  CE1       -8.3490   32.9180   53.0070 C.ar   98  TYR98       0.0417
     55  CE2       -9.6640   33.1350   55.0260 C.ar   98  TYR98       0.0417
     56  CZ        -8.8840   32.3560   54.1570 C.ar   98  TYR98       0.1957
     57  OH        -8.5960   31.0040   54.3720 O.3    98  TYR98      -0.2866
     58  N         -3.4940   48.2450   52.1280 N.3   145  ASP145     -0.1239
     59  CA        -4.8440   47.9340   52.5050 C.3   145  ASP145      0.1674
     60  C         -4.8030   46.9500   53.6740 C.2   145  ASP145      0.2266
     61  O         -5.2650   45.7950   53.5570 O.2   145  ASP145     -0.2867
     62  CB        -5.5930   47.2930   51.3260 C.3   145  ASP145      0.1410
     63  CG        -7.0730   47.0030   51.6530 C.2   145  ASP145      0.3668
     64  OD1       -7.5970   47.6050   52.6320 O.co2 145  ASP145     -0.2456
     65  OD2       -7.7000   46.1700   50.9660 O.co2 145  ASP145     -0.2456
     66  N         -6.1200   45.5260   56.9540 N.3   147  GLU147     -0.1245
     67  CA        -7.4290   45.6180   57.6180 C.3   147  GLU147      0.1567
     68  C         -7.5210   44.9270   58.9730 C.2   147  GLU147      0.2260
     69  O         -8.6080   44.8730   59.5470 O.2   147  GLU147     -0.2867
     70  CB        -8.5780   45.1750   56.6950 C.3   147  GLU147      0.0388
     71  CG        -8.6190   45.9680   55.3490 C.3   147  GLU147      0.1160
     72  CD        -9.6230   45.4590   54.3400 C.2   147  GLU147      0.3649
     73  OE1      -10.3680   44.4700   54.5730 O.co2 147  GLU147     -0.2457
     74  OE2       -9.6730   46.0790   53.2820 O.co2 147  GLU147     -0.2457
     75  N        -14.4580   50.0300   45.2720 N.3   285  TRP285     -0.1241
     76  CA       -14.3620   48.5700   45.4980 C.3   285  TRP285      0.1605
     77  C        -15.6010   47.9790   44.7890 C.2   285  TRP285      0.2264
     78  O        -16.7150   48.3360   45.1810 O.2   285  TRP285     -0.2867
     79  CB       -14.3680   48.2150   47.0110 C.3   285  TRP285      0.0550
     80  CG       -14.2760   46.6970   47.2270 C.ar  285  TRP285      0.0003
     81  CD1      -15.2920   45.8540   47.5570 C.ar  285  TRP285      0.0946
     82  CD2      -13.0990   45.8770   47.0910 C.ar  285  TRP285      0.0152
     83  NE1      -14.8290   44.5450   47.6240 N.ar  285  TRP285     -0.2442
     84  CE2      -13.4890   44.5340   47.3420 C.ar  285  TRP285      0.0810
     85  CE3      -11.7610   46.1470   46.7660 C.ar  285  TRP285      0.0012
     86  CZ2      -12.5770   43.4520   47.2730 C.ar  285  TRP285      0.0191
     87  CZ3      -10.8590   45.0930   46.6770 C.ar  285  TRP285      0.0001
     88  CH2      -11.2660   43.7590   46.9380 C.ar  285  TRP285      0.0015
@<TRIPOS>BOND
     1     1     2    1
     2     3     2    1
     3     3     4    2
     4     2     5    1
     5    31    32    2
     6    31    30    1
     7    77    78    2
     8    77    76    1
     9     5     6    1
    10    75    76    1
    11    76    79    1
    12    35    34    2
    13     9     7   am
    14    30    29    1
    15    30    33    1
    16     6     7    1
    17     7     8    2
    18    10    11    1
    19    34    36   am
    20    34    33    1
    21    87    85   ar
    22    87    88   ar
    23    85    82   ar
    24    88    86   ar
    25    11    12    1
    26    11    14    1
    27    79    80    1
    28    82    80   ar
    29    82    84   ar
    30    13    12    2
    31    80    81   ar
    32    86    84   ar
    33    84    83   ar
    34    81    83   ar
    35    17    19   ar
    36    17    15   ar
    37    14    15    1
    38    19    20   ar
    39    15    16   ar
    40    20    18   ar
    41    16    18   ar
    42    27    26    2
    43    21    22    1
    44    26    28   am
    45    26    25    1
    46    65    63   ar
    47    25    22    1
    48    62    63    1
    49    62    59    1
    50    22    23    1
    51    63    64   ar
    52    38    37    1
    53    38    39    1
    54    58    59    1
    55    49    48    2
    56    59    60    1
    57    23    24    2
    58    52    54   ar
    59    52    51   ar
    60    41    39   am
    61    41    42    1
    62    54    56   ar
    63    39    40    2
    64    50    51    1
    65    50    47    1
    66    74    72   ar
    67    48    47    1
    68    46    47    1
    69    46    43   am
    70    51    53   ar
    71    61    60    2
    72    45    42    1
    73    42    43    1
    74    56    57    1
    75    56    55   ar
    76    72    73   ar
    77    72    71    1
    78    43    44    2
    79    53    55   ar
    80    71    70    1
    81    70    67    1
    82    66    67    1
    83    67    68    1
    84    68    69    2
