@<TRIPOS>MOLECULE
tmp/2xucB00.pdb
 115 108 0 0 0
SMALL
GASTEIGER

@<TRIPOS>ATOM
      1  N        -10.0280   48.9270   42.5600 N.3     7  TYR7       -0.1241
      2  CA        -9.3020   47.7110   42.8970 C.3     7  TYR7        0.1605
      3  C         -9.6660   46.6550   41.8650 C.2     7  TYR7        0.2264
      4  O        -10.8130   46.5760   41.4120 O.2     7  TYR7       -0.2867
      5  CB        -9.6610   47.1790   44.3100 C.3     7  TYR7        0.0534
      6  CG        -8.9240   47.9310   45.3770 C.ar    7  TYR7       -0.0201
      7  CD1       -9.3320   49.2410   45.7570 C.ar    7  TYR7       -0.0009
      8  CD2       -7.8280   47.3760   46.0160 C.ar    7  TYR7       -0.0009
      9  CE1       -8.6020   49.9920   46.6710 C.ar    7  TYR7        0.0417
     10  CE2       -7.1040   48.1110   46.9690 C.ar    7  TYR7        0.0417
     11  CZ        -7.5160   49.4280   47.3050 C.ar    7  TYR7        0.1957
     12  OH        -6.8180   50.1940   48.2660 O.3     7  TYR7       -0.2866
     13  N         -4.1950   40.7300   45.8720 N.3    33  PHE33      -0.1241
     14  CA        -3.4020   41.2700   47.0100 C.3    33  PHE33       0.1605
     15  C         -2.2020   40.3840   47.2870 C.2    33  PHE33       0.2264
     16  O         -2.2750   39.1720   47.1250 O.2    33  PHE33      -0.2867
     17  CB        -4.1970   41.1940   48.3160 C.3    33  PHE33       0.0534
     18  CG        -5.3290   42.1330   48.3880 C.ar   33  PHE33      -0.0203
     19  CD1       -5.0960   43.4880   48.6010 C.ar   33  PHE33      -0.0042
     20  CD2       -6.6490   41.6850   48.2440 C.ar   33  PHE33      -0.0042
     21  CE1       -6.1670   44.4190   48.6520 C.ar   33  PHE33      -0.0003
     22  CE2       -7.7320   42.6170   48.3260 C.ar   33  PHE33      -0.0003
     23  CZ        -7.4700   43.9590   48.5220 C.ar   33  PHE33      -0.0000
     24  N         -8.8520   41.5990   52.8350 N.3    97  ALA97      -0.1245
     25  CA        -9.6670   41.0480   53.9210 C.3    97  ALA97       0.1562
     26  C         -9.2950   39.6490   54.3700 C.2    97  ALA97       0.2260
     27  O         -9.4650   39.3280   55.5550 O.2    97  ALA97      -0.2867
     28  CB       -11.1820   41.1390   53.5910 C.3    97  ALA97       0.0290
     29  N         -3.4940   48.2450   52.1280 N.3   145  ASP145     -0.1239
     30  CA        -4.8440   47.9340   52.5050 C.3   145  ASP145      0.1674
     31  C         -4.8030   46.9500   53.6740 C.2   145  ASP145      0.2266
     32  O         -5.2650   45.7950   53.5570 O.2   145  ASP145     -0.2867
     33  CB        -5.5930   47.2930   51.3260 C.3   145  ASP145      0.1410
     34  CG        -7.0730   47.0030   51.6530 C.2   145  ASP145      0.3668
     35  OD1       -7.5970   47.6050   52.6320 O.co2 145  ASP145     -0.2456
     36  OD2       -7.7000   46.1700   50.9660 O.co2 145  ASP145     -0.2456
     37  N         -6.1200   45.5260   56.9540 N.3   147  GLU147     -0.1245
     38  CA        -7.4290   45.6180   57.6180 C.3   147  GLU147      0.1567
     39  C         -7.5210   44.9270   58.9730 C.2   147  GLU147      0.2260
     40  O         -8.6080   44.8730   59.5470 O.2   147  GLU147     -0.2867
     41  CB        -8.5780   45.1750   56.6950 C.3   147  GLU147      0.0388
     42  CG        -8.6190   45.9680   55.3490 C.3   147  GLU147      0.1160
     43  CD        -9.6230   45.4590   54.3400 C.2   147  GLU147      0.3649
     44  OE1      -10.3680   44.4700   54.5730 O.co2 147  GLU147     -0.2457
     45  OE2       -9.6730   46.0790   53.2820 O.co2 147  GLU147     -0.2457
     46  N         -5.3630   52.5270   52.3870 N.3   178  ALA178     -0.1245
     47  CA        -6.8000   52.3210   52.3540 C.3   178  ALA178      0.1562
     48  C         -7.3980   52.1170   53.7330 C.2   178  ALA178      0.2260
     49  O         -7.9250   51.0380   54.0040 O.2   178  ALA178     -0.2867
     50  CB        -7.1550   51.0830   51.4530 C.3   178  ALA178      0.0290
     51  N        -10.0890   52.4510   56.8860 N.3   180  GLN180     -0.1245
     52  CA       -11.4980   52.5440   57.0880 C.3   180  GLN180      0.1566
     53  C        -11.8270   53.8720   57.7660 C.2   180  GLN180      0.2260
     54  O        -10.9250   54.6150   58.1560 O.2   180  GLN180     -0.2867
     55  CB       -11.9580   51.3190   57.8750 C.3   180  GLN180      0.0367
     56  CG       -11.8740   50.0590   56.9890 C.3   180  GLN180      0.0905
     57  CD       -12.1820   48.7390   57.7110 C.2   180  GLN180      0.2608
     58  OE1      -11.4030   48.2800   58.5710 O.2   180  GLN180     -0.2717
     59  NE2      -13.2920   48.1080   57.3370 N.am  180  GLN180     -0.0878
     60  N        -12.0410   53.9680   52.9610 N.3   203  GLN203     -0.1245
     61  CA       -13.1550   53.1170   52.6040 C.3   203  GLN203      0.1566
     62  C        -14.3370   53.6070   53.4150 C.2   203  GLN203      0.2260
     63  O        -14.3000   53.5680   54.6600 O.2   203  GLN203     -0.2867
     64  CB       -12.8340   51.6810   52.9820 C.3   203  GLN203      0.0367
     65  CG       -11.4180   51.2240   52.5500 C.3   203  GLN203      0.0905
     66  CD       -11.1540   49.7870   52.9130 C.2   203  GLN203      0.2608
     67  OE1      -12.0310   48.9850   52.7910 O.2   203  GLN203     -0.2717
     68  NE2       -9.9080   49.4500   53.3310 N.am  203  GLN203     -0.0878
     69  N        -17.4120   52.5160   53.3800 N.3   205  TYR205     -0.1227
     70  CA       -18.4310   51.4770   53.4030 C.3   205  TYR205      0.1736
     71  C        -18.0160   50.4250   54.4030 C.2   205  TYR205      0.2595
     72  O        -16.7770   50.2270   54.6760 O.2   205  TYR205     -0.2718
     73  CB       -18.5270   50.8200   52.0430 C.3   205  TYR205      0.0548
     74  CG       -17.1930   50.5460   51.4330 C.ar  205  TYR205     -0.0200
     75  CD1      -16.5270   51.5550   50.7020 C.ar  205  TYR205     -0.0009
     76  CD2      -16.6020   49.2980   51.5400 C.ar  205  TYR205     -0.0009
     77  CE1      -15.2950   51.3420   50.1430 C.ar  205  TYR205      0.0417
     78  CE2      -15.3530   49.0430   50.9500 C.ar  205  TYR205      0.0417
     79  CZ       -14.7030   50.0760   50.2490 C.ar  205  TYR205      0.1957
     80  OH       -13.4650   49.8680   49.6750 O.3   205  TYR205     -0.2866
     81  N        -19.0490   49.7230   54.8930 N.am  206  ASN206     -0.1974
     82  CA       -18.9470   48.5980   55.8510 C.3   206  ASN206      0.1688
     83  C        -18.8070   49.0300   57.3210 C.2   206  ASN206      0.2292
     84  O        -18.8420   48.1850   58.2070 O.2   206  ASN206     -0.2864
     85  CB       -17.8250   47.6360   55.4640 C.3   206  ASN206      0.1181
     86  CG       -18.1650   46.8380   54.2300 C.2   206  ASN206      0.2629
     87  OD1      -19.3450   46.6960   53.8720 O.2   206  ASN206     -0.2716
     88  ND2      -17.1630   46.2930   53.5950 N.am  206  ASN206     -0.0877
     89  N        -21.1490   44.8940   46.4210 N.3   252  ALA252     -0.1245
     90  CA       -19.6910   45.0200   46.5440 C.3   252  ALA252      0.1562
     91  C        -19.2590   45.1740   48.0030 C.2   252  ALA252      0.2260
     92  O        -18.1190   44.9080   48.3560 O.2   252  ALA252     -0.2867
     93  CB       -19.2000   46.2340   45.7540 C.3   252  ALA252      0.0290
     94  N        -12.4650   56.3970   45.0570 N.3   283  MET283     -0.1245
     95  CA       -11.8870   55.0430   44.9310 C.3   283  MET283      0.1570
     96  C        -13.0290   54.0800   44.9370 C.2   283  MET283      0.2261
     97  O        -14.0050   54.2730   45.6590 O.2   283  MET283     -0.2867
     98  CB       -10.9110   54.7080   46.0740 C.3   283  MET283      0.0387
     99  CG       -10.3780   53.2730   46.0510 C.3   283  MET283      0.0595
    100  SD       -11.5940   52.1460   46.8410 S.3   283  MET283     -0.1393
    101  CE       -11.0070   52.2900   48.5280 C.3   283  MET283      0.0692
    102  N        -14.4580   50.0300   45.2720 N.3   285  TRP285     -0.1241
    103  CA       -14.3620   48.5700   45.4980 C.3   285  TRP285      0.1605
    104  C        -15.6010   47.9790   44.7890 C.2   285  TRP285      0.2264
    105  O        -16.7150   48.3360   45.1810 O.2   285  TRP285     -0.2867
    106  CB       -14.3680   48.2150   47.0110 C.3   285  TRP285      0.0550
    107  CG       -14.2760   46.6970   47.2270 C.ar  285  TRP285      0.0003
    108  CD1      -15.2920   45.8540   47.5570 C.ar  285  TRP285      0.0946
    109  CD2      -13.0990   45.8770   47.0910 C.ar  285  TRP285      0.0152
    110  NE1      -14.8290   44.5450   47.6240 N.ar  285  TRP285     -0.2442
    111  CE2      -13.4890   44.5340   47.3420 C.ar  285  TRP285      0.0810
    112  CE3      -11.7610   46.1470   46.7660 C.ar  285  TRP285      0.0012
    113  CZ2      -12.5770   43.4520   47.2730 C.ar  285  TRP285      0.0191
    114  CZ3      -10.8590   45.0930   46.6770 C.ar  285  TRP285      0.0001
    115  CH2      -11.2660   43.7590   46.9380 C.ar  285  TRP285      0.0015
@<TRIPOS>BOND
     1     4     3    2
     2     3     2    1
     3     1     2    1
     4     2     5    1
     5     5     6    1
     6   104   105    2
     7   104   103    1
     8    95    96    1
     9    95    94    1
    10    95    98    1
    11    96    97    2
    12   102   103    1
    13     6     7   ar
    14     6     8   ar
    15   103   106    1
    16    93    90    1
    17     7     9   ar
    18    13    14    1
    19     8    10   ar
    20    99    98    1
    21    99   100    1
    22    89    90    1
    23    90    91    1
    24     9    11   ar
    25   114   112   ar
    26   114   115   ar
    27   112   109   ar
    28   100   101    1
    29   115   113   ar
    30    10    11   ar
    31    14    15    1
    32    14    17    1
    33   106   107    1
    34   109   107   ar
    35   109   111   ar
    36    16    15    2
    37   107   108   ar
    38   113   111   ar
    39    11    12    1
    40   111   110   ar
    41   108   110   ar
    42    91    92    2
    43    20    22   ar
    44    20    18   ar
    45    17    18    1
    46    22    23   ar
    47    18    19   ar
    48    23    21   ar
    49    19    21   ar
    50    80    79    1
    51    77    79   ar
    52    77    75   ar
    53    79    78   ar
    54    75    74   ar
    55    78    76   ar
    56    36    34   ar
    57    33    34    1
    58    33    30    1
    59    74    76   ar
    60    74    73    1
    61    50    47    1
    62    34    35   ar
    63    73    70    1
    64    29    30    1
    65    47    46    1
    66    47    48    1
    67    30    31    1
    68    65    66    1
    69    65    64    1
    70    61    60    1
    71    61    64    1
    72    61    62    1
    73    67    66    2
    74    24    25    1
    75    66    68   am
    76    45    43   ar
    77    69    70    1
    78    70    71    1
    79    62    63    2
    80    32    31    2
    81    28    25    1
    82    88    86   am
    83    48    49    2
    84    87    86    2
    85    25    26    1
    86    86    85    1
    87    43    44   ar
    88    43    42    1
    89    26    27    2
    90    71    72    2
    91    71    81   am
    92    81    82    1
    93    42    41    1
    94    85    82    1
    95    82    83    1
    96    41    38    1
    97    51    52    1
    98    37    38    1
    99    56    57    1
   100    56    55    1
   101    52    53    1
   102    52    55    1
   103    83    84    2
   104    59    57   am
   105    38    39    1
   106    57    58    2
   107    53    54    2
   108    39    40    2
