@<TRIPOS>MOLECULE
tmp/2xuwA01.pdb
 91 90 0 0 0
SMALL
GASTEIGER

@<TRIPOS>ATOM
      1  N        -11.9490  -14.4850    6.8790 N.3    85  PRO85      -0.2102
      2  CA       -13.2710  -14.3830    7.5040 C.3    85  PRO85       0.1504
      3  C        -13.5510  -12.9780    8.0500 C.2    85  PRO85       0.2575
      4  O        -14.6490  -12.7230    8.5430 O.2    85  PRO85      -0.2718
      5  CB       -13.1990  -15.4150    8.6400 C.3    85  PRO85       0.0282
      6  CG       -11.7410  -15.4130    9.0420 C.3    85  PRO85       0.0208
      7  CD       -10.9600  -15.1350    7.7590 C.3    85  PRO85       0.0893
      8  N        -12.5840  -12.0790    7.9400 N.am   86  PHE86      -0.1977
      9  CA       -12.7420  -10.7230    8.4710 C.3    86  PHE86       0.1639
     10  C        -12.9120   -9.6910    7.3600 C.2    86  PHE86       0.2290
     11  O        -13.1780   -8.5180    7.6240 O.2    86  PHE86      -0.2864
     12  CB       -11.5270  -10.3480    9.3420 C.3    86  PHE86       0.0560
     13  CG       -11.1680  -11.3930   10.3620 C.ar   86  PHE86      -0.0200
     14  CD1      -11.9470  -11.5660   11.4910 C.ar   86  PHE86      -0.0042
     15  CD2      -10.0570  -12.2040   10.1860 C.ar   86  PHE86      -0.0042
     16  CE1      -11.6250  -12.5300   12.4410 C.ar   86  PHE86      -0.0003
     17  CE2       -9.7250  -13.1770   11.1280 C.ar   86  PHE86      -0.0003
     18  CZ       -10.5140  -13.3340   12.2620 C.ar   86  PHE86      -0.0000
     19  N        -14.4680   -7.5490    4.4290 N.3    88  GLU88      -0.1245
     20  CA       -15.7790   -7.0420    4.0660 C.3    88  GLU88       0.1567
     21  C        -15.7040   -6.4010    2.6970 C.2    88  GLU88       0.2260
     22  O        -14.8820   -5.5060    2.4670 O.2    88  GLU88      -0.2867
     23  CB       -16.2620   -6.0070    5.0860 C.3    88  GLU88       0.0388
     24  CG       -16.6030   -6.6030    6.4240 C.3    88  GLU88       0.1160
     25  CD       -17.3310   -5.6350    7.3310 C.2    88  GLU88       0.3649
     26  OE1      -17.6790   -4.5250    6.8710 O.co2  88  GLU88      -0.2457
     27  OE2      -17.5550   -5.9930    8.5040 O.co2  88  GLU88      -0.2457
     28  N        -19.2440  -15.3210    4.8780 N.3   114  HIS114     -0.1226
     29  CA       -18.8710  -15.4070    6.2800 C.3   114  HIS114      0.1752
     30  C        -18.5230  -14.0370    6.8340 C.2   114  HIS114      0.2596
     31  O        -17.3650  -13.6350    6.8460 O.2   114  HIS114     -0.2718
     32  CB       -17.7080  -16.3610    6.5420 C.3   114  HIS114      0.0759
     33  CG       -17.4700  -16.5860    8.0030 C.ar  114  HIS114      0.0818
     34  ND1      -16.7530  -15.7080    8.7880 N.ar  114  HIS114     -0.2268
     35  CD2      -17.9100  -17.5600    8.8330 C.ar  114  HIS114      0.1154
     36  CE1      -16.7510  -16.1400   10.0380 C.ar  114  HIS114      0.1986
     37  NE2      -17.4460  -17.2620   10.0910 N.ar  114  HIS114     -0.2212
     38  N        -19.5380  -13.3220    7.2900 N.am  115  LEU115     -0.1966
     39  CA       -19.3280  -12.0520    7.9670 C.3   115  LEU115      0.1728
     40  C        -20.1620  -12.0680    9.2270 C.2   115  LEU115      0.2616
     41  O        -21.3900  -12.1270    9.1640 O.2   115  LEU115     -0.2715
     42  CB       -19.7270  -10.8840    7.0720 C.3   115  LEU115      0.0311
     43  CG       -18.6380  -10.4480    6.0950 C.3   115  LEU115      0.0022
     44  CD1      -19.0980   -9.2660    5.2680 C.3   115  LEU115      0.0001
     45  CD2      -17.3640  -10.1060    6.8600 C.3   115  LEU115      0.0001
     46  N        -19.4830  -12.0420   10.3680 N.am  116  HIS116     -0.1973
     47  CA       -20.1280  -12.1810   11.6600 C.3   116  HIS116      0.1656
     48  C        -21.3680  -11.3100   11.7720 C.2   116  HIS116      0.2291
     49  O        -21.3040  -10.0910   11.5440 O.2   116  HIS116     -0.2864
     50  CB       -19.1480  -11.8420   12.7850 C.3   116  HIS116      0.0771
     51  CG       -19.7490  -11.9240   14.1550 C.ar  116  HIS116      0.0820
     52  ND1      -20.2860  -13.0850   14.6670 N.ar  116  HIS116     -0.2267
     53  CD2      -19.8850  -10.9890   15.1250 C.ar  116  HIS116      0.1154
     54  CE1      -20.7210  -12.8640   15.8950 C.ar  116  HIS116      0.1986
     55  NE2      -20.4890  -11.5990   16.1960 N.ar  116  HIS116     -0.2212
     56  N        -17.7660  -14.3520   20.4880 N.3   343  PHE343     -0.1241
     57  CA       -16.7860  -13.9030   19.5080 C.3   343  PHE343      0.1605
     58  C        -16.4230  -12.4270   19.6360 C.2   343  PHE343      0.2264
     59  O        -17.2860  -11.5720   19.8430 O.2   343  PHE343     -0.2867
     60  CB       -17.3400  -14.1700   18.1060 C.3   343  PHE343      0.0534
     61  CG       -16.4800  -13.6490   16.9930 C.ar  343  PHE343     -0.0203
     62  CD1      -15.2910  -14.2800   16.6650 C.ar  343  PHE343     -0.0042
     63  CD2      -16.8860  -12.5530   16.2410 C.ar  343  PHE343     -0.0042
     64  CE1      -14.5100  -13.8220   15.6220 C.ar  343  PHE343     -0.0003
     65  CE2      -16.1100  -12.0890   15.1990 C.ar  343  PHE343     -0.0003
     66  CZ       -14.9140  -12.7270   14.8860 C.ar  343  PHE343     -0.0000
     67  N        -13.6480  -10.1490   17.2220 N.3   345  HIS345     -0.1241
     68  CA       -12.6890  -10.2820   16.1270 C.3   345  HIS345      0.1621
     69  C        -11.3050   -9.7770   16.5090 C.2   345  HIS345      0.2264
     70  O        -10.3270  -10.0730   15.8290 O.2   345  HIS345     -0.2867
     71  CB       -13.1730   -9.5480   14.8740 C.3   345  HIS345      0.0745
     72  CG       -13.1450   -8.0580   15.0000 C.ar  345  HIS345      0.0817
     73  ND1      -14.0880   -7.3560   15.7160 N.ar  345  HIS345     -0.2268
     74  CD2      -12.2920   -7.1350   14.4960 C.ar  345  HIS345      0.1154
     75  CE1      -13.8190   -6.0650   15.6490 C.ar  345  HIS345      0.1986
     76  NE2      -12.7360   -5.9040   14.9130 N.ar  345  HIS345     -0.2212
     77  N        -10.9410  -18.6680   12.0030 N.3   419  VAL419     -0.1245
     78  CA       -12.0070  -18.8160   12.9880 C.3   419  VAL419      0.1561
     79  C        -12.5090  -20.2550   13.1030 C.2   419  VAL419      0.2260
     80  O        -12.2330  -21.0950   12.2470 O.2   419  VAL419     -0.2867
     81  CB       -13.1860  -17.8670   12.6860 C.3   419  VAL419      0.0252
     82  CG1      -12.7150  -16.4110   12.7700 C.3   419  VAL419      0.0019
     83  CG2      -13.8000  -18.1590   11.3010 C.3   419  VAL419      0.0019
     84  N        -18.3910  -18.3850   18.2260 N.3   433  MET433     -0.1245
     85  CA       -17.2580  -18.3630   17.2970 C.3   433  MET433      0.1570
     86  C        -16.0370  -17.8490   18.0490 C.2   433  MET433      0.2261
     87  O        -16.1610  -17.0230   18.9580 O.2   433  MET433     -0.2867
     88  CB       -17.5670  -17.4430   16.1020 C.3   433  MET433      0.0387
     89  CG       -16.3810  -17.2220   15.1420 C.3   433  MET433      0.0595
     90  SD       -16.8610  -16.7520   13.4750 S.3   433  MET433     -0.1393
     91  CE       -17.6260  -15.1540   13.7760 C.3   433  MET433      0.0692
@<TRIPOS>BOND
     1    22    21    2
     2    21    20    1
     3    20    19    1
     4    20    23    1
     5    28    29    1
     6    23    24    1
     7    44    43    1
     8    43    45    1
     9    43    42    1
    10    29    32    1
    11    29    30    1
    12    24    25    1
    13    32    33    1
    14    30    31    2
    15    30    38   am
    16    26    25   ar
    17     1     2    1
    18     1     7    1
    19    42    39    1
    20    38    39    1
    21    25    27   ar
    22    10    11    2
    23    10     9    1
    24     2     3    1
    25     2     5    1
    26     7     6    1
    27     8     3   am
    28     8     9    1
    29    39    40    1
    30    33    34   ar
    31    33    35   ar
    32     3     4    2
    33     9    12    1
    34     5     6    1
    35    34    36   ar
    36    35    37   ar
    37    41    40    2
    38    40    46   am
    39    12    13    1
    40    36    37   ar
    41    15    13   ar
    42    15    17   ar
    43    13    14   ar
    44    46    47    1
    45    17    18   ar
    46    83    81    1
    47    14    16   ar
    48    49    48    2
    49    47    48    1
    50    47    50    1
    51    77    78    1
    52    80    79    2
    53    18    16   ar
    54    81    82    1
    55    81    78    1
    56    50    51    1
    57    78    79    1
    58    90    91    1
    59    90    89    1
    60    51    52   ar
    61    51    53   ar
    62    74    76   ar
    63    74    72   ar
    64    52    54   ar
    65    71    72    1
    66    71    68    1
    67    66    65   ar
    68    66    64   ar
    69    76    75   ar
    70    72    73   ar
    71    53    55   ar
    72    89    88    1
    73    65    63   ar
    74    64    62   ar
    75    75    73   ar
    76    70    69    2
    77    54    55   ar
    78    88    85    1
    79    68    69    1
    80    68    67    1
    81    63    61   ar
    82    62    61   ar
    83    61    60    1
    84    85    86    1
    85    85    84    1
    86    86    87    2
    87    60    57    1
    88    57    58    1
    89    57    56    1
    90    58    59    2
