@<TRIPOS>MOLECULE
tmp/2xuwA00.pdb
 87 86 0 0 0
SMALL
GASTEIGER

@<TRIPOS>ATOM
      1  N         -8.4040  -26.2190    2.3380 N.3    77  PRO77      -0.2102
      2  CA        -7.2120  -25.9240    3.1480 C.3    77  PRO77       0.1504
      3  C         -6.3160  -24.9730    2.3820 C.2    77  PRO77       0.2576
      4  O         -5.3150  -25.3640    1.7910 O.2    77  PRO77      -0.2718
      5  CB        -6.5730  -27.3040    3.3450 C.3    77  PRO77       0.0282
      6  CG        -7.0080  -28.1030    2.1590 C.3    77  PRO77       0.0208
      7  CD        -8.3480  -27.5550    1.7070 C.3    77  PRO77       0.0893
      8  N         -6.7260  -23.7100    2.3530 N.am   78  ILE78      -0.1966
      9  CA        -5.9380  -22.6800    1.6970 C.3    78  ILE78       0.1727
     10  C         -5.6090  -21.6150    2.7340 C.2    78  ILE78       0.2616
     11  O         -5.8910  -21.7900    3.9190 O.2    78  ILE78      -0.2715
     12  CB        -6.6700  -22.0630    0.4870 C.3    78  ILE78       0.0290
     13  CG1       -8.0200  -21.4710    0.9090 C.3    78  ILE78       0.0022
     14  CG2       -6.8730  -23.1190   -0.6120 C.3    78  ILE78       0.0023
     15  CD1       -8.7260  -20.7140   -0.2230 C.3    78  ILE78       0.0001
     16  N         -4.9930  -20.5270    2.3090 N.am   79  SER79      -0.1950
     17  CA        -4.5530  -19.5150    3.2650 C.3    79  SER79       0.1924
     18  C         -5.7150  -18.6800    3.7620 C.2    79  SER79       0.2314
     19  O         -6.5960  -18.3310    2.9770 O.2    79  SER79      -0.2863
     20  CB        -3.5230  -18.6020    2.6170 C.3    79  SER79       0.2116
     21  OG        -3.2750  -17.4740    3.4270 O.3    79  SER79      -0.2180
     22  N         -6.4740  -15.5530    1.9790 N.3    82  VAL82      -0.1245
     23  CA        -7.3910  -15.6050    0.8470 C.3    82  VAL82       0.1561
     24  C         -8.8050  -15.8650    1.3420 C.2    82  VAL82       0.2260
     25  O         -9.7150  -15.0920    1.0470 O.2    82  VAL82      -0.2867
     26  CB        -6.9800  -16.7050   -0.1670 C.3    82  VAL82       0.0252
     27  CG1       -7.9960  -16.8030   -1.3030 C.3    82  VAL82       0.0019
     28  CG2       -5.5920  -16.4110   -0.7160 C.3    82  VAL82       0.0019
     29  N         -7.8550  -15.2510   -5.2920 N.3    98  GLU98      -0.1231
     30  CA        -6.9810  -16.0660   -6.1280 C.3    98  GLU98       0.1699
     31  C         -6.2040  -17.0580   -5.2760 C.2    98  GLU98       0.2592
     32  O         -5.5420  -16.6820   -4.3080 O.2    98  GLU98      -0.2718
     33  CB        -6.0170  -15.2070   -6.9510 C.3    98  GLU98       0.0402
     34  CG        -5.0530  -16.0600   -7.8070 C.3    98  GLU98       0.1161
     35  CD        -4.4400  -15.2920   -8.9720 C.2    98  GLU98       0.3649
     36  OE1       -4.8970  -14.1640   -9.2610 O.co2  98  GLU98      -0.2457
     37  OE2       -3.5090  -15.8240   -9.6110 O.co2  98  GLU98      -0.2457
     38  N         -6.2990  -18.3330   -5.6290 N.am   99  PHE99      -0.1962
     39  CA        -5.5550  -19.3580   -4.9140 C.3    99  PHE99       0.1771
     40  C         -5.3100  -20.5310   -5.8390 C.2    99  PHE99       0.2620
     41  O         -5.9190  -20.6340   -6.9000 O.2    99  PHE99      -0.2715
     42  CB        -6.3250  -19.8340   -3.6720 C.3    99  PHE99       0.0574
     43  CG        -7.6570  -20.4780   -3.9720 C.ar   99  PHE99      -0.0200
     44  CD1       -8.8100  -19.7150   -4.0480 C.ar   99  PHE99      -0.0042
     45  CD2       -7.7610  -21.8560   -4.1450 C.ar   99  PHE99      -0.0042
     46  CE1      -10.0440  -20.3040   -4.3020 C.ar   99  PHE99      -0.0003
     47  CE2       -8.9920  -22.4520   -4.4110 C.ar   99  PHE99      -0.0003
     48  CZ       -10.1330  -21.6790   -4.4850 C.ar   99  PHE99      -0.0000
     49  N         -4.4070  -21.4090   -5.4170 N.am  100  THR100     -0.1937
     50  CA        -4.1450  -22.6640   -6.1070 C.3   100  THR100      0.2028
     51  C         -4.8410  -23.7910   -5.3560 C.2   100  THR100      0.2642
     52  O         -4.7850  -23.8430   -4.1250 O.2   100  THR100     -0.2714
     53  CB        -2.6330  -22.9600   -6.1630 C.3   100  THR100      0.1808
     54  OG1       -1.9580  -21.8670   -6.7980 O.3   100  THR100     -0.2208
     55  CG2       -2.3480  -24.2580   -6.9340 C.3   100  THR100      0.0379
     56  N         -5.5050  -24.6870   -6.0800 N.am  101  VAL101     -0.1963
     57  CA        -6.0870  -25.8540   -5.4280 C.3   101  VAL101      0.1712
     58  C         -4.9730  -26.7720   -4.9150 C.2   101  VAL101      0.2458
     59  O         -4.0660  -27.1320   -5.6620 O.2   101  VAL101     -0.2730
     60  CB        -7.0370  -26.6160   -6.3780 C.3   101  VAL101      0.0289
     61  CG1       -7.6570  -27.8080   -5.6700 C.3   101  VAL101      0.0023
     62  CG2       -8.1330  -25.6800   -6.9000 C.3   101  VAL101      0.0023
     63  N         -5.0310  -27.1450   -3.6280 N.am  102  PRO102     -0.2716
     64  CA        -3.9860  -28.0060   -3.0580 C.3   102  PRO102      0.1536
     65  C         -3.8520  -29.3290   -3.8040 C.2   102  PRO102      0.2598
     66  O         -4.8320  -29.8650   -4.3130 O.2   102  PRO102     -0.2715
     67  CB        -4.4780  -28.2450   -1.6240 C.3   102  PRO102      0.0310
     68  CG        -5.2410  -27.0040   -1.2950 C.3   102  PRO102      0.0237
     69  CD        -5.9520  -26.6380   -2.5920 C.3   102  PRO102      0.0939
     70  N         -2.6350  -29.8540   -3.8550 N.am  103  LYS103     -0.1978
     71  CA        -2.3730  -31.0870   -4.5850 C.3   103  LYS103      0.1596
     72  C         -3.1100  -32.2930   -4.0280 C.2   103  LYS103      0.2287
     73  O         -3.6760  -33.0830   -4.7800 O.2   103  LYS103     -0.2864
     74  CB        -0.8750  -31.3850   -4.6100 C.3   103  LYS103      0.0298
     75  CG        -0.5540  -32.7970   -5.0930 C.3   103  LYS103      0.0038
     76  CD         0.9360  -32.9680   -5.3550 C.3   103  LYS103      0.0206
     77  CE         1.3040  -34.4340   -5.5630 C.3   103  LYS103      0.1093
     78  NZ         1.5540  -35.1490   -4.2780 N.3   103  LYS103     -0.1314
     79  N         -2.0700  -23.8010    6.9720 N.3   414  GLU414     -0.1245
     80  CA        -1.6780  -22.4230    6.6420 C.3   414  GLU414      0.1567
     81  C         -1.5920  -21.4670    7.8260 C.2   414  GLU414      0.2260
     82  O         -2.4240  -21.4950    8.7240 O.2   414  GLU414     -0.2867
     83  CB        -2.5750  -21.8330    5.5560 C.3   414  GLU414      0.0388
     84  CG        -2.2500  -22.3510    4.1640 C.3   414  GLU414      0.1160
     85  CD        -0.8860  -21.8930    3.6710 C.2   414  GLU414      0.3649
     86  OE1       -0.4900  -20.7490    3.9690 O.co2 414  GLU414     -0.2457
     87  OE2       -0.2140  -22.6820    2.9820 O.co2 414  GLU414     -0.2457
@<TRIPOS>BOND
     1    37    35   ar
     2    36    35   ar
     3    35    34    1
     4    34    33    1
     5    33    30    1
     6    55    53    1
     7    41    40    2
     8    62    60    1
     9    54    53    1
    10    60    61    1
    11    60    57    1
    12    53    50    1
    13    30    29    1
    14    30    31    1
    15    50    49    1
    16    50    51    1
    17    56    57    1
    18    56    51   am
    19    40    49   am
    20    40    39    1
    21    59    58    2
    22    38    31   am
    23    38    39    1
    24    77    76    1
    25    77    78    1
    26    57    58    1
    27    51    52    2
    28    76    75    1
    29    31    32    2
    30    75    74    1
    31    58    63   am
    32    39    42    1
    33    73    72    2
    34    74    71    1
    35    71    72    1
    36    71    70    1
    37    48    47   ar
    38    48    46   ar
    39    47    45   ar
    40    66    65    2
    41    46    44   ar
    42    45    43   ar
    43    44    43   ar
    44    43    42    1
    45    70    65   am
    46    65    64    1
    47    63    64    1
    48    63    69    1
    49    64    67    1
    50    69    68    1
    51    67    68    1
    52    27    26    1
    53    28    26    1
    54    14    12    1
    55    15    13    1
    56    26    23    1
    57    12    13    1
    58    12     9    1
    59    23    24    1
    60    23    22    1
    61    25    24    2
    62     9     8    1
    63     9    10    1
    64     7     6    1
    65     7     1    1
    66     4     3    2
    67     6     5    1
    68    16    10   am
    69    16    17    1
    70     1     2    1
    71     8     3   am
    72     3     2    1
    73    20    17    1
    74    20    21    1
    75    10    11    2
    76    19    18    2
    77    87    85   ar
    78     2     5    1
    79    17    18    1
    80    85    86   ar
    81    85    84    1
    82    84    83    1
    83    83    80    1
    84    80    79    1
    85    80    81    1
    86    81    82    2
