@<TRIPOS>MOLECULE
tmp/2xuzA00.pdb
 179 171 0 0 0
SMALL
GASTEIGER

@<TRIPOS>ATOM
      1  N         -6.2820  -10.6240    4.7460 N.3    24  GLY24      -0.1225
      2  CA        -5.7980  -11.6620    5.6470 C.3    24  GLY24       0.1811
      3  C         -4.7330  -11.2410    6.6490 C.2    24  GLY24       0.2280
      4  O         -4.8040  -11.6410    7.8110 O.2    24  GLY24      -0.2866
      5  N         -1.5520   -8.6130   10.6500 N.3    27  GLU27      -0.1245
      6  CA        -0.1810   -8.1900   11.0160 C.3    27  GLU27       0.1567
      7  C          0.1710   -6.8960   10.2840 C.2    27  GLU27       0.2260
      8  O          0.6400   -5.9270   10.8950 O.2    27  GLU27      -0.2867
      9  CB         0.8520   -9.2610   10.6780 C.3    27  GLU27       0.0388
     10  CG         0.8900  -10.4890   11.6100 C.3    27  GLU27       0.1160
     11  CD        -0.2770  -11.4490   11.4290 C.2    27  GLU27       0.3649
     12  OE1       -1.0170  -11.3610   10.4080 O.co2  27  GLU27      -0.2457
     13  OE2       -0.4550  -12.3060   12.3240 O.co2  27  GLU27      -0.2457
     14  N        -11.2900  -10.8750    7.3250 N.3    66  LYS66      -0.1231
     15  CA        -9.9120  -11.3630    7.4150 C.3    66  LYS66       0.1693
     16  C         -9.6460  -12.6210    6.5730 C.2    66  LYS66       0.2591
     17  O         -8.7380  -12.6440    5.7410 O.2    66  LYS66      -0.2718
     18  CB        -9.5470  -11.6290    8.8750 C.3    66  LYS66       0.0285
     19  CG        -8.1170  -12.0940    9.0730 C.3    66  LYS66       0.0035
     20  CD        -7.8200  -12.3930   10.5170 C.3    66  LYS66       0.0206
     21  CE        -8.4740  -13.6830   10.9890 C.3    66  LYS66       0.1093
     22  NZ        -7.9420  -14.0950   12.3200 N.3    66  LYS66      -0.1314
     23  N        -10.4550  -13.6530    6.7780 N.am   67  MET67      -0.1979
     24  CA       -10.2170  -14.9560    6.1520 C.3    67  MET67       0.1605
     25  C        -10.9940  -15.1550    4.8490 C.2    67  MET67       0.2287
     26  O        -10.8710  -16.2080    4.2230 O.2    67  MET67      -0.2864
     27  CB       -10.5830  -16.0670    7.1350 C.3    67  MET67       0.0413
     28  CG        -9.9150  -15.9030    8.4950 C.3    67  MET67       0.0598
     29  SD       -10.2660  -17.2480    9.6320 S.3    67  MET67      -0.1393
     30  CE       -12.0330  -17.1990    9.6570 C.3    67  MET67       0.0692
     31  N         -1.5610  -13.2760    3.5560 N.3    85  SER85      -0.1217
     32  CA        -1.1370  -13.9520    4.7920 C.3    85  SER85       0.1889
     33  C         -0.7030  -15.3720    4.4840 C.2    85  SER85       0.2288
     34  O         -1.3160  -16.0420    3.6660 O.2    85  SER85      -0.2866
     35  CB        -2.3020  -14.0150    5.7830 C.3    85  SER85       0.2089
     36  OG        -1.9790  -14.7730    6.9410 O.3    85  SER85      -0.2183
     37  N         -1.2330  -17.6490    6.4710 N.3    87  LYS87      -0.1231
     38  CA        -2.3080  -18.4990    6.9930 C.3    87  LYS87       0.1693
     39  C         -3.3250  -18.9420    5.9230 C.2    87  LYS87       0.2592
     40  O         -4.0730  -19.9070    6.1470 O.2    87  LYS87      -0.2718
     41  CB        -3.0250  -17.7980    8.1330 C.3    87  LYS87       0.0285
     42  CG        -2.1380  -17.6410    9.3650 C.3    87  LYS87       0.0035
     43  CD        -2.8900  -16.9380   10.4670 C.3    87  LYS87       0.0206
     44  CE        -2.9810  -15.4380   10.2230 C.3    87  LYS87       0.1093
     45  NZ        -3.6310  -14.7540   11.3830 N.3    87  LYS87      -0.1314
     46  N         -3.3760  -18.2400    4.7870 N.am   88  PHE88      -0.1963
     47  CA        -4.2850  -18.6280    3.6980 C.3    88  PHE88       0.1756
     48  C         -3.8680  -19.9850    3.1060 C.2    88  PHE88       0.2461
     49  O         -2.6810  -20.2500    2.9480 O.2    88  PHE88      -0.2730
     50  CB        -4.2800  -17.6100    2.5500 C.3    88  PHE88       0.0574
     51  CG        -5.1470  -16.3820    2.7840 C.ar   88  PHE88      -0.0200
     52  CD1       -6.4720  -16.5010    3.1830 C.ar   88  PHE88      -0.0042
     53  CD2       -4.6450  -15.1220    2.5280 C.ar   88  PHE88      -0.0042
     54  CE1       -7.2690  -15.3680    3.3770 C.ar   88  PHE88      -0.0003
     55  CE2       -5.4300  -13.9830    2.7110 C.ar   88  PHE88      -0.0003
     56  CZ        -6.7480  -14.1070    3.1380 C.ar   88  PHE88      -0.0000
     57  N         -4.8420  -20.8280    2.7360 N.am   89  PRO89      -0.2727
     58  CA        -4.4840  -22.0170    1.9580 C.3    89  PRO89       0.1402
     59  C         -3.9310  -21.6180    0.5830 C.2    89  PRO89       0.2269
     60  O         -4.2440  -20.5430    0.0820 O.2    89  PRO89      -0.2865
     61  CB        -5.8190  -22.7540    1.7960 C.3    89  PRO89       0.0296
     62  CG        -6.7460  -22.1290    2.7870 C.3    89  PRO89       0.0237
     63  CD        -6.2920  -20.7420    2.9780 C.3    89  PRO89       0.0939
     64  N          2.8070  -15.1160    9.6860 N.3   107  HIS107     -0.1241
     65  CA         2.1280  -15.0710   10.9790 C.3   107  HIS107      0.1621
     66  C          3.0200  -15.6370   12.0640 C.2   107  HIS107      0.2264
     67  O          2.6030  -15.7730   13.2090 O.2   107  HIS107     -0.2867
     68  CB         0.8040  -15.8300   10.9320 C.3   107  HIS107      0.0745
     69  CG         0.9600  -17.3150   10.7960 C.ar  107  HIS107      0.0817
     70  ND1        1.4920  -17.9030    9.6700 N.ar  107  HIS107     -0.2268
     71  CD2        0.6260  -18.3310   11.6270 C.ar  107  HIS107      0.1154
     72  CE1        1.5000  -19.2160    9.8200 C.ar  107  HIS107      0.1986
     73  NE2        0.9820  -19.5050   11.0000 N.ar  107  HIS107     -0.2212
     74  N         -6.8740  -17.9590   23.2800 N.3   160  ARG160     -0.1245
     75  CA        -7.7830  -17.1400   22.5070 C.3   160  ARG160      0.1563
     76  C         -9.0060  -17.9900   22.2200 C.2   160  ARG160      0.2260
     77  O         -8.8850  -19.1690   21.8510 O.2   160  ARG160     -0.2867
     78  CB        -7.0900  -16.6330   21.2330 C.3   160  ARG160      0.0307
     79  CG        -8.0300  -16.0380   20.1760 C.3   160  ARG160      0.0489
     80  CD        -7.3220  -15.0830   19.2070 C.3   160  ARG160      0.2205
     81  NE        -6.1620  -15.6890   18.5640 N.pl3 160  ARG160     -0.0865
     82  CZ        -5.3160  -15.0360   17.7610 C.cat 160  ARG160      0.5346
     83  NH1       -5.4940  -13.7390   17.4860 N.pl3 160  ARG160      0.1354
     84  NH2       -4.2630  -15.6720   17.2490 N.pl3 160  ARG160      0.1354
     85  N        -12.2470  -18.6770   20.1170 N.3   162  ARG162     -0.1231
     86  CA       -12.8610  -18.4620   18.8070 C.3   162  ARG162      0.1694
     87  C        -13.9030  -19.5290   18.5440 C.2   162  ARG162      0.2591
     88  O        -13.6730  -20.7140   18.8230 O.2   162  ARG162     -0.2718
     89  CB       -11.8030  -18.4970   17.7100 C.3   162  ARG162      0.0321
     90  CG       -10.7310  -17.4880   17.9030 C.3   162  ARG162      0.0489
     91  CD        -9.6150  -17.6250   16.8760 C.3   162  ARG162      0.2205
     92  NE        -9.1870  -16.3060   16.4250 N.pl3 162  ARG162     -0.0865
     93  CZ        -8.0760  -16.0400   15.7480 C.cat 162  ARG162      0.5346
     94  NH1       -7.2010  -16.9980   15.4410 N.pl3 162  ARG162      0.1354
     95  NH2       -7.8380  -14.7810   15.3870 N.pl3 162  ARG162      0.1354
     96  N        -15.0380  -19.1060   17.9890 N.am  163  GLN163     -0.1979
     97  CA       -16.2130  -19.9630   17.8080 C.3   163  GLN163      0.1601
     98  C        -16.5230  -20.8370   19.0260 C.2   163  GLN163      0.2287
     99  O        -16.8350  -22.0130   18.8820 O.2   163  GLN163     -0.2864
    100  CB       -16.0660  -20.8530   16.5660 C.3   163  GLN163      0.0394
    101  CG       -15.7390  -20.1160   15.2790 C.3   163  GLN163      0.0908
    102  CD       -15.6130  -21.0510   14.0980 C.2   163  GLN163      0.2608
    103  OE1      -16.5270  -21.1620   13.2760 O.2   163  GLN163     -0.2717
    104  NE2      -14.4860  -21.7490   14.0160 N.am  163  GLN163     -0.0878
    105  N         -8.1650  -22.0150   22.1570 N.3   167  TYR167     -0.1241
    106  CA        -6.9660  -22.3130   21.3760 C.3   167  TYR167      0.1605
    107  C         -5.6770  -21.8770   22.0400 C.2   167  TYR167      0.2264
    108  O         -5.6010  -20.8180   22.6830 O.2   167  TYR167     -0.2867
    109  CB        -7.0240  -21.6320   20.0160 C.3   167  TYR167      0.0534
    110  CG        -8.1150  -22.1750   19.1690 C.ar  167  TYR167     -0.0201
    111  CD1       -7.9180  -23.3160   18.3860 C.ar  167  TYR167     -0.0009
    112  CD2       -9.3610  -21.5870   19.1820 C.ar  167  TYR167     -0.0009
    113  CE1       -8.9240  -23.8230   17.6190 C.ar  167  TYR167      0.0417
    114  CE2      -10.3820  -22.0830   18.4220 C.ar  167  TYR167      0.0417
    115  CZ       -10.1620  -23.2040   17.6450 C.ar  167  TYR167      0.1957
    116  OH       -11.1880  -23.6960   16.9040 O.3   167  TYR167     -0.2866
    117  N         -1.2040  -21.8240   21.0630 N.3   169  TYR169     -0.1241
    118  CA        -0.3630  -21.5520   19.9060 C.3   169  TYR169      0.1605
    119  C          1.0570  -22.0050   20.1800 C.2   169  TYR169      0.2264
    120  O          1.4400  -22.1490   21.3400 O.2   169  TYR169     -0.2867
    121  CB        -0.4090  -20.0440   19.5810 C.3   169  TYR169      0.0534
    122  CG        -1.8110  -19.5830   19.3020 C.ar  169  TYR169     -0.0201
    123  CD1       -2.6810  -19.2510   20.3420 C.ar  169  TYR169     -0.0009
    124  CD2       -2.2960  -19.5380   18.0050 C.ar  169  TYR169     -0.0009
    125  CE1       -4.0020  -18.8560   20.0800 C.ar  169  TYR169      0.0417
    126  CE2       -3.5970  -19.1380   17.7400 C.ar  169  TYR169      0.0417
    127  CZ        -4.4400  -18.8120   18.7840 C.ar  169  TYR169      0.1957
    128  OH        -5.7330  -18.4320   18.4980 O.3   169  TYR169     -0.2866
    129  N          4.6090  -18.1340   18.0490 N.3   173  VAL173     -0.1231
    130  CA         3.3960  -17.6350   17.4020 C.3   173  VAL173      0.1692
    131  C          2.5590  -16.8210   18.3840 C.2   173  VAL173      0.2592
    132  O          2.6320  -17.0330   19.6030 O.2   173  VAL173     -0.2718
    133  CB         2.5800  -18.8080   16.8400 C.3   173  VAL173      0.0266
    134  CG1        1.2240  -18.3420   16.2620 C.3   173  VAL173      0.0020
    135  CG2        3.3980  -19.5340   15.7790 C.3   173  VAL173      0.0020
    136  N          1.7740  -15.8860   17.8480 N.am  174  TYR174     -0.1976
    137  CA         0.8770  -15.0540   18.6460 C.3   174  TYR174      0.1639
    138  C          1.7020  -14.2670   19.6710 C.2   174  TYR174      0.2290
    139  O          2.8320  -13.8990   19.3800 O.2   174  TYR174     -0.2864
    140  CB        -0.1830  -15.9480   19.3020 C.3   174  TYR174      0.0560
    141  CG        -1.4510  -15.2690   19.7960 C.ar  174  TYR174     -0.0198
    142  CD1       -1.9550  -14.1190   19.1990 C.ar  174  TYR174     -0.0009
    143  CD2       -2.1740  -15.8330   20.8370 C.ar  174  TYR174     -0.0009
    144  CE1       -3.1200  -13.5300   19.6650 C.ar  174  TYR174      0.0417
    145  CE2       -3.3230  -15.2690   21.2950 C.ar  174  TYR174      0.0417
    146  CZ        -3.8040  -14.1230   20.7150 C.ar  174  TYR174      0.1957
    147  OH        -4.9710  -13.5860   21.1880 O.3   174  TYR174     -0.2866
    148  N          0.6660  -25.5810   15.3220 N.3   196  ALA196     -0.1231
    149  CA        -0.0690  -24.4220   14.8440 C.3   196  ALA196      0.1694
    150  C         -1.1140  -24.0790   15.8980 C.2   196  ALA196      0.2591
    151  O         -1.1390  -24.6900   16.9700 O.2   196  ALA196     -0.2718
    152  CB        -0.7220  -24.7310   13.5190 C.3   196  ALA196      0.0304
    153  N         -1.9640  -23.1020   15.6060 N.am  197  GLN197     -0.1979
    154  CA        -3.1460  -22.8720   16.4190 C.3   197  GLN197      0.1601
    155  C         -3.8160  -24.2120   16.6520 C.2   197  GLN197      0.2287
    156  O         -4.2020  -24.8870   15.7010 O.2   197  GLN197     -0.2864
    157  CB        -4.1350  -21.9530   15.7150 C.3   197  GLN197      0.0394
    158  CG        -5.4430  -21.7520   16.4640 C.3   197  GLN197      0.0908
    159  CD        -6.3360  -20.7520   15.7820 C.2   197  GLN197      0.2608
    160  OE1       -6.5200  -19.6210   16.2630 O.2   197  GLN197     -0.2717
    161  NE2       -6.8710  -21.1370   14.6350 N.am  197  GLN197     -0.0878
    162  N        -15.4290  -12.7550   16.6710 N.3   221  GLU221     -0.1245
    163  CA       -14.9480  -14.1070   16.3760 C.3   221  GLU221      0.1567
    164  C        -15.7370  -15.2040   17.0970 C.2   221  GLU221      0.2260
    165  O        -15.3300  -16.3700   17.1010 O.2   221  GLU221     -0.2867
    166  CB       -13.4670  -14.2300   16.7560 C.3   221  GLU221      0.0388
    167  CG       -12.5470  -13.3750   15.9250 C.3   221  GLU221      0.1160
    168  CD       -11.0910  -13.5210   16.3070 C.2   221  GLU221      0.3649
    169  OE1      -10.7710  -13.9660   17.4390 O.co2 221  GLU221     -0.2457
    170  OE2      -10.2460  -13.1630   15.4710 O.co2 221  GLU221     -0.2457
    171  N         -2.7390   -9.3470   16.8840 N.3   259  GLN259     -0.1245
    172  CA        -2.2350  -10.6260   16.3380 C.3   259  GLN259      0.1566
    173  C         -0.9730  -11.2040   16.9960 C.2   259  GLN259      0.2260
    174  O         -0.6030  -12.3730   16.7520 O.2   259  GLN259     -0.2867
    175  CB        -1.9840  -10.4590   14.8490 C.3   259  GLN259      0.0367
    176  CG        -3.2090   -9.9990   14.1100 C.3   259  GLN259      0.0905
    177  CD        -4.3050  -11.0270   14.1510 C.2   259  GLN259      0.2608
    178  OE1       -4.1720  -12.0940   13.5600 O.2   259  GLN259     -0.2717
    179  NE2       -5.3980  -10.7200   14.8440 N.am  259  GLN259     -0.0878
@<TRIPOS>BOND
     1    60    59    2
     2    59    58    1
     3    61    58    1
     4    61    62    1
     5    58    57    1
     6    53    55   ar
     7    53    51   ar
     8    50    51    1
     9    50    47    1
    10    55    56   ar
    11    57    63    1
    12    57    48   am
    13    51    52   ar
    14    62    63    1
    15    49    48    2
    16    48    47    1
    17    56    54   ar
    18    52    54   ar
    19    31    32    1
    20    34    33    2
    21    47    46    1
    22    26    25    2
    23    33    32    1
    24     1     2    1
    25    46    39   am
    26    32    35    1
    27    25    24    1
    28     2     3    1
    29    17    16    2
    30    35    36    1
    31    39    40    2
    32    39    38    1
    33    24    23    1
    34    24    27    1
    35    37    38    1
    36    16    23   am
    37    16    15    1
    38     3     4    2
    39    38    41    1
    40    27    28    1
    41    14    15    1
    42    15    18    1
    43    41    42    1
    44    28    29    1
    45    18    19    1
    46    19    20    1
    47    42    43    1
    48    29    30    1
    49    70    72   ar
    50    70    69   ar
    51    64    65    1
    52    72    73   ar
    53    44    43    1
    54    44    45    1
    55     7     8    2
    56     7     6    1
    57    12    11   ar
    58    20    21    1
    59     5     6    1
    60     9     6    1
    61     9    10    1
    62    69    68    1
    63    69    71   ar
    64    68    65    1
    65    65    66    1
    66    21    22    1
    67    73    71   ar
    68    11    10    1
    69    11    13   ar
    70    66    67    2
    71   103   102    2
    72   152   149    1
    73   178   177    2
    74   104   102   am
    75   102   101    1
    76   176   177    1
    77   176   175    1
    78   177   179   am
    79   161   159   am
    80   149   148    1
    81   149   150    1
    82   175   172    1
    83   101   100    1
    84    95    93    1
    85    94    93    1
    86   170   168   ar
    87   153   150   am
    88   153   154    1
    89   156   155    2
    90   157   154    1
    91   157   158    1
    92    93    92    2
    93   135   133    1
    94   159   160    2
    95   159   158    1
    96   150   151    2
    97   167   168    1
    98   167   166    1
    99   134   133    1
   100   168   169   ar
   101   172   171    1
   102   172   173    1
   103   163   162    1
   104   163   166    1
   105   163   164    1
   106   154   155    1
   107    92    91    1
   108   100    97    1
   109   174   173    2
   110   133   130    1
   111    91    90    1
   112   116   115    1
   113   164   165    2
   114    84    82    1
   115   130   129    1
   116   130   131    1
   117    83    82    1
   118   113   115   ar
   119   113   111   ar
   120   115   114   ar
   121    89    90    1
   122    89    86    1
   123   126   124   ar
   124   126   127   ar
   125    82    81    2
   126    97    96    1
   127    97    98    1
   128   136   131   am
   129   136   137    1
   130    96    87   am
   131   124   122   ar
   132   131   132    2
   133   111   110   ar
   134   114   112   ar
   135   128   127    1
   136    87    86    1
   137    87    88    2
   138    81    80    1
   139   137   140    1
   140   137   138    1
   141   127   125   ar
   142    86    85    1
   143    99    98    2
   144   110   112   ar
   145   110   109    1
   146   142   144   ar
   147   142   141   ar
   148    80    79    1
   149   140   141    1
   150   122   121    1
   151   122   123   ar
   152   139   138    2
   153   121   118    1
   154   144   146   ar
   155   141   143   ar
   156   118   119    1
   157   118   117    1
   158   109   106    1
   159   125   123   ar
   160    79    78    1
   161   119   120    2
   162   146   147    1
   163   146   145   ar
   164   143   145   ar
   165    78    75    1
   166   106   107    1
   167   106   105    1
   168    77    76    2
   169   107   108    2
   170    76    75    1
   171    75    74    1
