@<TRIPOS>MOLECULE
tmp/2xv1A00.pdb
 179 171 0 0 0
SMALL
GASTEIGER

@<TRIPOS>ATOM
      1  N         15.2520   10.2640    3.5980 N.3    25  GLY25      -0.1225
      2  CA        14.6460   11.3390    4.3840 C.3    25  GLY25       0.1811
      3  C         13.4970   10.9300    5.2990 C.2    25  GLY25       0.2280
      4  O         13.4210   11.3920    6.4440 O.2    25  GLY25      -0.2866
      5  N          9.6040    8.2770    8.8490 N.3    28  GLU28      -0.1245
      6  CA         8.1860    7.9100    8.9230 C.3    28  GLU28       0.1567
      7  C          7.8710    6.6280    8.1230 C.2    28  GLU28       0.2260
      8  O          7.2160    5.7120    8.6240 O.2    28  GLU28      -0.2867
      9  CB         7.3110    9.0710    8.4160 C.3    28  GLU28       0.0388
     10  CG         7.1790   10.2580    9.3760 C.3    28  GLU28       0.1160
     11  CD         8.3310   11.2650    9.3210 C.2    28  GLU28       0.3649
     12  OE1        9.2220   11.1650    8.4380 O.co2  28  GLU28      -0.2457
     13  OE2        8.3380   12.1730   10.1800 O.co2  28  GLU28      -0.2457
     14  N         19.8140   10.2740    6.8590 N.3    67  LYS67      -0.1231
     15  CA        18.4570   10.8200    6.7160 C.3    67  LYS67       0.1693
     16  C         18.3810   12.0650    5.8340 C.2    67  LYS67       0.2591
     17  O         17.5630   12.1420    4.9280 O.2    67  LYS67      -0.2718
     18  CB        17.8700   11.1410    8.1020 C.3    67  LYS67       0.0285
     19  CG        16.4680   11.7480    8.0830 C.3    67  LYS67       0.0035
     20  CD        15.9260   12.0260    9.4930 C.3    67  LYS67       0.0206
     21  CE        16.5670   13.2450   10.1360 C.3    67  LYS67       0.1093
     22  NZ        15.8960   13.6330   11.4220 N.3    67  LYS67      -0.1314
     23  N         19.2360   13.0360    6.1120 N.am   68  MET68      -0.1979
     24  CA        19.1500   14.3360    5.4610 C.3    68  MET68       0.1605
     25  C         20.0570   14.4230    4.2300 C.2    68  MET68       0.2287
     26  O         20.0490   15.4250    3.5350 O.2    68  MET68      -0.2864
     27  CB        19.4970   15.4360    6.4760 C.3    68  MET68       0.0413
     28  CG        18.6520   15.3590    7.7690 C.3    68  MET68       0.0598
     29  SD        19.0910   16.5200    9.0830 S.3    68  MET68      -0.1393
     30  CE        19.8730   17.8190    8.1350 C.3    68  MET68       0.0692
     31  N         10.9560   12.8680    1.8980 N.3    86  SER86      -0.1217
     32  CA        10.3570   13.5930    3.0100 C.3    86  SER86       0.1889
     33  C          9.9640   14.9940    2.5820 C.2    86  SER86       0.2288
     34  O         10.5670   15.5790    1.6840 O.2    86  SER86      -0.2866
     35  CB        11.3450   13.6860    4.1700 C.3    86  SER86       0.2089
     36  OG        10.8440   14.5200    5.2080 O.3    86  SER86      -0.2183
     37  N         10.4680   17.4090    4.4540 N.3    88  LYS88      -0.1231
     38  CA        11.4500   18.2590    5.1300 C.3    88  LYS88       0.1693
     39  C         12.6340   18.6650    4.2300 C.2    88  LYS88       0.2592
     40  O         13.3270   19.6560    4.5140 O.2    88  LYS88      -0.2718
     41  CB        11.9310   17.5760    6.4120 C.3    88  LYS88       0.0285
     42  CG        10.8150   17.4490    7.4710 C.3    88  LYS88       0.0035
     43  CD        11.2610   16.7170    8.7210 C.3    88  LYS88       0.0206
     44  CE        11.3880   15.2140    8.4680 C.3    88  LYS88       0.1093
     45  NZ        11.9030   14.4680    9.6220 N.3    88  LYS88      -0.1314
     46  N         12.8510   17.9270    3.1400 N.am   89  PHE89      -0.1963
     47  CA        13.9240   18.2580    2.2040 C.3    89  PHE89       0.1756
     48  C         13.6340   19.5990    1.5700 C.2    89  PHE89       0.2461
     49  O         12.4870   19.8890    1.2380 O.2    89  PHE89      -0.2730
     50  CB        14.0310   17.2350    1.0690 C.3    89  PHE89       0.0574
     51  CG        14.7030   15.9410    1.4440 C.ar   89  PHE89      -0.0200
     52  CD1       15.9650   15.9270    2.0130 C.ar   89  PHE89      -0.0042
     53  CD2       14.0920   14.7280    1.1600 C.ar   89  PHE89      -0.0042
     54  CE1       16.5860   14.7300    2.3320 C.ar   89  PHE89      -0.0003
     55  CE2       14.7080   13.5370    1.4630 C.ar   89  PHE89      -0.0003
     56  CZ        15.9600   13.5350    2.0520 C.ar   89  PHE89      -0.0000
     57  N         14.6730   20.4230    1.3810 N.am   90  PRO90      -0.2727
     58  CA        14.5110   21.5660    0.4910 C.3    90  PRO90       0.1402
     59  C         14.0560   21.1040   -0.8920 C.2    90  PRO90       0.2269
     60  O         14.3520   19.9790   -1.2940 O.2    90  PRO90      -0.2865
     61  CB        15.9190   22.1610    0.4140 C.3    90  PRO90       0.0296
     62  CG        16.6000   21.7010    1.6370 C.3    90  PRO90       0.0237
     63  CD        16.0220   20.3600    1.9620 C.3    90  PRO90       0.0939
     64  N          5.7270   15.0310    7.1120 N.3   108  HIS108     -0.1241
     65  CA         6.2090   14.9560    8.4800 C.3   108  HIS108      0.1621
     66  C          5.1900   15.5630    9.4390 C.2   108  HIS108      0.2264
     67  O          5.4450   15.6580   10.6360 O.2   108  HIS108     -0.2867
     68  CB         7.5550   15.6750    8.6150 C.3   108  HIS108      0.0745
     69  CG         7.4720   17.1560    8.4230 C.ar  108  HIS108      0.0817
     70  ND1        7.3560   17.7390    7.1780 N.ar  108  HIS108     -0.2268
     71  CD2        7.4840   18.1710    9.3160 C.ar  108  HIS108      0.1154
     72  CE1        7.3020   19.0510    7.3150 C.ar  108  HIS108      0.1986
     73  NE2        7.3770   19.3380    8.6030 N.ar  108  HIS108     -0.2212
     74  N         12.9450   17.5300   22.0780 N.3   161  ARG161     -0.1245
     75  CA        14.0140   16.7500   21.4410 C.3   161  ARG161      0.1563
     76  C         15.3310   17.5380   21.4340 C.2   161  ARG161      0.2260
     77  O         15.4010   18.6660   20.9370 O.2   161  ARG161     -0.2867
     78  CB        13.6270   16.3350   20.0270 C.3   161  ARG161      0.0307
     79  CG        14.7150   15.5540   19.2970 C.3   161  ARG161      0.0489
     80  CD        14.1850   14.6720   18.1940 C.3   161  ARG161      0.2205
     81  NE        13.1540   15.3220   17.3870 N.pl3 161  ARG161     -0.0865
     82  CZ        12.3800   14.6870   16.5090 C.cat 161  ARG161      0.5346
     83  NH1       12.5250   13.3780   16.3150 N.pl3 161  ARG161      0.1354
     84  NH2       11.4450   15.3570   15.8310 N.pl3 161  ARG161      0.1354
     85  N         18.8860   18.1600   20.0730 N.3   163  ARG163     -0.1231
     86  CA        19.6940   17.9370   18.8550 C.3   163  ARG163      0.1694
     87  C         20.8770   18.9060   18.7900 C.2   163  ARG163      0.2591
     88  O         20.7170   20.1220   18.9880 O.2   163  ARG163     -0.2718
     89  CB        18.8280   18.0550   17.6000 C.3   163  ARG163      0.0321
     90  CG        18.1000   16.7770   17.2610 C.3   163  ARG163      0.0489
     91  CD        16.8220   17.0140   16.4370 C.3   163  ARG163      0.2205
     92  NE        16.3930   15.7650   15.8070 N.pl3 163  ARG163     -0.0865
     93  CZ        15.4520   15.6460   14.8690 C.cat 163  ARG163      0.5346
     94  NH1       14.7790   16.7030   14.4290 N.pl3 163  ARG163      0.1354
     95  NH2       15.1740   14.4430   14.3640 N.pl3 163  ARG163      0.1354
     96  N         22.0600   18.3560   18.5110 N.am  164  GLN164     -0.1979
     97  CA        23.3310   19.0930   18.6110 C.3   164  GLN164      0.1601
     98  C         23.3960   19.9380   19.8860 C.2   164  GLN164      0.2287
     99  O         23.7600   21.1090   19.8540 O.2   164  GLN164     -0.2864
    100  CB        23.5640   19.9600   17.3720 C.3   164  GLN164      0.0394
    101  CG        23.7540   19.0440   16.1820 C.3   164  GLN164      0.0908
    102  CD        24.1980   19.7020   14.9040 C.2   164  GLN164      0.2608
    103  OE1       24.3380   20.9240   14.8550 O.2   164  GLN164     -0.2717
    104  NE2       24.4930   18.9870   13.8470 N.am  164  GLN164     -0.0878
    105  N         14.6500   21.5810   21.3620 N.3   168  TYR168     -0.1241
    106  CA        13.6580   21.8970   20.3570 C.3   168  TYR168      0.1605
    107  C         12.2620   21.5000   20.7950 C.2   168  TYR168      0.2264
    108  O         12.0700   20.4810   21.4640 O.2   168  TYR168     -0.2867
    109  CB        13.9930   21.1940   19.0360 C.3   168  TYR168      0.0534
    110  CG        15.2170   21.7370   18.3960 C.ar  168  TYR168     -0.0201
    111  CD1       15.1490   22.8470   17.5490 C.ar  168  TYR168     -0.0009
    112  CD2       16.4580   21.1770   18.6450 C.ar  168  TYR168     -0.0009
    113  CE1       16.2740   23.3620   16.9580 C.ar  168  TYR168      0.0417
    114  CE2       17.5940   21.6970   18.0610 C.ar  168  TYR168      0.0417
    115  CZ        17.4950   22.7900   17.2240 C.ar  168  TYR168      0.1957
    116  OH        18.6250   23.3010   16.6460 O.3   168  TYR168     -0.2866
    117  N          7.9960   21.6560   19.0720 N.3   170  TYR170     -0.1241
    118  CA         7.3790   21.3800   17.7730 C.3   170  TYR170      0.1605
    119  C          5.9390   21.8540   17.7590 C.2   170  TYR170      0.2264
    120  O          5.3510   22.0250   18.8110 O.2   170  TYR170     -0.2867
    121  CB         7.4660   19.8660   17.4740 C.3   170  TYR170      0.0534
    122  CG         8.9040   19.3750   17.4180 C.ar  170  TYR170     -0.0201
    123  CD1        9.6020   19.0530   18.5710 C.ar  170  TYR170     -0.0009
    124  CD2        9.5770   19.2780   16.2020 C.ar  170  TYR170     -0.0009
    125  CE1       10.9370   18.6380   18.5140 C.ar  170  TYR170      0.0417
    126  CE2       10.8760   18.8470   16.1370 C.ar  170  TYR170      0.0417
    127  CZ        11.5570   18.5400   17.2860 C.ar  170  TYR170      0.1957
    128  OH        12.8630   18.1310   17.1840 O.3   170  TYR170     -0.2866
    129  N          2.6970   18.0770   15.1040 N.3   174  VAL174     -0.1231
    130  CA         3.9900   17.5670   14.6580 C.3   174  VAL174      0.1692
    131  C          4.6240   16.7370   15.7650 C.2   174  VAL174      0.2592
    132  O          4.3670   16.9660   16.9560 O.2   174  VAL174     -0.2718
    133  CB         4.9070   18.7420   14.2200 C.3   174  VAL174      0.0266
    134  CG1        6.3340   18.2780   13.9040 C.3   174  VAL174      0.0020
    135  CG2        4.2950   19.4380   13.0200 C.3   174  VAL174      0.0020
    136  N          5.4320   15.7550   15.3690 N.am  175  TYR175     -0.1976
    137  CA         6.1310   14.8990   16.3160 C.3   175  TYR175      0.1639
    138  C          5.0560   14.1730   17.1370 C.2   175  TYR175      0.2290
    139  O          3.9940   13.8450   16.5940 O.2   175  TYR175     -0.2864
    140  CB         7.0800   15.7640   17.1630 C.3   175  TYR175      0.0560
    141  CG         8.2530   15.0610   17.8340 C.ar  175  TYR175     -0.0198
    142  CD1        8.7790   13.8630   17.3390 C.ar  175  TYR175     -0.0009
    143  CD2        8.8640   15.6220   18.9520 C.ar  175  TYR175     -0.0009
    144  CE1        9.8620   13.2370   17.9530 C.ar  175  TYR175      0.0417
    145  CE2        9.9550   14.9920   19.5630 C.ar  175  TYR175      0.0417
    146  CZ        10.4350   13.8000   19.0600 C.ar  175  TYR175      0.1957
    147  OH        11.5200   13.1940   19.6520 O.3   175  TYR175     -0.2866
    148  N          7.3320   25.4560   13.0760 N.3   197  ALA197     -0.1231
    149  CA         8.1670   24.3600   12.6190 C.3   197  ALA197      0.1694
    150  C          8.9840   23.9240   13.8210 C.2   197  ALA197      0.2591
    151  O          8.8330   24.4900   14.8980 O.2   197  ALA197     -0.2718
    152  CB         9.0810   24.8170   11.4770 C.3   197  ALA197      0.0304
    153  N          9.8430   22.9240   13.6550 N.am  198  GLN198     -0.1979
    154  CA        10.8180   22.6180   14.6850 C.3   198  GLN198      0.1601
    155  C         11.4350   23.9350   15.1040 C.2   198  GLN198      0.2287
    156  O         12.0180   24.6410   14.2910 O.2   198  GLN198     -0.2864
    157  CB        11.8900   21.6810   14.1700 C.3   198  GLN198      0.0394
    158  CG        12.9690   21.3420   15.1800 C.3   198  GLN198      0.0908
    159  CD        13.8880   20.2570   14.6790 C.2   198  GLN198      0.2608
    160  OE1       14.1060   19.2380   15.3440 O.2   198  GLN198     -0.2717
    161  NE2       14.4340   20.4640   13.4920 N.am  198  GLN198     -0.0878
    162  N         22.2660   12.0890   16.8480 N.3   222  GLU222     -0.1245
    163  CA        21.9100   13.4750   16.5680 C.3   222  GLU222      0.1567
    164  C         22.6180   14.4610   17.5120 C.2   222  GLU222      0.2260
    165  O         22.3890   15.6680   17.4190 O.2   222  GLU222     -0.2867
    166  CB        20.3990   13.6620   16.6810 C.3   222  GLU222      0.0388
    167  CG        19.5780   12.6570   15.8890 C.3   222  GLU222      0.1160
    168  CD        18.0880   12.8690   16.0380 C.2   222  GLU222      0.3649
    169  OE1       17.6400   13.2980   17.1300 O.co2 222  GLU222     -0.2457
    170  OE2       17.3540   12.5910   15.0700 O.co2 222  GLU222     -0.2457
    171  N          9.6480    9.0980   15.1460 N.3   260  GLN260     -0.1245
    172  CA         9.3280   10.3870   14.5420 C.3   260  GLN260      0.1566
    173  C          8.0180   11.0080   15.0070 C.2   260  GLN260      0.2260
    174  O          7.7380   12.1530   14.6600 O.2   260  GLN260     -0.2867
    175  CB         9.3380   10.2710   13.0190 C.3   260  GLN260      0.0367
    176  CG        10.6800    9.8410   12.4770 C.3   260  GLN260      0.0905
    177  CD        11.7820   10.8340   12.7920 C.2   260  GLN260      0.2608
    178  OE1       11.7670   11.9590   12.2920 O.2   260  GLN260     -0.2717
    179  NE2       12.7510   10.4210   13.6160 N.am  260  GLN260     -0.0878
@<TRIPOS>BOND
     1    60    59    2
     2    59    58    1
     3    61    58    1
     4    61    62    1
     5    58    57    1
     6    50    51    1
     7    50    47    1
     8    53    51   ar
     9    53    55   ar
    10    49    48    2
    11    57    48   am
    12    57    63    1
    13    51    52   ar
    14    55    56   ar
    15    48    47    1
    16    62    63    1
    17    34    33    2
    18    31    32    1
    19    52    54   ar
    20    56    54   ar
    21    47    46    1
    22    33    32    1
    23    32    35    1
    24    46    39   am
    25    26    25    2
    26     1     2    1
    27    35    36    1
    28    39    40    2
    29    39    38    1
    30    25    24    1
    31     2     3    1
    32    37    38    1
    33    17    16    2
    34    38    41    1
    35     3     4    2
    36    24    23    1
    37    24    27    1
    38    16    23   am
    39    16    15    1
    40    41    42    1
    41    27    28    1
    42    15    14    1
    43    15    18    1
    44    64    65    1
    45    70    72   ar
    46    70    69   ar
    47    72    73   ar
    48    42    43    1
    49    28    29    1
    50    19    18    1
    51    19    20    1
    52     7     8    2
    53     7     6    1
    54    30    29    1
    55     9     6    1
    56     9    10    1
    57    69    68    1
    58    69    71   ar
    59    12    11   ar
    60    44    43    1
    61    44    45    1
    62    65    68    1
    63    65    66    1
    64    73    71   ar
    65     5     6    1
    66    11    10    1
    67    11    13   ar
    68    66    67    2
    69    20    21    1
    70    21    22    1
    71   152   149    1
    72   178   177    2
    73   176   177    1
    74   176   175    1
    75   149   148    1
    76   149   150    1
    77   177   179   am
    78   175   172    1
    79   135   133    1
    80   161   159   am
    81   153   150   am
    82   153   154    1
    83   150   151    2
    84   104   102   am
    85   134   133    1
    86   157   154    1
    87   157   158    1
    88   133   130    1
    89   156   155    2
    90    95    93    1
    91    94    93    1
    92   172   173    1
    93   172   171    1
    94   130   129    1
    95   130   131    1
    96   174   173    2
    97   159   158    1
    98   159   160    2
    99   154   155    1
   100   103   102    2
   101    93    92    2
   102   102   101    1
   103   170   168   ar
   104   136   131   am
   105   136   137    1
   106   131   132    2
   107    92    91    1
   108    84    82    1
   109   167   168    1
   110   167   166    1
   111   168   169   ar
   112   126   124   ar
   113   126   127   ar
   114   101   100    1
   115   124   122   ar
   116    83    82    1
   117   137   138    1
   118   137   140    1
   119    91    90    1
   120    82    81    2
   121   163   166    1
   122   163   162    1
   123   163   164    1
   124   139   138    2
   125   116   115    1
   126   113   115   ar
   127   113   111   ar
   128   140   141    1
   129   128   127    1
   130   115   114   ar
   131    90    89    1
   132   127   125   ar
   133   142   141   ar
   134   142   144   ar
   135   100    97    1
   136    81    80    1
   137   122   121    1
   138   122   123   ar
   139   165   164    2
   140   121   118    1
   141   111   110   ar
   142    89    86    1
   143   119   118    1
   144   119   120    2
   145   118   117    1
   146   141   143   ar
   147   144   146   ar
   148   114   112   ar
   149    80    79    1
   150   110   112   ar
   151   110   109    1
   152    96    97    1
   153    96    87   am
   154   125   123   ar
   155    97    98    1
   156    87    86    1
   157    87    88    2
   158    86    85    1
   159   143   145   ar
   160   109   106    1
   161   146   145   ar
   162   146   147    1
   163    79    78    1
   164    99    98    2
   165    78    75    1
   166   106   107    1
   167   106   105    1
   168   107   108    2
   169    77    76    2
   170    76    75    1
   171    75    74    1
