@<TRIPOS>MOLECULE
tmp/2xv1A01.pdb
 79 77 0 0 0
SMALL
GASTEIGER

@<TRIPOS>ATOM
      1  N         19.5310    0.4090   12.6410 N.3    51  PRO51      -0.2116
      2  CA        19.2270    0.0900   14.0520 C.3    51  PRO51       0.1372
      3  C         18.4740   -1.2260   14.2560 C.2    51  PRO51       0.2244
      4  O         17.6070   -1.5780   13.4570 O.2    51  PRO51      -0.2868
      5  CB        18.3480    1.2580   14.5120 C.3    51  PRO51       0.0268
      6  CG        18.5960    2.3610   13.5360 C.3    51  PRO51       0.0207
      7  CD        19.0390    1.7390   12.2450 C.3    51  PRO51       0.0892
      8  N         15.9740   -2.2240   15.7790 N.3    53  MET53      -0.1245
      9  CA        14.5200   -2.2060   15.6110 C.3    53  MET53       0.1570
     10  C         14.0440   -2.2580   14.1430 C.2    53  MET53       0.2261
     11  O         12.8840   -2.5900   13.9020 O.2    53  MET53      -0.2867
     12  CB        13.9050   -1.0130   16.3570 C.3    53  MET53       0.0387
     13  CG        14.2140    0.3590   15.7630 C.3    53  MET53       0.0595
     14  SD        13.5190    1.7280   16.7260 S.3    53  MET53      -0.1393
     15  CE        14.1960    3.1170   15.7990 C.3    53  MET53       0.0692
     16  N         16.3330   11.9940   23.3170 N.3   218  PHE218     -0.1227
     17  CA        17.7630   12.2400   23.1200 C.3   218  PHE218      0.1736
     18  C         18.4630   11.0880   22.3960 C.2   218  PHE218      0.2596
     19  O         18.5600    9.9790   22.9390 O.2   218  PHE218     -0.2718
     20  CB        18.4460   12.4790   24.4690 C.3   218  PHE218      0.0547
     21  CG        19.9040   12.8570   24.3560 C.ar  218  PHE218     -0.0202
     22  CD1       20.2840   14.1790   24.1770 C.ar  218  PHE218     -0.0042
     23  CD2       20.8900   11.8970   24.4330 C.ar  218  PHE218     -0.0042
     24  CE1       21.6230   14.5360   24.0780 C.ar  218  PHE218     -0.0003
     25  CE2       22.2440   12.2500   24.3180 C.ar  218  PHE218     -0.0003
     26  CZ        22.5960   13.5720   24.1420 C.ar  218  PHE218     -0.0000
     27  N         18.9650   11.3780   21.1930 N.am  219  SER219     -0.1938
     28  CA        19.7660   10.4450   20.3940 C.3   219  SER219      0.2055
     29  C         21.2280   10.9000   20.2960 C.2   219  SER219      0.2643
     30  O         21.5060   12.0550   19.9720 O.2   219  SER219     -0.2714
     31  CB        19.2240   10.3800   18.9850 C.3   219  SER219      0.2130
     32  OG        20.0020    9.5360   18.1580 O.3   219  SER219     -0.2179
     33  N         22.1510    9.9760   20.5570 N.am  220  ASP220     -0.1957
     34  CA        23.5940   10.1930   20.3250 C.3   220  ASP220      0.1840
     35  C         23.8940   10.4820   18.8600 C.2   220  ASP220      0.2622
     36  O         24.7530   11.3130   18.5420 O.2   220  ASP220     -0.2715
     37  CB        24.4030    8.9600   20.7060 C.3   220  ASP220      0.1450
     38  CG        24.1570    8.5120   22.1210 C.2   220  ASP220      0.3671
     39  OD1       23.7340    9.3340   22.9610 O.co2 220  ASP220     -0.2456
     40  OD2       24.3770    7.3100   22.3760 O.co2 220  ASP220     -0.2456
     41  N         23.1780    9.8110   17.9650 N.am  221  ASP221     -0.1971
     42  CA        23.4330    9.9690   16.5370 C.3   221  ASP221      0.1709
     43  C         23.0490   11.3670   16.0460 C.2   221  ASP221      0.2293
     44  O         23.4500   11.7700   14.9590 O.2   221  ASP221     -0.2864
     45  CB        22.6850    8.9080   15.7400 C.3   221  ASP221      0.1436
     46  CG        23.0650    7.4900   16.1380 C.2   221  ASP221      0.3671
     47  OD1       24.2620    7.2300   16.3950 O.co2 221  ASP221     -0.2456
     48  OD2       22.1550    6.6370   16.1830 O.co2 221  ASP221     -0.2456
     49  N         13.6200    9.3440   26.8590 N.3   253  ASN253     -0.1240
     50  CA        13.5400    8.2540   25.8890 C.3   253  ASN253      0.1653
     51  C         12.5400    7.1830   26.2960 C.2   253  ASN253      0.2266
     52  O         12.7960    6.0000   26.2010 O.2   253  ASN253     -0.2867
     53  CB        14.9450    7.6890   25.6170 C.3   253  ASN253      0.1155
     54  CG        15.8300    8.6970   24.9060 C.2   253  ASN253      0.2627
     55  OD1       15.3280    9.7140   24.4130 O.2   253  ASN253     -0.2716
     56  ND2       17.1340    8.4350   24.8410 N.am  253  ASN253     -0.0877
     57  N         11.7890    5.1620   21.7660 N.3   256  ASP256     -0.1225
     58  CA        13.0980    5.2400   21.1120 C.3   256  ASP256      0.1790
     59  C         13.3120    6.6450   20.5500 C.2   256  ASP256      0.2440
     60  O         12.4160    7.1990   19.9190 O.2   256  ASP256     -0.2733
     61  CB        13.2720    4.2010   20.0030 C.3   256  ASP256      0.1423
     62  CG        14.6980    4.1250   19.5120 C.2   256  ASP256      0.3668
     63  OD1       15.1030    4.9550   18.6690 O.co2 256  ASP256     -0.2456
     64  OD2       15.4320    3.2390   19.9810 O.co2 256  ASP256     -0.2456
     65  N         14.5010    7.2190   20.7720 N.am  257  PRO257     -0.2718
     66  CA        14.7210    8.5960   20.3600 C.3   257  PRO257      0.1535
     67  C         14.7930    8.8310   18.8500 C.2   257  PRO257      0.2598
     68  O         14.7440    9.9830   18.4470 O.2   257  PRO257     -0.2715
     69  CB        16.0470    8.9680   21.0530 C.3   257  PRO257      0.0310
     70  CG        16.7390    7.6750   21.2770 C.3   257  PRO257      0.0237
     71  CD        15.6790    6.6450   21.4460 C.3   257  PRO257      0.0939
     72  N         14.8560    7.7800   18.0280 N.am  258  LEU258     -0.1978
     73  CA        14.7520    7.9380   16.5550 C.3   258  LEU258      0.1596
     74  C         13.2920    7.8980   16.0430 C.2   258  LEU258      0.2287
     75  O         13.0470    8.1270   14.8520 O.2   258  LEU258     -0.2864
     76  CB        15.5750    6.8710   15.8250 C.3   258  LEU258      0.0297
     77  CG        17.0890    6.8900   16.0330 C.3   258  LEU258      0.0022
     78  CD1       17.7520    5.7910   15.2080 C.3   258  LEU258      0.0001
     79  CD2       17.6930    8.2350   15.7020 C.3   258  LEU258      0.0001
@<TRIPOS>BOND
     1     7     1    1
     2     7     6    1
     3     1     2    1
     4     4     3    2
     5     6     5    1
     6    11    10    2
     7     2     3    1
     8     2     5    1
     9    10     9    1
    10    75    74    2
    11    44    43    2
    12    78    77    1
    13     9     8    1
    14     9    12    1
    15    79    77    1
    16    45    46    1
    17    45    42    1
    18    13    12    1
    19    13    14    1
    20    15    14    1
    21    76    77    1
    22    76    73    1
    23    74    73    1
    24    43    42    1
    25    46    48   ar
    26    46    47   ar
    27    42    41    1
    28    73    72    1
    29    41    35   am
    30    72    67   am
    31    32    31    1
    32    68    67    2
    33    36    35    2
    34    63    62   ar
    35    67    66    1
    36    35    34    1
    37    31    28    1
    38    62    64   ar
    39    62    61    1
    40    60    59    2
    41    30    29    2
    42    61    58    1
    43    29    28    1
    44    29    33   am
    45    34    33    1
    46    34    37    1
    47    66    65    1
    48    66    69    1
    49    28    27    1
    50    59    65   am
    51    59    58    1
    52    37    38    1
    53    65    71    1
    54    69    70    1
    55    58    57    1
    56    27    18   am
    57    70    71    1
    58    38    40   ar
    59    38    39   ar
    60    18    19    2
    61    18    17    1
    62    17    16    1
    63    17    20    1
    64    24    26   ar
    65    24    22   ar
    66    26    25   ar
    67    22    21   ar
    68    25    23   ar
    69    21    23   ar
    70    21    20    1
    71    55    54    2
    72    56    54   am
    73    54    53    1
    74    53    50    1
    75    50    51    1
    76    50    49    1
    77    52    51    2
