@<TRIPOS>MOLECULE
tmp/2xv1A02.pdb
 90 85 0 0 0
SMALL
GASTEIGER

@<TRIPOS>ATOM
      1  N         -0.5260   14.6110   11.7470 N.3   111  SER111     -0.1217
      2  CA        -1.9370   14.3510   11.4570 C.3   111  SER111      0.1889
      3  C         -2.1810   13.6010   10.1320 C.2   111  SER111      0.2288
      4  O         -3.2820   13.1130    9.9040 O.2   111  SER111     -0.2866
      5  CB        -2.7450   15.6530   11.5060 C.3   111  SER111      0.2089
      6  OG        -1.9910   16.7490   11.0440 O.3   111  SER111     -0.2183
      7  N         -0.6770   10.7700    9.5060 N.3   113  TRP113     -0.1227
      8  CA        -0.1440    9.4320    9.7830 C.3   113  TRP113      0.1737
      9  C         -0.8930    8.3190    9.0500 C.2   113  TRP113      0.2595
     10  O         -0.2800    7.3350    8.6250 O.2   113  TRP113     -0.2718
     11  CB        -0.1180    9.1460   11.2900 C.3   113  TRP113      0.0564
     12  CG        -1.4480    8.9580   11.9540 C.ar  113  TRP113      0.0003
     13  CD1       -2.2760    9.9360   12.4290 C.ar  113  TRP113      0.0946
     14  CD2       -2.0720    7.7140   12.2780 C.ar  113  TRP113      0.0152
     15  NE1       -3.3840    9.3750   13.0140 N.ar  113  TRP113     -0.2442
     16  CE2       -3.2870    8.0120   12.9300 C.ar  113  TRP113      0.0810
     17  CE3       -1.7270    6.3760   12.0740 C.ar  113  TRP113      0.0012
     18  CZ2       -4.1640    7.0120   13.3750 C.ar  113  TRP113      0.0191
     19  CZ3       -2.5940    5.3860   12.5150 C.ar  113  TRP113      0.0001
     20  CH2       -3.7950    5.7090   13.1590 C.ar  113  TRP113      0.0015
     21  N         -2.2060    8.4830    8.9070 N.am  114  LYS114     -0.1980
     22  CA        -3.0460    7.5050    8.2040 C.3   114  LYS114      0.1596
     23  C         -2.7220    7.4430    6.7090 C.2   114  LYS114      0.2287
     24  O         -2.5610    6.3520    6.1550 O.2   114  LYS114     -0.2864
     25  CB        -4.5240    7.8360    8.3970 C.3   114  LYS114      0.0298
     26  CG        -5.0380    7.6470    9.8120 C.3   114  LYS114      0.0038
     27  CD        -6.4320    8.2720   10.0060 C.3   114  LYS114      0.0206
     28  CE        -7.1830    7.6090   11.1680 C.3   114  LYS114      0.1093
     29  NZ        -8.5050    8.2450   11.5040 N.3   114  LYS114     -0.1314
     30  N         -5.1760    1.0110   16.4890 N.3   137  TYR137     -0.1227
     31  CA        -4.7080    2.1830   17.2290 C.3   137  TYR137      0.1736
     32  C         -5.8890    2.9290   17.8600 C.2   137  TYR137      0.2595
     33  O         -5.8400    3.3070   19.0270 O.2   137  TYR137     -0.2718
     34  CB        -3.9100    3.1550   16.3530 C.3   137  TYR137      0.0548
     35  CG        -3.6230    4.4110   17.1240 C.ar  137  TYR137     -0.0200
     36  CD1       -2.6630    4.4170   18.1350 C.ar  137  TYR137     -0.0009
     37  CD2       -4.3730    5.5660   16.9180 C.ar  137  TYR137     -0.0009
     38  CE1       -2.4300    5.5470   18.8810 C.ar  137  TYR137      0.0417
     39  CE2       -4.1390    6.7040   17.6600 C.ar  137  TYR137      0.0417
     40  CZ        -3.1690    6.6860   18.6400 C.ar  137  TYR137      0.1957
     41  OH        -2.9300    7.8120   19.3810 O.3   137  TYR137     -0.2866
     42  N         -6.9460    3.1170   17.0770 N.am  138  GLU138     -0.1979
     43  CA        -8.1140    3.8770   17.5180 C.3   138  GLU138      0.1602
     44  C         -8.7960    3.2140   18.7200 C.2   138  GLU138      0.2287
     45  O         -9.2430    3.8970   19.6450 O.2   138  GLU138     -0.2864
     46  CB        -9.1220    4.0400   16.3750 C.3   138  GLU138      0.0415
     47  CG        -8.5730    4.6830   15.0900 C.3   138  GLU138      0.1163
     48  CD        -8.4610    6.1890   15.1720 C.2   138  GLU138      0.3649
     49  OE1       -7.8930    6.6850   16.1690 O.co2 138  GLU138     -0.2457
     50  OE2       -8.9370    6.8730   14.2330 O.co2 138  GLU138     -0.2457
     51  N         -6.4840    3.7070   21.6140 N.3   141  LEU141     -0.1245
     52  CA        -6.6480    5.0750   22.0880 C.3   141  LEU141      0.1561
     53  C         -7.8740    5.2270   23.0080 C.2   141  LEU141      0.2260
     54  O         -7.7400    5.7140   24.1360 O.2   141  LEU141     -0.2867
     55  CB        -6.7200    6.0420   20.8970 C.3   141  LEU141      0.0270
     56  CG        -7.0010    7.5180   21.1940 C.3   141  LEU141      0.0019
     57  CD1       -6.0510    8.0350   22.2670 C.3   141  LEU141      0.0001
     58  CD2       -6.9380    8.3570   19.9250 C.3   141  LEU141      0.0001
     59  N          0.5890   19.6360   15.8250 N.3   173  GLN173     -0.1245
     60  CA         0.2970   18.4700   14.9870 C.3   173  GLN173      0.1566
     61  C          1.5690   17.8250   14.4460 C.2   173  GLN173      0.2260
     62  O          1.5250   17.0980   13.4590 O.2   173  GLN173     -0.2867
     63  CB        -0.6230   18.8710   13.8260 C.3   173  GLN173      0.0367
     64  CG        -2.0340   19.2540   14.2550 C.3   173  GLN173      0.0905
     65  CD        -2.9800   18.0420   14.4630 C.2   173  GLN173      0.2608
     66  OE1       -2.5970   17.0070   15.0660 O.2   173  GLN173     -0.2717
     67  NE2       -4.2000   18.1690   13.9700 N.am  173  GLN173     -0.0878
     68  N          0.6500   15.5710   18.3820 N.3   178  SER178     -0.1217
     69  CA        -0.6890   15.1610   17.9210 C.3   178  SER178      0.1889
     70  C         -1.2560   14.0250   18.7620 C.2   178  SER178      0.2288
     71  O         -2.4730   13.8080   18.7760 O.2   178  SER178     -0.2866
     72  CB        -0.6610   14.7280   16.4550 C.3   178  SER178      0.2089
     73  OG         0.3590   13.7720   16.2360 O.3   178  SER178     -0.2183
     74  N         -4.8670   13.5380   20.6360 N.3   183  ASP183     -0.1239
     75  CA        -5.5070   12.2760   21.0130 C.3   183  ASP183      0.1674
     76  C         -5.8560   12.1730   22.5070 C.2   183  ASP183      0.2266
     77  O         -6.9650   11.7770   22.8640 O.2   183  ASP183     -0.2867
     78  CB        -4.6180   11.0890   20.6100 C.3   183  ASP183      0.1410
     79  CG        -4.4990   10.9240   19.0990 C.2   183  ASP183      0.3668
     80  OD1       -5.0070   11.7760   18.3540 O.co2 183  ASP183     -0.2456
     81  OD2       -3.8920    9.9310   18.6520 O.co2 183  ASP183     -0.2456
     82  N          2.8220    6.4360   17.3830 N.3   267  LYS267     -0.1245
     83  CA         1.6220    6.7870   18.1430 C.3   267  LYS267      0.1561
     84  C          1.2650    5.7020   19.1550 C.2   267  LYS267      0.2260
     85  O          1.0750    5.9870   20.3420 O.2   267  LYS267     -0.2867
     86  CB         0.4310    7.0760   17.1960 C.3   267  LYS267      0.0271
     87  CG         0.5860    8.3940   16.3990 C.3   267  LYS267      0.0035
     88  CD        -0.5650    8.6570   15.4080 C.3   267  LYS267      0.0206
     89  CE        -1.8460    9.0460   16.1230 C.3   267  LYS267      0.1093
     90  NZ        -1.6940   10.2190   17.0370 N.3   267  LYS267     -0.1314
@<TRIPOS>BOND
     1    24    23    2
     2    23    22    1
     3    22    25    1
     4    22    21    1
     5    25    26    1
     6    10     9    2
     7    21     9   am
     8     9     8    1
     9     7     8    1
    10     8    11    1
    11    26    27    1
    12     4     3    2
    13    27    28    1
    14     3     2    1
    15     6     5    1
    16    28    29    1
    17    11    12    1
    18     2     5    1
    19     2     1    1
    20    12    14   ar
    21    12    13   ar
    22    17    14   ar
    23    17    19   ar
    24    14    16   ar
    25    13    15   ar
    26    19    20   ar
    27    16    15   ar
    28    16    18   ar
    29    20    18   ar
    30    62    61    2
    31    63    64    1
    32    63    60    1
    33    67    65   am
    34    50    48   ar
    35    64    65    1
    36    61    60    1
    37    65    66    2
    38    60    59    1
    39    47    48    1
    40    47    46    1
    41    48    49   ar
    42    88    89    1
    43    88    87    1
    44    89    90    1
    45    73    72    1
    46    34    35    1
    47    34    31    1
    48    46    43    1
    49    87    86    1
    50    72    69    1
    51    30    31    1
    52    37    35   ar
    53    37    39   ar
    54    42    43    1
    55    42    32   am
    56    35    36   ar
    57    86    83    1
    58    31    32    1
    59    82    83    1
    60    43    44    1
    61    39    40   ar
    62    32    33    2
    63    69    68    1
    64    69    70    1
    65    36    38   ar
    66    83    84    1
    67    80    79   ar
    68    40    38   ar
    69    40    41    1
    70    81    79   ar
    71    44    45    2
    72    70    71    2
    73    79    78    1
    74    84    85    2
    75    58    56    1
    76    78    75    1
    77    74    75    1
    78    55    56    1
    79    55    52    1
    80    75    76    1
    81    56    57    1
    82    51    52    1
    83    52    53    1
    84    76    77    2
    85    53    54    2
