@<TRIPOS>MOLECULE
tmp/2xv7A00.pdb
 89 85 0 0 0
SMALL
GASTEIGER

@<TRIPOS>ATOM
      1  N        -35.2080  -20.1400  -11.3820 N.3    32  SER32      -0.1202
      2  CA       -36.2490  -20.2790  -10.3750 C.3    32  SER32       0.2020
      3  C        -35.7840  -19.8960   -8.9820 C.2    32  SER32       0.2618
      4  O        -36.5550  -19.9430   -8.0240 O.2    32  SER32      -0.2717
      5  CB       -36.7740  -21.7110  -10.3610 C.3    32  SER32       0.2103
      6  OG       -37.3790  -22.0270  -11.6000 O.3    32  SER32      -0.2182
      7  N        -34.5240  -19.5180   -8.8600 N.am   33  GLU33      -0.1979
      8  CA       -34.0150  -19.1540   -7.5560 C.3    33  GLU33       0.1602
      9  C        -33.6840  -17.6800   -7.4940 C.2    33  GLU33       0.2287
     10  O        -32.9730  -17.2410   -6.5960 O.2    33  GLU33      -0.2864
     11  CB       -32.8020  -20.0040   -7.2070 C.3    33  GLU33       0.0415
     12  CG       -33.1440  -21.4640   -7.1290 C.3    33  GLU33       0.1163
     13  CD       -32.5490  -22.1080   -5.9160 C.2    33  GLU33       0.3649
     14  OE1      -31.4770  -21.6270   -5.4680 O.co2  33  GLU33      -0.2457
     15  OE2      -33.1610  -23.0800   -5.4160 O.co2  33  GLU33      -0.2457
     16  N        -28.8780  -30.3590   -1.6280 N.3    51  ARG51      -0.1245
     17  CA       -30.1550  -29.9190   -1.1120 C.3    51  ARG51       0.1563
     18  C        -30.7100  -30.9750   -0.1870 C.2    51  ARG51       0.2260
     19  O        -30.2880  -32.1280   -0.2140 O.2    51  ARG51      -0.2867
     20  CB       -31.1320  -29.6590   -2.2460 C.3    51  ARG51       0.0307
     21  CG       -31.7750  -28.2650   -2.2290 C.3    51  ARG51       0.0489
     22  CD       -30.7820  -27.1540   -2.5120 C.3    51  ARG51       0.2205
     23  NE       -31.4500  -25.9950   -3.0840 N.pl3  51  ARG51      -0.0865
     24  CZ       -30.8200  -24.9810   -3.6780 C.cat  51  ARG51       0.5346
     25  NH1      -29.5010  -24.9770   -3.7940 N.pl3  51  ARG51       0.1354
     26  NH2      -31.5020  -23.9620   -4.1720 N.pl3  51  ARG51       0.1354
     27  N        -36.0110  -30.1480    6.5710 N.3    64  MET64      -0.1230
     28  CA       -35.7120  -28.7410    6.3400 C.3    64  MET64       0.1702
     29  C        -34.2240  -28.4720    6.5330 C.2    64  MET64       0.2592
     30  O        -33.5880  -29.0930    7.3890 O.2    64  MET64      -0.2718
     31  CB       -36.5530  -27.8470    7.2490 C.3    64  MET64       0.0401
     32  CG       -37.5830  -27.0170    6.4980 C.3    64  MET64       0.0596
     33  SD       -36.8390  -25.8140    5.3680 S.3    64  MET64      -0.1393
     34  CE       -35.9650  -24.7470    6.5120 C.3    64  MET64       0.0692
     35  N        -33.6610  -27.5760    5.7190 N.am   65  ASN65      -0.1960
     36  CA       -32.2750  -27.1850    5.9290 C.3    65  ASN65       0.1819
     37  C        -32.1490  -26.4080    7.2420 C.2    65  ASN65       0.2622
     38  O        -32.9400  -25.5090    7.5220 O.2    65  ASN65      -0.2715
     39  CB       -31.6420  -26.4430    4.7260 C.3    65  ASN65       0.1195
     40  CG       -32.4300  -25.2020    4.2800 C.2    65  ASN65       0.2630
     41  OD1      -33.6310  -25.2790    4.0290 O.2    65  ASN65      -0.2716
     42  ND2      -31.7330  -24.0500    4.1640 N.am   65  ASN65      -0.0877
     43  N        -31.1790  -26.7990    8.0620 N.am   66  THR66      -0.1937
     44  CA       -30.8800  -26.0740    9.2850 C.3    66  THR66       0.2028
     45  C        -29.6430  -25.1790    9.1090 C.2    66  THR66       0.2643
     46  O        -29.4270  -24.2500    9.8830 O.2    66  THR66      -0.2714
     47  CB       -30.7070  -27.0180   10.4970 C.3    66  THR66       0.1808
     48  OG1      -29.4210  -27.6380   10.4450 O.3    66  THR66      -0.2208
     49  CG2      -31.7770  -28.0800   10.5080 C.3    66  THR66       0.0379
     50  N        -28.8420  -25.4580    8.0870 N.am   67  SER67      -0.1935
     51  CA       -27.7220  -24.5930    7.7390 C.3    67  SER67       0.2055
     52  C        -27.5120  -24.6310    6.2400 C.2    67  SER67       0.2643
     53  O        -27.8150  -25.6340    5.5980 O.2    67  SER67      -0.2714
     54  CB       -26.4460  -25.0680    8.4120 C.3    67  SER67       0.2130
     55  OG       -25.8680  -26.1250    7.6700 O.3    67  SER67      -0.2179
     56  N        -26.9830  -23.5450    5.6830 N.am   68  THR68      -0.1950
     57  CA       -26.7280  -23.4650    4.2470 C.3    68  THR68       0.1897
     58  C        -25.5200  -22.5830    3.9160 C.2    68  THR68       0.2313
     59  O        -25.3480  -21.4990    4.4830 O.2    68  THR68      -0.2863
     60  CB       -27.9520  -22.9170    3.5050 C.3    68  THR68       0.1794
     61  OG1      -27.7380  -21.5430    3.1780 O.3    68  THR68      -0.2208
     62  CG2      -29.1570  -23.0060    4.3820 C.3    68  THR68       0.0378
     63  N        -23.1520  -20.9230    0.4590 N.3    70  TYR70      -0.1241
     64  CA       -23.4660  -20.4640   -0.8920 C.3    70  TYR70       0.1605
     65  C        -22.3100  -20.5970   -1.8840 C.2    70  TYR70       0.2264
     66  O        -21.3790  -19.7910   -1.8930 O.2    70  TYR70      -0.2867
     67  CB       -23.9750  -19.0280   -0.8710 C.3    70  TYR70       0.0534
     68  CG       -25.3040  -18.8880   -0.2000 C.ar   70  TYR70      -0.0201
     69  CD1      -25.4150  -18.9440    1.1790 C.ar   70  TYR70      -0.0009
     70  CD2      -26.4550  -18.7120   -0.9430 C.ar   70  TYR70      -0.0009
     71  CE1      -26.6380  -18.8230    1.8000 C.ar   70  TYR70       0.0417
     72  CE2      -27.6930  -18.5860   -0.3290 C.ar   70  TYR70       0.0417
     73  CZ       -27.7790  -18.6440    1.0440 C.ar   70  TYR70       0.1957
     74  OH       -29.0080  -18.5250    1.6580 O.3    70  TYR70      -0.2866
     75  N        -27.3620  -21.6370   -3.3180 N.3    94  ALA94      -0.1245
     76  CA       -27.4020  -22.2060   -1.9850 C.3    94  ALA94       0.1562
     77  C        -27.0520  -23.6880   -1.8990 C.2    94  ALA94       0.2260
     78  O        -27.8090  -24.5200   -2.3550 O.2    94  ALA94      -0.2867
     79  CB       -28.7750  -21.9820   -1.4040 C.3    94  ALA94       0.0290
     80  N        -27.0070  -26.5750    0.7170 N.3    96  HIS96      -0.1241
     81  CA       -27.5440  -26.9310    2.0400 C.3    96  HIS96       0.1621
     82  C        -26.5180  -27.7440    2.7560 C.2    96  HIS96       0.2264
     83  O        -26.1160  -28.7770    2.2480 O.2    96  HIS96      -0.2867
     84  CB       -28.7370  -27.8520    1.9040 C.3    96  HIS96       0.0745
     85  CG       -30.0060  -27.1560    1.5370 C.ar   96  HIS96       0.0817
     86  ND1      -30.0630  -25.8110    1.2710 N.ar   96  HIS96      -0.2268
     87  CD2      -31.2600  -27.6330    1.3910 C.ar   96  HIS96       0.1154
     88  CE1      -31.3110  -25.4810    0.9700 C.ar   96  HIS96       0.1986
     89  NE2      -32.0560  -26.5640    1.0440 N.ar   96  HIS96      -0.2212
@<TRIPOS>BOND
     1     6     5    1
     2     1     2    1
     3     2     5    1
     4     2     3    1
     5     3     7   am
     6     3     4    2
     7     7     8    1
     8     8     9    1
     9     8    11    1
    10     9    10    2
    11    11    12    1
    12    12    13    1
    13    13    14   ar
    14    13    15   ar
    15    26    24    1
    16    25    24    1
    17    24    23    2
    18    75    76    1
    19    23    22    1
    20    22    21    1
    21    78    77    2
    22    20    21    1
    23    20    17    1
    24    76    77    1
    25    76    79    1
    26    66    65    2
    27    65    64    1
    28    16    17    1
    29    17    18    1
    30    70    72   ar
    31    70    68   ar
    32    64    67    1
    33    64    63    1
    34    67    68    1
    35    72    73   ar
    36    19    18    2
    37    68    69   ar
    38    80    81    1
    39    88    89   ar
    40    88    86   ar
    41    73    74    1
    42    73    71   ar
    43    89    87   ar
    44    69    71   ar
    45    86    85   ar
    46    87    85   ar
    47    85    84    1
    48    84    81    1
    49    81    82    1
    50    83    82    2
    51    61    60    1
    52    60    57    1
    53    60    62    1
    54    58    57    1
    55    58    59    2
    56    41    40    2
    57    42    40   am
    58    57    56    1
    59    40    39    1
    60    39    36    1
    61    33    32    1
    62    33    34    1
    63    53    52    2
    64    56    52   am
    65    35    36    1
    66    35    29   am
    67    36    37    1
    68    52    51    1
    69    28    29    1
    70    28    27    1
    71    28    31    1
    72    32    31    1
    73    29    30    2
    74    37    38    2
    75    37    43   am
    76    55    54    1
    77    51    50    1
    78    51    54    1
    79    43    44    1
    80    50    45   am
    81    45    44    1
    82    45    46    2
    83    44    47    1
    84    48    47    1
    85    47    49    1
