@<TRIPOS>MOLECULE
tmp/2xvaA00.pdb
 159 153 0 0 0
SMALL
GASTEIGER

@<TRIPOS>ATOM
      1  N        -12.5480   -7.2220  -24.5830 N.3    38  ASP38      -0.1225
      2  CA       -12.9300   -8.4170  -23.8110 C.3    38  ASP38       0.1805
      3  C        -13.5520   -9.3830  -24.8250 C.2    38  ASP38       0.2598
      4  O        -14.6770   -9.2020  -25.2890 O.2    38  ASP38      -0.2718
      5  CB       -13.9030   -8.0390  -22.6660 C.3    38  ASP38       0.1424
      6  CG       -14.2150   -9.1900  -21.7340 C.2    38  ASP38       0.3668
      7  OD1      -13.7030  -10.3110  -21.9490 O.co2  38  ASP38      -0.2456
      8  OD2      -15.0090   -8.9800  -20.7760 O.co2  38  ASP38      -0.2456
      9  N        -12.7560  -10.3770  -25.1990 N.am   39  LEU39      -0.1966
     10  CA       -13.1010  -11.2860  -26.2720 C.3    39  LEU39       0.1728
     11  C        -13.8530  -12.4700  -25.6910 C.2    39  LEU39       0.2617
     12  O        -13.2560  -13.3130  -25.0250 O.2    39  LEU39      -0.2715
     13  CB       -11.8180  -11.7630  -26.9970 C.3    39  LEU39       0.0311
     14  CG       -11.1050  -10.7670  -27.9250 C.3    39  LEU39       0.0022
     15  CD1       -9.8840  -11.4330  -28.5480 C.3    39  LEU39       0.0001
     16  CD2      -12.0340  -10.2520  -29.0620 C.3    39  LEU39       0.0001
     17  N        -15.1570  -12.5220  -25.9520 N.am   40  GLY40      -0.1940
     18  CA       -16.0570  -13.5200  -25.3560 C.3    40  GLY40       0.2014
     19  C        -16.4960  -13.0750  -23.9700 C.2    40  GLY40       0.2639
     20  O        -16.2090  -13.7580  -22.9930 O.2    40  GLY40      -0.2714
     21  N        -17.1800  -11.9310  -23.8840 N.am   41  CYS41      -0.1953
     22  CA       -17.4450  -11.2810  -22.5720 C.3    41  CYS41       0.1843
     23  C        -18.5080  -11.9450  -21.6820 C.2    41  CYS41       0.2626
     24  O        -18.6240  -11.6060  -20.4780 O.2    41  CYS41      -0.2714
     25  CB       -17.8140   -9.8270  -22.7750 C.3    41  CYS41       0.0997
     26  SG       -19.3410   -9.6180  -23.7650 S.3    41  CYS41      -0.0797
     27  N        -19.2630  -12.8910  -22.2600 N.am   42  GLY42      -0.1940
     28  CA       -20.3900  -13.5490  -21.5830 C.3    42  GLY42       0.2014
     29  C        -21.4120  -12.5410  -21.0800 C.2    42  GLY42       0.2638
     30  O        -21.7540  -11.5760  -21.7800 O.2    42  GLY42      -0.2714
     31  N        -21.8850  -12.7420  -19.8520 N.am   43  ASN43      -0.1972
     32  CA       -22.7950  -11.7840  -19.2200 C.3    43  ASN43       0.1688
     33  C        -22.1360  -10.5520  -18.6070 C.2    43  ASN43       0.2292
     34  O        -22.7680   -9.7850  -17.8860 O.2    43  ASN43      -0.2864
     35  CB       -23.7260  -12.4980  -18.2500 C.3    43  ASN43       0.1181
     36  CG       -24.7850  -13.2730  -18.9910 C.2    43  ASN43       0.2629
     37  OD1      -25.6710  -12.6770  -19.5840 O.2    43  ASN43      -0.2716
     38  ND2      -24.6650  -14.6040  -19.0120 N.am   43  ASN43      -0.0877
     39  N        -19.3110   -9.9790  -16.5780 N.3    45  ARG45      -0.1231
     40  CA       -18.7100   -9.7080  -15.2410 C.3    45  ARG45       0.1694
     41  C        -17.4200   -8.9050  -15.3190 C.2    45  ARG45       0.2592
     42  O        -17.1680   -8.0130  -14.4920 O.2    45  ARG45      -0.2718
     43  CB       -18.4800  -10.9820  -14.4450 C.3    45  ARG45       0.0321
     44  CG       -17.5490  -11.9720  -15.1130 C.3    45  ARG45       0.0489
     45  CD       -17.1700  -13.0970  -14.1700 C.3    45  ARG45       0.2205
     46  NE       -16.5200  -14.1680  -14.9280 N.pl3  45  ARG45      -0.0865
     47  CZ       -15.7860  -15.1310  -14.3960 C.cat  45  ARG45       0.5346
     48  NH1      -15.5670  -15.1810  -13.0810 N.pl3  45  ARG45       0.1354
     49  NH2      -15.2710  -16.0540  -15.1910 N.pl3  45  ARG45       0.1354
     50  N        -16.5880   -9.2310  -16.3050 N.am   46  ASN46      -0.1974
     51  CA       -15.3220   -8.5600  -16.4290 C.3    46  ASN46       0.1688
     52  C        -15.4170   -7.2120  -17.1480 C.2    46  ASN46       0.2292
     53  O        -14.8010   -6.2520  -16.7100 O.2    46  ASN46      -0.2864
     54  CB       -14.2780   -9.5060  -17.0420 C.3    46  ASN46       0.1181
     55  CG       -14.1070  -10.7760  -16.2050 C.2    46  ASN46       0.2629
     56  OD1      -14.0190  -10.7060  -14.9740 O.2    46  ASN46      -0.2716
     57  ND2      -14.1170  -11.9320  -16.8580 N.am   46  ASN46      -0.0877
     58  N        -19.2260  -11.0400  -27.8660 N.3    61  ASP61      -0.1225
     59  CA       -19.6650  -12.4410  -27.6120 C.3    61  ASP61       0.1805
     60  C        -20.6230  -12.9160  -28.7230 C.2    61  ASP61       0.2598
     61  O        -21.3030  -12.1080  -29.3430 O.2    61  ASP61      -0.2718
     62  CB       -20.3580  -12.5480  -26.2390 C.3    61  ASP61       0.1424
     63  CG       -20.2940  -13.9590  -25.6340 C.2    61  ASP61       0.3668
     64  OD1      -21.1180  -14.8370  -26.0350 O.co2  61  ASP61      -0.2456
     65  OD2      -19.4370  -14.1850  -24.7330 O.co2  61  ASP61      -0.2456
     66  N        -20.6610  -14.2260  -28.9560 N.am   62  LYS62      -0.1966
     67  CA       -21.5680  -14.8460  -29.9250 C.3    62  LYS62       0.1728
     68  C        -23.0190  -14.8860  -29.4260 C.2    62  LYS62       0.2616
     69  O        -23.9580  -14.9270  -30.2190 O.2    62  LYS62      -0.2715
     70  CB       -21.0810  -16.2700  -30.1890 C.3    62  LYS62       0.0311
     71  CG       -21.7320  -17.0550  -31.3160 C.3    62  LYS62       0.0038
     72  CD       -21.0090  -18.4410  -31.3880 C.3    62  LYS62       0.0206
     73  CE       -21.3320  -19.2270  -32.6330 C.3    62  LYS62       0.1093
     74  NZ       -20.1490  -20.0900  -33.0210 N.3    62  LYS62      -0.1314
     75  N        -23.1920  -14.8690  -28.1140 N.am   63  ASN63      -0.1972
     76  CA       -24.4960  -15.0910  -27.5030 C.3    63  ASN63       0.1688
     77  C        -25.3210  -13.7960  -27.4050 C.2    63  ASN63       0.2292
     78  O        -25.0780  -12.9520  -26.5330 O.2    63  ASN63      -0.2864
     79  CB       -24.3070  -15.7770  -26.1480 C.3    63  ASN63       0.1181
     80  CG       -25.6010  -16.1970  -25.5180 C.2    63  ASN63       0.2629
     81  OD1      -26.6260  -15.5590  -25.6970 O.2    63  ASN63      -0.2716
     82  ND2      -25.5530  -17.2670  -24.7330 N.am   63  ASN63      -0.0877
     83  N        -26.8200  -12.9900  -23.9080 N.3    66  SER66      -0.1217
     84  CA       -25.7500  -12.4980  -23.0340 C.3    66  SER66       0.1889
     85  C        -25.3990  -11.0470  -23.3430 C.2    66  SER66       0.2288
     86  O        -25.3050  -10.2210  -22.4320 O.2    66  SER66      -0.2866
     87  CB       -24.5120  -13.3920  -23.1520 C.3    66  SER66       0.2089
     88  OG       -24.8030  -14.6820  -22.6240 O.3    66  SER66      -0.2183
     89  N        -20.5850  -11.0630  -32.0570 N.3    87  VAL87      -0.1231
     90  CA       -19.5350  -11.4680  -32.9950 C.3    87  VAL87       0.1692
     91  C        -19.3650  -12.9960  -32.9320 C.2    87  VAL87       0.2592
     92  O        -19.6450  -13.6150  -31.9040 O.2    87  VAL87      -0.2718
     93  CB       -18.1590  -10.7890  -32.6400 C.3    87  VAL87       0.0266
     94  CG1      -18.3220   -9.3400  -32.2930 C.3    87  VAL87       0.0020
     95  CG2      -17.4970  -11.4620  -31.4240 C.3    87  VAL87       0.0020
     96  N        -18.9020  -13.6060  -34.0180 N.am   88  ASP88      -0.1960
     97  CA       -18.4140  -14.9830  -33.9540 C.3    88  ASP88       0.1840
     98  C        -16.8790  -14.9650  -34.0450 C.2    88  ASP88       0.2622
     99  O        -16.3150  -14.6380  -35.0940 O.2    88  ASP88      -0.2715
    100  CB       -19.0460  -15.8230  -35.0730 C.3    88  ASP88       0.1450
    101  CG       -18.4480  -17.2150  -35.1790 C.2    88  ASP88       0.3671
    102  OD1      -17.7530  -17.6720  -34.2400 O.co2  88  ASP88      -0.2456
    103  OD2      -18.6600  -17.8590  -36.2350 O.co2  88  ASP88      -0.2456
    104  N        -16.2160  -15.3030  -32.9340 N.am   89  LEU89      -0.1963
    105  CA       -14.7680  -15.2610  -32.8490 C.3    89  LEU89       0.1728
    106  C        -14.0860  -16.2250  -33.8230 C.2    89  LEU89       0.2616
    107  O        -12.9110  -16.0340  -34.1440 O.2    89  LEU89      -0.2715
    108  CB       -14.2870  -15.5160  -31.4050 C.3    89  LEU89       0.0311
    109  CG       -14.5610  -14.4200  -30.3470 C.3    89  LEU89       0.0022
    110  CD1      -14.2500  -14.9160  -28.9490 C.3    89  LEU89       0.0001
    111  CD2      -13.8040  -13.1870  -30.5870 C.3    89  LEU89       0.0001
    112  N        -14.8140  -17.2390  -34.3050 N.am   90  ASN90      -0.1972
    113  CA       -14.2960  -18.1520  -35.3450 C.3    90  ASN90       0.1688
    114  C        -14.2730  -17.5330  -36.7280 C.2    90  ASN90       0.2292
    115  O        -13.6670  -18.0720  -37.6610 O.2    90  ASN90      -0.2864
    116  CB       -15.1490  -19.4190  -35.4530 C.3    90  ASN90       0.1181
    117  CG       -14.9930  -20.3360  -34.2710 C.2    90  ASN90       0.2629
    118  OD1      -13.8780  -20.5540  -33.7630 O.2    90  ASN90      -0.2716
    119  ND2      -16.1180  -20.9010  -33.8190 N.am   90  ASN90      -0.0877
    120  N        -10.8660  -14.6350  -21.0940 N.3   104  THR104     -0.1203
    121  CA       -10.8650  -15.4640  -19.9130 C.3   104  THR104      0.1994
    122  C        -11.8970  -16.5950  -20.1220 C.2   104  THR104      0.2618
    123  O        -13.0740  -16.3320  -20.3170 O.2   104  THR104     -0.2717
    124  CB       -11.1860  -14.6170  -18.6450 C.3   104  THR104      0.1784
    125  OG1      -12.4180  -13.8910  -18.8250 O.3   104  THR104     -0.2211
    126  CG2      -10.0120  -13.6550  -18.2930 C.3   104  THR104      0.0376
    127  N        -11.4330  -17.8360  -20.1030 N.am  105  VAL105     -0.1965
    128  CA       -12.2390  -19.0660  -20.2580 C.3   105  VAL105      0.1727
    129  C        -13.2060  -19.0690  -21.4690 C.2   105  VAL105      0.2616
    130  O        -14.3920  -19.3900  -21.3650 O.2   105  VAL105     -0.2715
    131  CB       -12.8750  -19.5770  -18.9100 C.3   105  VAL105      0.0290
    132  CG1      -11.7330  -20.0740  -17.9210 C.3   105  VAL105      0.0023
    133  CG2      -13.8210  -18.5400  -18.2710 C.3   105  VAL105      0.0023
    134  N        -12.6400  -18.6830  -22.6070 N.am  106  VAL106     -0.1977
    135  CA       -13.3440  -18.5960  -23.8810 C.3   106  VAL106      0.1596
    136  C        -12.6720  -19.4590  -24.9610 C.2   106  VAL106      0.2287
    137  O        -13.3530  -20.1250  -25.7310 O.2   106  VAL106     -0.2864
    138  CB       -13.3530  -17.1460  -24.4030 C.3   106  VAL106      0.0276
    139  CG1      -13.9510  -17.0780  -25.8250 C.3   106  VAL106      0.0022
    140  CG2      -14.1280  -16.2240  -23.4630 C.3   106  VAL106      0.0022
    141  N        -13.6070  -22.9260  -26.2790 N.3   109  PHE109     -0.1227
    142  CA       -14.8790  -23.1460  -26.9690 C.3   109  PHE109      0.1736
    143  C        -14.7930  -22.8920  -28.4510 C.2   109  PHE109      0.2595
    144  O        -15.7580  -23.1670  -29.1800 O.2   109  PHE109     -0.2718
    145  CB       -15.9920  -22.3160  -26.3650 C.3   109  PHE109      0.0547
    146  CG       -16.2830  -22.6660  -24.9460 C.ar  109  PHE109     -0.0202
    147  CD1      -16.8960  -23.8900  -24.6220 C.ar  109  PHE109     -0.0042
    148  CD2      -15.9400  -21.7830  -23.9360 C.ar  109  PHE109     -0.0042
    149  CE1      -17.1740  -24.2210  -23.3000 C.ar  109  PHE109     -0.0003
    150  CE2      -16.2000  -22.0960  -22.6100 C.ar  109  PHE109     -0.0003
    151  CZ       -16.8270  -23.3300  -22.2860 C.ar  109  PHE109     -0.0000
    152  N        -13.6530  -22.3780  -28.9070 N.am  110  LEU110     -0.1980
    153  CA       -13.4820  -22.0710  -30.3360 C.3   110  LEU110      0.1596
    154  C        -12.9220  -23.2610  -31.1350 C.2   110  LEU110      0.2287
    155  O        -12.3640  -24.2030  -30.5700 O.2   110  LEU110     -0.2864
    156  CB       -12.5910  -20.8310  -30.4870 C.3   110  LEU110      0.0297
    157  CG       -13.0650  -19.5810  -29.7090 C.3   110  LEU110      0.0022
    158  CD1      -12.1310  -18.4440  -30.0170 C.3   110  LEU110      0.0001
    159  CD2      -14.4880  -19.1350  -30.0430 C.3   110  LEU110      0.0001
@<TRIPOS>BOND
     1   115   114    2
     2   114   113    1
     3   103   101   ar
     4   116   113    1
     5   116   117    1
     6   113   112    1
     7   101   100    1
     8   101   102   ar
     9    99    98    2
    10   100    97    1
    11   112   106   am
    12   117   119   am
    13   117   118    2
    14   107   106    2
    15    98    97    1
    16    98   104   am
    17    96    97    1
    18    96    91   am
    19   106   105    1
    20    74    73    1
    21    90    91    1
    22    90    93    1
    23    90    89    1
    24   104   105    1
    25    91    92    2
    26   105   108    1
    27    93    94    1
    28    93    95    1
    29    73    72    1
    30   108   109    1
    31    72    71    1
    32    71    70    1
    33   154   155    2
    34   154   153    1
    35   111   109    1
    36   156   153    1
    37   156   157    1
    38   109   110    1
    39   153   152    1
    40    69    68    2
    41    70    67    1
    42   159   157    1
    43   158   157    1
    44    67    68    1
    45    67    66    1
    46    68    75   am
    47    61    60    2
    48   144   143    2
    49    16    14    1
    50    66    60   am
    51   152   143   am
    52    60    59    1
    53    15    14    1
    54   143   142    1
    55    75    76    1
    56    14    13    1
    57    58    59    1
    58    59    62    1
    59    76    77    1
    60    76    79    1
    61    77    78    2
    62    13    10    1
    63   142   145    1
    64   142   141    1
    65   145   146    1
    66    10    11    1
    67    10     9    1
    68    62    63    1
    69    79    80    1
    70    64    63   ar
    71    17    11   am
    72    17    18    1
    73   139   138    1
    74   137   136    2
    75    81    80    2
    76    11    12    2
    77    63    65   ar
    78    80    82   am
    79    18    19    1
    80     4     3    2
    81     9     3   am
    82   136   135    1
    83   146   147   ar
    84   146   148   ar
    85     3     2    1
    86   147   149   ar
    87     1     2    1
    88   138   135    1
    89   138   140    1
    90    19    21   am
    91    19    20    2
    92   148   150   ar
    93    83    84    1
    94    21    22    1
    95   135   134    1
    96     2     5    1
    97    26    25    1
    98    85    84    1
    99    85    86    2
   100   149   151   ar
   101    87    84    1
   102    87    88    1
   103    25    22    1
   104     5     6    1
   105   150   151   ar
   106   134   129   am
   107    22    23    1
   108    27    23   am
   109    27    28    1
   110     7     6   ar
   111    30    29    2
   112     6     8   ar
   113    23    24    2
   114    28    29    1
   115   129   130    2
   116   129   128    1
   117   120   121    1
   118    29    31   am
   119   123   122    2
   120   128   127    1
   121   128   131    1
   122   122   127   am
   123   122   121    1
   124   121   124    1
   125    31    32    1
   126    37    36    2
   127    32    33    1
   128    32    35    1
   129    38    36   am
   130    36    35    1
   131   131   133    1
   132   131   132    1
   133   125   124    1
   134   124   126    1
   135    33    34    2
   136    52    53    2
   137    52    51    1
   138    54    51    1
   139    54    55    1
   140    57    55   am
   141    39    40    1
   142    51    50    1
   143    50    41   am
   144    55    56    2
   145    41    40    1
   146    41    42    2
   147    40    43    1
   148    49    47    1
   149    44    43    1
   150    44    45    1
   151    46    47    2
   152    46    45    1
   153    47    48    1
