@<TRIPOS>MOLECULE
tmp/2xvdA00.pdb
 197 188 0 0 0
SMALL
GASTEIGER

@<TRIPOS>ATOM
      1  N          9.8260   13.4740   15.8740 N.3    15  ILE15      -0.1231
      2  CA        10.5950   13.5750   14.6160 C.3    15  ILE15       0.1692
      3  C          9.7490   13.3450   13.3520 C.2    15  ILE15       0.2593
      4  O         10.2040   13.6290   12.2430 O.2    15  ILE15      -0.2718
      5  CB        11.8250   12.6070   14.6150 C.3    15  ILE15       0.0266
      6  CG1       11.3650   11.1430   14.7430 C.3    15  ILE15       0.0019
      7  CG2       12.7780   12.9780   15.7500 C.3    15  ILE15       0.0020
      8  CD1       12.4350   10.1010   14.4510 C.3    15  ILE15       0.0001
      9  N          8.5300   12.8410   13.5250 N.am   16  GLY16      -0.1942
     10  CA         7.6220   12.6230   12.4060 C.3    16  GLY16       0.2014
     11  C          6.1790   12.4800   12.8610 C.2    16  GLY16       0.2639
     12  O          5.8800   12.4280   14.0660 O.2    16  GLY16      -0.2714
     13  N          5.2760   12.4400   11.8830 N.am   17  ALA17      -0.1963
     14  CA         3.8740   12.1330   12.1280 C.3    17  ALA17       0.1728
     15  C          3.6250   10.7320   11.5510 C.2    17  ALA17       0.2617
     16  O          3.7630   10.5130   10.3400 O.2    17  ALA17      -0.2715
     17  CB         2.9610   13.1900   11.4780 C.3    17  ALA17       0.0334
     18  N          3.3140    9.7780   12.4240 N.am   18  GLY18      -0.1940
     19  CA         3.0480    8.4020   12.0040 C.3    18  GLY18       0.2014
     20  C          1.6010    8.2260   11.5710 C.2    18  GLY18       0.2638
     21  O          0.7440    9.0900   11.8380 O.2    18  GLY18      -0.2714
     22  N          1.3180    7.1020   10.9160 N.am   19  GLU19      -0.1977
     23  CA        -0.0240    6.8480   10.3790 C.3    19  GLU19       0.1602
     24  C         -1.1120    6.7270   11.4820 C.2    19  GLU19       0.2287
     25  O         -2.2880    6.9880   11.2140 O.2    19  GLU19      -0.2864
     26  CB        -0.0080    5.6170    9.4470 C.3    19  GLU19       0.0415
     27  CG         0.1320    4.2310    9.9940 C.3    19  GLU19       0.1163
     28  CD         1.4940    3.8420   10.4850 C.2    19  GLU19       0.3649
     29  OE1        2.4410    4.6580   10.3170 O.co2  19  GLU19      -0.2457
     30  OE2        1.6530    2.7740   11.0710 O.co2  19  GLU19      -0.2457
     31  N          5.7580    9.9830   15.8800 N.3    23  VAL23      -0.1245
     32  CA         7.0450    9.2970   15.7580 C.3    23  VAL23       0.1561
     33  C          8.0560   10.1180   16.5440 C.2    23  VAL23       0.2260
     34  O          8.1760   11.3350   16.3400 O.2    23  VAL23      -0.2867
     35  CB         7.5010    9.1230   14.2920 C.3    23  VAL23       0.0252
     36  CG1        8.8340    8.3370   14.2290 C.3    23  VAL23       0.0019
     37  CG2        6.3830    8.4390   13.4710 C.3    23  VAL23       0.0019
     38  N         12.1250   10.2190   18.5840 N.3    25  ARG25      -0.1245
     39  CA        13.4860    9.7320   18.8060 C.3    25  ARG25       0.1563
     40  C         13.6660    9.6580   20.3260 C.2    25  ARG25       0.2260
     41  O         13.2610   10.5640   21.0530 O.2    25  ARG25      -0.2867
     42  CB        14.5190   10.6960   18.1830 C.3    25  ARG25       0.0307
     43  CG        15.9840   10.3010   18.3690 C.3    25  ARG25       0.0489
     44  CD        16.9340   11.3910   17.8490 C.3    25  ARG25       0.2205
     45  NE        17.1340   12.4710   18.8170 N.pl3  25  ARG25      -0.0865
     46  CZ        17.4780   13.7150   18.5040 C.cat  25  ARG25       0.5346
     47  NH1       17.6580   14.0680   17.2460 N.pl3  25  ARG25       0.1354
     48  NH2       17.6690   14.6070   19.4600 N.pl3  25  ARG25       0.1354
     49  N         14.0710    4.7310   17.5330 N.3    39  ALA39      -0.1231
     50  CA        12.8920    5.3910   16.9960 C.3    39  ALA39       0.1694
     51  C         11.6770    4.7630   17.6900 C.2    39  ALA39       0.2592
     52  O         11.6890    3.5650   18.0050 O.2    39  ALA39      -0.2718
     53  CB        12.8240    5.2190   15.4950 C.3    39  ALA39       0.0304
     54  N         10.6450    5.5720   17.9270 N.am   40  ILE40      -0.1966
     55  CA         9.4870    5.1640   18.7270 C.3    40  ILE40       0.1727
     56  C          8.1910    5.4680   17.9720 C.2    40  ILE40       0.2616
     57  O          7.9540    6.6150   17.5640 O.2    40  ILE40      -0.2715
     58  CB         9.4320    5.8940   20.1010 C.3    40  ILE40       0.0290
     59  CG1       10.7460    5.6980   20.8760 C.3    40  ILE40       0.0022
     60  CG2        8.1710    5.4570   20.8980 C.3    40  ILE40       0.0023
     61  CD1       10.8650    6.5630   22.1060 C.3    40  ILE40       0.0001
     62  N          7.3690    4.4360   17.8060 N.am   41  LYS41      -0.1977
     63  CA         6.0430    4.5600   17.2110 C.3    41  LYS41       0.1596
     64  C          5.0050    4.3570   18.3110 C.2    41  LYS41       0.2287
     65  O          5.0700    3.3810   19.0570 O.2    41  LYS41      -0.2864
     66  CB         5.8870    3.5190   16.0990 C.3    41  LYS41       0.0298
     67  CG         4.8810    3.8650   15.0650 C.3    41  LYS41       0.0038
     68  CD         5.2490    3.3100   13.7000 C.3    41  LYS41       0.0206
     69  CE         4.5330    2.0410   13.4010 C.3    41  LYS41       0.1093
     70  NZ         4.3780    1.9160   11.9200 N.3    41  LYS41      -0.1314
     71  N          2.9140   -5.5360   13.6920 N.3    55  GLU55      -0.1245
     72  CA         4.1590   -5.0440   13.0820 C.3    55  GLU55       0.1567
     73  C          5.3720   -5.5300   13.8670 C.2    55  GLU55       0.2260
     74  O          6.3600   -5.9990   13.2840 O.2    55  GLU55      -0.2867
     75  CB         4.1950   -3.5250   13.0030 C.3    55  GLU55       0.0388
     76  CG         5.5200   -2.9880   12.4890 C.3    55  GLU55       0.1160
     77  CD         5.4100   -1.6010   11.8870 C.2    55  GLU55       0.3649
     78  OE1        4.7340   -0.7180   12.4780 O.co2  55  GLU55      -0.2457
     79  OE2        6.0290   -1.4020   10.8190 O.co2  55  GLU55      -0.2457
     80  N          8.3110   -8.0690   12.7660 N.3    59  MET59      -0.1245
     81  CA         9.6450   -7.4730   12.7530 C.3    59  MET59       0.1570
     82  C         10.6010   -8.2500   13.6460 C.2    59  MET59       0.2261
     83  O         11.7520   -8.4480   13.2840 O.2    59  MET59      -0.2867
     84  CB         9.5840   -5.9940   13.1900 C.3    59  MET59       0.0387
     85  CG        10.8740   -5.2150   12.9760 C.3    59  MET59       0.0595
     86  SD        10.7630   -3.4320   13.4010 S.3    59  MET59      -0.1393
     87  CE         9.1200   -3.1420   12.7760 C.3    59  MET59       0.0692
     88  N         14.7440   -3.2430    9.1330 N.3    68  ILE68      -0.1245
     89  CA        14.7720   -2.4310   10.3500 C.3    68  ILE68       0.1561
     90  C         14.6470   -3.3660   11.5690 C.2    68  ILE68       0.2260
     91  O         13.8360   -4.2930   11.5690 O.2    68  ILE68      -0.2867
     92  CB        13.6380   -1.3650   10.3670 C.3    68  ILE68       0.0252
     93  CG1       13.9400   -0.2650    9.3580 C.3    68  ILE68       0.0019
     94  CG2       13.4970   -0.7250   11.7560 C.3    68  ILE68       0.0019
     95  CD1       15.0560    0.6760    9.8040 C.3    68  ILE68       0.0001
     96  N          6.0410    0.8870   19.8600 N.3    82  ILE82      -0.1245
     97  CA         6.9960    0.0320   19.1520 C.3    82  ILE82       0.1561
     98  C          8.3300    0.7810   19.0660 C.2    82  ILE82       0.2260
     99  O          8.3910    1.9140   18.5820 O.2    82  ILE82      -0.2867
    100  CB         6.4990   -0.3490   17.7140 C.3    82  ILE82       0.0252
    101  CG1        5.1720   -1.1330   17.7880 C.3    82  ILE82       0.0019
    102  CG2        7.5920   -1.1420   16.9550 C.3    82  ILE82       0.0019
    103  CD1        4.5400   -1.4460   16.4200 C.3    82  ILE82       0.0001
    104  N         12.2440    0.7470   17.5980 N.3    84  THR84      -0.1203
    105  CA        13.1890    0.1710   16.6340 C.3    84  THR84       0.1994
    106  C         14.5540    0.8730   16.7150 C.2    84  THR84       0.2618
    107  O         14.6920    1.9030   17.3920 O.2    84  THR84      -0.2717
    108  CB        12.6300    0.2880   15.2150 C.3    84  THR84       0.1784
    109  OG1       12.5070    1.6700   14.8600 O.3    84  THR84      -0.2211
    110  CG2       11.2400   -0.3590   15.1420 C.3    84  THR84       0.0376
    111  N         15.5510    0.3270   16.0080 N.am   85  GLU85      -0.1965
    112  CA        16.8140    1.0220   15.8120 C.3    85  GLU85       0.1733
    113  C         16.5090    2.3980   15.1880 C.2    85  GLU85       0.2616
    114  O         15.5350    2.5620   14.4640 O.2    85  GLU85      -0.2715
    115  CB        17.7410    0.1970   14.9160 C.3    85  GLU85       0.0429
    116  CG        17.3110    0.1540   13.4610 C.3    85  GLU85       0.1163
    117  CD        18.2270   -0.6530   12.5620 C.2    85  GLU85       0.3649
    118  OE1       19.4230   -0.3250   12.4500 O.co2  85  GLU85      -0.2457
    119  OE2       17.7370   -1.6220   11.9680 O.co2  85  GLU85      -0.2457
    120  N         17.3390    3.3840   15.4740 N.am   86  PHE86      -0.1960
    121  CA        17.1190    4.7370   14.9720 C.3    86  PHE86       0.1771
    122  C         17.8910    4.8940   13.6470 C.2    86  PHE86       0.2619
    123  O         19.0830    4.5350   13.5410 O.2    86  PHE86      -0.2715
    124  CB        17.5470    5.7740   16.0220 C.3    86  PHE86       0.0574
    125  CG        17.4160    7.1790   15.5600 C.ar   86  PHE86      -0.0200
    126  CD1       16.1630    7.7110   15.2840 C.ar   86  PHE86      -0.0042
    127  CD2       18.5440    7.9610   15.3490 C.ar   86  PHE86      -0.0042
    128  CE1       16.0340    9.0410   14.8170 C.ar   86  PHE86      -0.0003
    129  CE2       18.4210    9.2900   14.8810 C.ar   86  PHE86      -0.0003
    130  CZ        17.1630    9.8130   14.6160 C.ar   86  PHE86      -0.0000
    131  N         17.2000    5.4250   12.6470 N.am   87  MET87      -0.1963
    132  CA        17.7340    5.6360   11.3240 C.3    87  MET87       0.1736
    133  C         17.8070    7.1540   11.1200 C.2    87  MET87       0.2616
    134  O         16.8130    7.8330   10.9380 O.2    87  MET87      -0.2715
    135  CB        16.8690    4.9620   10.2760 C.3    87  MET87       0.0427
    136  CG        16.7370    3.4530   10.4950 C.3    87  MET87       0.0599
    137  SD        18.2540    2.5730   10.1720 S.3    87  MET87      -0.1393
    138  CE        18.2670    2.6040    8.3780 C.3    87  MET87       0.0692
    139  N         19.0330    7.6350   11.1930 N.am   88  GLU88      -0.1963
    140  CA        19.3510    9.0550   11.3650 C.3    88  GLU88       0.1733
    141  C         18.8850    9.8980   10.1830 C.2    88  GLU88       0.2616
    142  O         18.5590   11.0750   10.3580 O.2    88  GLU88      -0.2715
    143  CB        20.8650    9.1940   11.5380 C.3    88  GLU88       0.0429
    144  CG        21.4110    8.4860   12.8290 C.3    88  GLU88       0.1163
    145  CD        22.0090    7.0730   12.6180 C.2    88  GLU88       0.3649
    146  OE1       21.5900    6.3350   11.7010 O.co2  88  GLU88      -0.2457
    147  OE2       22.9170    6.7200   13.4050 O.co2  88  GLU88      -0.2457
    148  N         18.8970    9.3140    8.9740 N.am   89  ASN89      -0.1958
    149  CA        18.4930   10.0310    7.7480 C.3    89  ASN89       0.1819
    150  C         17.0520    9.8560    7.3030 C.2    89  ASN89       0.2622
    151  O         16.6390   10.3540    6.2300 O.2    89  ASN89      -0.2715
    152  CB        19.4990    9.7260    6.6140 C.3    89  ASN89       0.1195
    153  CG        20.8320   10.4020    6.8610 C.2    89  ASN89       0.2630
    154  OD1       20.8430   11.5560    7.2520 O.2    89  ASN89      -0.2716
    155  ND2       21.9450    9.6920    6.6570 N.am   89  ASN89      -0.0877
    156  N         16.2760    9.1430    8.1170 N.am   90  GLY90      -0.1940
    157  CA        14.8560    9.0210    7.8880 C.3    90  GLY90       0.2014
    158  C         14.4800    8.3470    6.5720 C.2    90  GLY90       0.2638
    159  O         15.1900    7.4520    6.1070 O.2    90  GLY90      -0.2714
    160  N         13.3390    8.7320    6.0080 N.am   91  ALA91      -0.1977
    161  CA        12.8040    8.0990    4.8080 C.3    91  ALA91       0.1597
    162  C         13.6170    8.4410    3.5320 C.2    91  ALA91       0.2287
    163  O         14.0100    9.5900    3.3110 O.2    91  ALA91      -0.2864
    164  CB        11.2690    8.4500    4.6370 C.3    91  ALA91       0.0319
    165  N         14.2150    3.2330    5.0420 N.3   138  LEU138     -0.1245
    166  CA        14.8850    4.1380    6.0060 C.3   138  LEU138      0.1561
    167  C         16.3810    4.0630    5.8430 C.2   138  LEU138      0.2260
    168  O         16.9350    3.0380    5.4070 O.2   138  LEU138     -0.2867
    169  CB        14.4560    3.8110    7.4320 C.3   138  LEU138      0.0270
    170  CG        12.9470    3.8330    7.6670 C.3   138  LEU138      0.0019
    171  CD1       12.6610    3.3810    9.0850 C.3   138  LEU138      0.0001
    172  CD2       12.3190    5.2120    7.3710 C.3   138  LEU138      0.0001
    173  N         11.2710   -1.0780    5.7680 N.3   148  SER148     -0.1202
    174  CA        10.3820   -0.9270    6.9170 C.3   148  SER148      0.2020
    175  C          8.9290   -1.0520    6.4750 C.2   148  SER148      0.2619
    176  O          8.6480   -1.2690    5.2860 O.2   148  SER148     -0.2717
    177  CB        10.6560    0.3830    7.6570 C.3   148  SER148      0.2103
    178  OG        10.0590    1.4790    7.0460 O.3   148  SER148     -0.2182
    179  N          8.0400   -0.9470    7.4620 N.am  149  ASP149     -0.1959
    180  CA         6.5890   -0.9170    7.3070 C.3   149  ASP149      0.1840
    181  C          6.0860   -2.3420    7.1560 C.2   149  ASP149      0.2622
    182  O          5.8710   -2.8250    6.0540 O.2   149  ASP149     -0.2715
    183  CB         6.0990   -0.0530    6.1440 C.3   149  ASP149      0.1450
    184  CG         4.5860    0.1320    6.1480 C.2   149  ASP149      0.3671
    185  OD1        3.9540   -0.1080    7.1920 O.co2 149  ASP149     -0.2456
    186  OD2        4.0250    0.4680    5.0950 O.co2 149  ASP149     -0.2456
    187  N          5.8790   -2.9790    8.2930 N.am  150  PHE150     -0.1974
    188  CA         5.5070   -4.3870    8.3220 C.3   150  PHE150      0.1639
    189  C          4.2030   -4.5440    9.0740 C.2   150  PHE150      0.2290
    190  O          3.7590   -3.6630    9.8170 O.2   150  PHE150     -0.2864
    191  CB         6.5780   -5.2190    9.0080 C.3   150  PHE150      0.0560
    192  CG         7.9230   -5.1440    8.3510 C.ar  150  PHE150     -0.0200
    193  CD1        8.1230   -5.6890    7.0840 C.ar  150  PHE150     -0.0042
    194  CD2        8.9880   -4.5120    8.9760 C.ar  150  PHE150     -0.0042
    195  CE1        9.3800   -5.5830    6.4420 C.ar  150  PHE150     -0.0003
    196  CE2       10.2390   -4.4230    8.3460 C.ar  150  PHE150     -0.0003
    197  CZ        10.4390   -4.9680    7.0910 C.ar  150  PHE150     -0.0000
@<TRIPOS>BOND
     1   163   162    2
     2   162   161    1
     3   164   161    1
     4   161   160    1
     5   165   166    1
     6   186   184   ar
     7   176   175    2
     8   168   167    2
     9   173   174    1
    10   167   166    1
    11   166   169    1
    12   160   158   am
    13   182   181    2
    14   159   158    2
    15   183   184    1
    16   183   180    1
    17   184   185   ar
    18   151   150    2
    19   195   193   ar
    20   195   197   ar
    21   175   174    1
    22   175   179   am
    23   158   157    1
    24   152   153    1
    25   152   149    1
    26   155   153   am
    27   153   154    2
    28   174   177    1
    29   178   177    1
    30   193   192   ar
    31   197   196   ar
    32   181   180    1
    33   181   187   am
    34   150   149    1
    35   150   156   am
    36   180   179    1
    37   172   170    1
    38   169   170    1
    39   170   171    1
    40   149   148    1
    41   157   156    1
    42   187   188    1
    43   188   191    1
    44   188   189    1
    45   196   194   ar
    46   192   194   ar
    47   192   191    1
    48   138   137    1
    49   148   141   am
    50   189   190    2
    51    88    89    1
    52    93    95    1
    53    93    92    1
    54    26    27    1
    55    26    23    1
    56    27    28    1
    57   137   136    1
    58   141   142    2
    59   141   140    1
    60   135   136    1
    61   135   132    1
    62    29    28   ar
    63    16    15    2
    64    89    92    1
    65    89    90    1
    66    92    94    1
    67    23    22    1
    68    23    24    1
    69    28    30   ar
    70    79    77   ar
    71    22    20   am
    72   134   133    2
    73   133   139   am
    74   133   132    1
    75   139   140    1
    76    25    24    2
    77   132   131    1
    78   140   143    1
    79    17    14    1
    80   143   144    1
    81    15    14    1
    82    15    18   am
    83    90    91    2
    84    20    21    2
    85    20    19    1
    86   146   145   ar
    87    13    14    1
    88    13    11   am
    89    77    78   ar
    90    77    76    1
    91    70    69    1
    92   119   117   ar
    93    19    18    1
    94     4     3    2
    95    10    11    1
    96    10     9    1
    97   118   117   ar
    98    76    75    1
    99   117   116    1
   100   145   144    1
   101   145   147   ar
   102   131   122   am
   103    81    80    1
   104    81    84    1
   105    81    82    1
   106    87    86    1
   107    11    12    2
   108    85    84    1
   109    85    86    1
   110    75    72    1
   111    72    71    1
   112    72    73    1
   113    74    73    2
   114    83    82    2
   115     3     9   am
   116     3     2    1
   117    69    68    1
   118   116   115    1
   119    37    35    1
   120   123   122    2
   121   122   121    1
   122    68    67    1
   123    36    35    1
   124    35    32    1
   125     8     6    1
   126   114   113    2
   127     5     2    1
   128     5     6    1
   129     5     7    1
   130   130   128   ar
   131   130   129   ar
   132     2     1    1
   133   128   126   ar
   134   109   108    1
   135   129   127   ar
   136   115   112    1
   137   121   120    1
   138   121   124    1
   139    67    66    1
   140   110   108    1
   141   113   120   am
   142   113   112    1
   143   108   105    1
   144   126   125   ar
   145   127   125   ar
   146    53    50    1
   147   125   124    1
   148    32    31    1
   149    32    33    1
   150   112   111    1
   151   111   106   am
   152    66    63    1
   153    34    33    2
   154   103   101    1
   155   105   106    1
   156   105   104    1
   157   106   107    2
   158   102   100    1
   159    50    49    1
   160    50    51    1
   161    63    62    1
   162    63    64    1
   163    47    46    1
   164    57    56    2
   165    51    54   am
   166    51    52    2
   167   100   101    1
   168   100    97    1
   169    62    56   am
   170    44    43    1
   171    44    45    1
   172    54    55    1
   173    56    55    1
   174    42    43    1
   175    42    39    1
   176    64    65    2
   177    46    45    2
   178    46    48    1
   179    99    98    2
   180    38    39    1
   181    55    58    1
   182    39    40    1
   183    98    97    1
   184    97    96    1
   185    58    59    1
   186    58    60    1
   187    40    41    2
   188    59    61    1
