@<TRIPOS>MOLECULE
tmp/2xvkA00.pdb
 149 148 0 0 0
SMALL
GASTEIGER

@<TRIPOS>ATOM
      1  N         38.4010  106.9880   43.9860 N.3   303  TRP303     -0.1241
      2  CA        38.9370  105.7600   44.5700 C.3   303  TRP303      0.1605
      3  C         39.4730  104.7800   43.5210 C.2   303  TRP303      0.2264
      4  O         40.0750  103.7650   43.8570 O.2   303  TRP303     -0.2867
      5  CB        37.9070  105.0920   45.5040 C.3   303  TRP303      0.0550
      6  CG        36.7650  104.3930   44.8060 C.ar  303  TRP303      0.0003
      7  CD1       35.7000  104.9800   44.1840 C.ar  303  TRP303      0.0946
      8  CD2       36.5690  102.9710   44.6810 C.ar  303  TRP303      0.0152
      9  NE1       34.8630  104.0150   43.6680 N.ar  303  TRP303     -0.2442
     10  CE2       35.3730  102.7760   43.9600 C.ar  303  TRP303      0.0810
     11  CE3       37.2920  101.8450   45.1060 C.ar  303  TRP303      0.0012
     12  CZ2       34.8850  101.5000   43.6530 C.ar  303  TRP303      0.0191
     13  CZ3       36.8030  100.5790   44.8020 C.ar  303  TRP303      0.0001
     14  CH2       35.6130  100.4190   44.0840 C.ar  303  TRP303      0.0015
     15  N         24.3180   98.7120   41.3400 N.3   398  GLU398     -0.1245
     16  CA        25.0070   98.9210   42.6170 C.3   398  GLU398      0.1567
     17  C         24.2230   99.9380   43.4370 C.2   398  GLU398      0.2260
     18  O         24.4280  101.1440   43.2750 O.2   398  GLU398     -0.2867
     19  CB        26.4300   99.4380   42.3940 C.3   398  GLU398      0.0388
     20  CG        27.3320   99.3730   43.6290 C.3   398  GLU398      0.1160
     21  CD        26.9800  100.3810   44.7000 C.2   398  GLU398      0.3649
     22  OE1       27.3700  101.5570   44.5640 O.co2 398  GLU398     -0.2457
     23  OE2       26.3270   99.9920   45.6900 O.co2 398  GLU398     -0.2457
     24  N         23.9280   92.4140   44.0030 N.3   426  ASP426     -0.1225
     25  CA        25.2600   92.8820   44.2630 C.3   426  ASP426      0.1805
     26  C         25.5100   92.8220   45.7820 C.2   426  ASP426      0.2597
     27  O         24.6860   92.2950   46.5420 O.2   426  ASP426     -0.2718
     28  CB        25.3630   94.3070   43.7190 C.3   426  ASP426      0.1424
     29  CG        26.7820   94.7870   43.5770 C.2   426  ASP426      0.3668
     30  OD1       27.7280   94.0790   43.9820 O.co2 426  ASP426     -0.2456
     31  OD2       26.9440   95.9000   43.0530 O.co2 426  ASP426     -0.2456
     32  N         26.6540   93.3530   46.2020 N.am  427  TRP427     -0.1976
     33  CA        27.1120   93.2960   47.5860 C.3   427  TRP427      0.1640
     34  C         26.1390   93.8060   48.6740 C.2   427  TRP427      0.2290
     35  O         25.1130   94.4590   48.3980 O.2   427  TRP427     -0.2864
     36  CB        28.4370   94.0630   47.7040 C.3   427  TRP427      0.0576
     37  CG        28.3220   95.5050   47.2760 C.ar  427  TRP427      0.0006
     38  CD1       27.1690   96.1980   47.0370 C.ar  427  TRP427      0.0946
     39  CD2       29.3960   96.4280   47.0530 C.ar  427  TRP427      0.0152
     40  NE1       27.4590   97.4890   46.6760 N.ar  427  TRP427     -0.2442
     41  CE2       28.8190   97.6570   46.6760 C.ar  427  TRP427      0.0810
     42  CE3       30.7860   96.3330   47.1280 C.ar  427  TRP427      0.0012
     43  CZ2       29.5850   98.7830   46.3810 C.ar  427  TRP427      0.0191
     44  CZ3       31.5450   97.4520   46.8280 C.ar  427  TRP427      0.0001
     45  CH2       30.9430   98.6610   46.4640 C.ar  427  TRP427      0.0015
     46  N         26.6270   88.5060   44.1600 N.3   465  SER465     -0.1217
     47  CA        27.9910   88.9100   44.5050 C.3   465  SER465      0.1889
     48  C         28.6220   88.0690   45.6230 C.2   465  SER465      0.2288
     49  O         28.0200   87.8410   46.6660 O.2   465  SER465     -0.2866
     50  CB        28.0350   90.3870   44.9040 C.3   465  SER465      0.2089
     51  OG        29.3710   90.8190   45.0820 O.3   465  SER465     -0.2183
     52  N         32.7070   87.7910   47.2260 N.3   467  TRP467     -0.1241
     53  CA        34.0910   88.2600   47.2320 C.3   467  TRP467      0.1605
     54  C         35.0180   87.1950   47.8220 C.2   467  TRP467      0.2264
     55  O         34.5500   86.1640   48.3030 O.2   467  TRP467     -0.2867
     56  CB        34.1800   89.5310   48.0850 C.3   467  TRP467      0.0550
     57  CG        33.5680   90.7320   47.4310 C.ar  467  TRP467      0.0003
     58  CD1       32.3590   90.7970   46.7920 C.ar  467  TRP467      0.0946
     59  CD2       34.1330   92.0460   47.3570 C.ar  467  TRP467      0.0152
     60  NE1       32.1440   92.0680   46.3140 N.ar  467  TRP467     -0.2442
     61  CE2       33.2150   92.8550   46.6470 C.ar  467  TRP467      0.0810
     62  CE3       35.3270   92.6160   47.8180 C.ar  467  TRP467      0.0012
     63  CZ2       33.4570   94.2020   46.3830 C.ar  467  TRP467      0.0191
     64  CZ3       35.5650   93.9490   47.5570 C.ar  467  TRP467      0.0001
     65  CH2       34.6330   94.7300   46.8420 C.ar  467  TRP467      0.0015
     66  N         28.8320   86.1500   40.8780 N.3   536  TRP536     -0.1241
     67  CA        29.5270   87.3530   40.4600 C.3   536  TRP536      0.1605
     68  C         30.7340   87.4910   41.3670 C.2   536  TRP536      0.2264
     69  O         30.6460   88.1040   42.4220 O.2   536  TRP536     -0.2867
     70  CB        28.6060   88.5570   40.6080 C.3   536  TRP536      0.0550
     71  CG        29.1480   89.8390   40.0680 C.ar  536  TRP536      0.0003
     72  CD1       30.2650   90.0050   39.3010 C.ar  536  TRP536      0.0946
     73  CD2       28.5800   91.1410   40.2390 C.ar  536  TRP536      0.0152
     74  NE1       30.4290   91.3360   38.9880 N.ar  536  TRP536     -0.2442
     75  CE2       29.4080   92.0520   39.5540 C.ar  536  TRP536      0.0810
     76  CE3       27.4530   91.6280   40.9160 C.ar  536  TRP536      0.0012
     77  CZ2       29.1500   93.4230   39.5300 C.ar  536  TRP536      0.0191
     78  CZ3       27.1950   92.9880   40.8880 C.ar  536  TRP536      0.0001
     79  CH2       28.0410   93.8710   40.2000 C.ar  536  TRP536      0.0015
     80  N         33.4780   89.1810   42.4540 N.3   538  ASP538     -0.1239
     81  CA        34.1040   90.4970   42.4360 C.3   538  ASP538      0.1674
     82  C         35.4600   90.5060   43.1480 C.2   538  ASP538      0.2266
     83  O         35.7780   89.5880   43.9250 O.2   538  ASP538     -0.2867
     84  CB        33.1760   91.5050   43.1040 C.3   538  ASP538      0.1410
     85  CG        33.3760   92.9070   42.5940 C.2   538  ASP538      0.3668
     86  OD1       34.3270   93.1450   41.8060 O.co2 538  ASP538     -0.2456
     87  OD2       32.5720   93.7710   42.9920 O.co2 538  ASP538     -0.2456
     88  N         36.0110   89.8020   37.7240 N.3   598  ARG598     -0.1245
     89  CA        36.5580   91.1080   37.3700 C.3   598  ARG598      0.1563
     90  C         38.0460   91.0520   37.0180 C.2   598  ARG598      0.2260
     91  O         38.6740   92.0820   36.7540 O.2   598  ARG598     -0.2867
     92  CB        36.3240   92.0950   38.5190 C.3   598  ARG598      0.0307
     93  CG        36.4170   93.5410   38.1040 C.3   598  ARG598      0.0489
     94  CD        36.1230   94.4400   39.2710 C.3   598  ARG598      0.2205
     95  NE        37.0420   94.2100   40.3710 N.pl3 598  ARG598     -0.0865
     96  CZ        37.1130   94.9800   41.4510 C.cat 598  ARG598      0.5346
     97  NH1       36.3070   96.0310   41.5660 N.pl3 598  ARG598      0.1354
     98  NH2       37.9930   94.7050   42.4130 N.pl3 598  ARG598      0.1354
     99  N         34.6740   91.1800   33.0350 N.3   612  TRP612     -0.1241
    100  CA        34.2930   92.5250   32.6220 C.3   612  TRP612      0.1605
    101  C         35.3550   93.5430   33.0280 C.2   612  TRP612      0.2264
    102  O         36.2840   93.2100   33.7630 O.2   612  TRP612     -0.2867
    103  CB        32.8760   92.8900   33.0790 C.3   612  TRP612      0.0550
    104  CG        32.7530   93.6410   34.3800 C.ar  612  TRP612      0.0003
    105  CD1       32.4300   94.9680   34.5420 C.ar  612  TRP612      0.0946
    106  CD2       32.9190   93.1030   35.6990 C.ar  612  TRP612      0.0152
    107  NE1       32.3900   95.2790   35.8820 N.ar  612  TRP612     -0.2442
    108  CE2       32.6870   94.1550   36.6130 C.ar  612  TRP612      0.0810
    109  CE3       33.2410   91.8300   36.1960 C.ar  612  TRP612      0.0012
    110  CZ2       32.7670   93.9750   37.9990 C.ar  612  TRP612      0.0191
    111  CZ3       33.3160   91.6530   37.5730 C.ar  612  TRP612      0.0001
    112  CH2       33.0820   92.7230   38.4570 C.ar  612  TRP612      0.0015
    113  N         35.4410   98.8060   37.0350 N.3   615  ASP615     -0.1239
    114  CA        34.8950  100.0990   37.4500 C.3   615  ASP615      0.1674
    115  C         35.2700  101.2660   36.5330 C.2   615  ASP615      0.2266
    116  O         35.8890  102.2320   36.9670 O.2   615  ASP615     -0.2867
    117  CB        35.3100  100.4080   38.8980 C.3   615  ASP615      0.1410
    118  CG        34.6940   99.4430   39.8990 C.2   615  ASP615      0.3668
    119  OD1       33.6870   98.7960   39.5310 O.co2 615  ASP615     -0.2456
    120  OD2       35.2080   99.3330   41.0400 O.co2 615  ASP615     -0.2456
    121  N         30.3400   97.4890   32.1110 N.3   644  ASP644     -0.1239
    122  CA        29.1480   98.1070   32.6680 C.3   644  ASP644      0.1674
    123  C         28.5910   99.0950   31.6550 C.2   644  ASP644      0.2266
    124  O         29.1110  100.2010   31.5360 O.2   644  ASP644     -0.2867
    125  CB        29.4910   98.8840   33.9360 C.3   644  ASP644      0.1410
    126  CG        29.8460   97.9860   35.1050 C.2   644  ASP644      0.3668
    127  OD1       29.6300   96.7630   35.0090 O.co2 644  ASP644     -0.2456
    128  OD2       30.3340   98.5130   36.1240 O.co2 644  ASP644     -0.2456
    129  N         30.5270  102.3300   35.4080 N.3   648  PHE648     -0.1241
    130  CA        30.2770  102.0550   36.8330 C.3   648  PHE648      0.1605
    131  C         29.9730  103.3260   37.6200 C.2   648  PHE648      0.2264
    132  O         28.9520  103.3890   38.2790 O.2   648  PHE648     -0.2867
    133  CB        31.4170  101.2490   37.4860 C.3   648  PHE648      0.0534
    134  CG        31.1520  100.8690   38.9360 C.ar  648  PHE648     -0.0203
    135  CD1       30.2410   99.8710   39.2570 C.ar  648  PHE648     -0.0042
    136  CD2       31.8230  101.5050   39.9770 C.ar  648  PHE648     -0.0042
    137  CE1       29.9950   99.5240   40.5830 C.ar  648  PHE648     -0.0003
    138  CE2       31.5800  101.1580   41.2970 C.ar  648  PHE648     -0.0003
    139  CZ        30.6640  100.1670   41.5990 C.ar  648  PHE648     -0.0000
    140  N         24.8310   97.8760   34.3010 N.3   696  HIS696     -0.1241
    141  CA        25.1780   97.8900   35.7240 C.3   696  HIS696      0.1621
    142  C         25.8070   99.2050   36.1320 C.2   696  HIS696      0.2264
    143  O         26.2720   99.9580   35.2940 O.2   696  HIS696     -0.2867
    144  CB        26.1530   96.7610   36.0620 C.3   696  HIS696      0.0745
    145  CG        26.6460   96.7940   37.4770 C.ar  696  HIS696      0.0817
    146  ND1       25.8470   96.4700   38.5530 N.ar  696  HIS696     -0.2268
    147  CD2       27.8580   97.1150   37.9940 C.ar  696  HIS696      0.1154
    148  CE1       26.5470   96.5830   39.6690 C.ar  696  HIS696      0.1986
    149  NE2       27.7700   96.9680   39.3560 N.ar  696  HIS696     -0.2212
@<TRIPOS>BOND
     1   124   123    2
     2   123   122    1
     3   121   122    1
     4   100   101    1
     5   100    99    1
     6   100   103    1
     7   122   125    1
     8   101   102    2
     9   103   104    1
    10   125   126    1
    11   140   141    1
    12   104   105   ar
    13   104   106   ar
    14   105   107   ar
    15   127   126   ar
    16   126   128   ar
    17   143   142    2
    18   129   130    1
    19   106   109   ar
    20   106   108   ar
    21   141   144    1
    22   141   142    1
    23   107   108   ar
    24   144   145    1
    25   109   111   ar
    26   115   116    2
    27   115   114    1
    28   108   110   ar
    29    91    90    2
    30   130   133    1
    31   130   131    1
    32    90    89    1
    33   113   114    1
    34    89    88    1
    35    89    92    1
    36   114   117    1
    37   145   147   ar
    38   145   146   ar
    39   133   134    1
    40   111   112   ar
    41   131   132    2
    42   147   149   ar
    43   110   112   ar
    44    93    92    1
    45    93    94    1
    46   146   148   ar
    47   117   118    1
    48   134   135   ar
    49   134   136   ar
    50    74    72   ar
    51    74    75   ar
    52   135   137   ar
    53    94    95    1
    54    72    71   ar
    55   149   148   ar
    56    77    75   ar
    57    77    79   ar
    58   119   118   ar
    59    75    73   ar
    60   118   120   ar
    61   136   138   ar
    62    71    73   ar
    63    71    70    1
    64    79    78   ar
    65    73    76   ar
    66    95    96    2
    67    67    70    1
    68    67    66    1
    69    67    68    1
    70   137   139   ar
    71    78    76   ar
    72   138   139   ar
    73    15    16    1
    74    68    69    2
    75    96    97    1
    76    96    98    1
    77    86    85   ar
    78    19    16    1
    79    19    20    1
    80    81    80    1
    81    81    84    1
    82    81    82    1
    83    85    87   ar
    84    85    84    1
    85    16    17    1
    86    31    29   ar
    87    82    83    2
    88    18    17    2
    89     3     4    2
    90     3     2    1
    91    29    28    1
    92    29    30   ar
    93    20    21    1
    94    12    10   ar
    95    12    14   ar
    96     9    10   ar
    97     9     7   ar
    98    28    25    1
    99    10     8   ar
   100     1     2    1
   101    24    25    1
   102    14    13   ar
   103    46    47    1
   104     7     6   ar
   105    25    26    1
   106    47    50    1
   107    47    48    1
   108    22    21   ar
   109     2     5    1
   110     8     6   ar
   111     8    11   ar
   112    21    23   ar
   113    13    11   ar
   114     6     5    1
   115    50    51    1
   116    48    49    2
   117    26    32   am
   118    26    27    2
   119    32    33    1
   120    60    61   ar
   121    60    58   ar
   122    43    45   ar
   123    43    41   ar
   124    63    61   ar
   125    63    65   ar
   126    45    44   ar
   127    61    59   ar
   128    40    41   ar
   129    40    38   ar
   130    41    39   ar
   131    58    57   ar
   132    44    42   ar
   133    65    64   ar
   134    38    37   ar
   135    39    42   ar
   136    39    37   ar
   137    52    53    1
   138    53    54    1
   139    53    56    1
   140    37    36    1
   141    59    57   ar
   142    59    62   ar
   143    57    56    1
   144    64    62   ar
   145    33    36    1
   146    33    34    1
   147    54    55    2
   148    35    34    2
