@<TRIPOS>MOLECULE
tmp/2xvlA00.pdb
 173 168 0 0 0
SMALL
GASTEIGER

@<TRIPOS>ATOM
      1  N         41.7430   97.1030   38.8660 N.3   162  ASN162     -0.1240
      2  CA        40.3150   97.2970   38.6950 C.3   162  ASN162      0.1653
      3  C         39.9420   97.3950   37.2030 C.2   162  ASN162      0.2266
      4  O         39.0160   96.7240   36.7430 O.2   162  ASN162     -0.2867
      5  CB        39.8770   98.5550   39.4570 C.3   162  ASN162      0.1155
      6  CG        38.3750   98.7530   39.4480 C.2   162  ASN162      0.2627
      7  OD1       37.7490   98.7700   38.3890 O.2   162  ASN162     -0.2716
      8  ND2       37.7870   98.9010   40.6310 N.am  162  ASN162     -0.0877
      9  N         47.9710  105.9040   48.7310 N.3   237  TYR237     -0.1241
     10  CA        47.9010  105.8510   50.1800 C.3   237  TYR237      0.1605
     11  C         49.0160  104.9280   50.6510 C.2   237  TYR237      0.2264
     12  O         49.3360  103.9440   49.9770 O.2   237  TYR237     -0.2867
     13  CB        46.5900  105.2110   50.6220 C.3   237  TYR237      0.0534
     14  CG        45.3280  106.0130   50.4000 C.ar  237  TYR237     -0.0201
     15  CD1       45.3220  107.4010   50.5030 C.ar  237  TYR237     -0.0009
     16  CD2       44.1260  105.3670   50.1360 C.ar  237  TYR237     -0.0009
     17  CE1       44.1570  108.1200   50.3270 C.ar  237  TYR237      0.0417
     18  CE2       42.9570  106.0750   49.9620 C.ar  237  TYR237      0.0417
     19  CZ        42.9740  107.4470   50.0540 C.ar  237  TYR237      0.1957
     20  OH        41.7970  108.1390   49.8750 O.3   237  TYR237     -0.2866
     21  N         37.3590  109.7630   42.4070 N.3   302  ASN302     -0.1225
     22  CA        38.6060  109.8470   43.1740 C.3   302  ASN302      0.1785
     23  C         39.2650  108.5000   43.4590 C.2   302  ASN302      0.2597
     24  O         40.4790  108.3580   43.3200 O.2   302  ASN302     -0.2718
     25  CB        38.4140  110.6430   44.4780 C.3   302  ASN302      0.1169
     26  CG        37.1630  110.2330   45.2440 C.2   302  ASN302      0.2627
     27  OD1       36.7880  109.0640   45.2750 O.2   302  ASN302     -0.2716
     28  ND2       36.5150  111.2060   45.8740 N.am  302  ASN302     -0.0877
     29  N         38.4620  107.5140   43.8500 N.am  303  TRP303     -0.1976
     30  CA        39.0000  106.2420   44.3160 C.3   303  TRP303      0.1640
     31  C         39.4310  105.2580   43.2140 C.2   303  TRP303      0.2290
     32  O         39.9440  104.1800   43.5160 O.2   303  TRP303     -0.2864
     33  CB        38.0130  105.5730   45.2860 C.3   303  TRP303      0.0576
     34  CG        36.6400  105.3520   44.7110 C.ar  303  TRP303      0.0006
     35  CD1       35.5690  106.2000   44.7910 C.ar  303  TRP303      0.0946
     36  CD2       36.1870  104.2060   43.9770 C.ar  303  TRP303      0.0152
     37  NE1       34.4760  105.6530   44.1490 N.ar  303  TRP303     -0.2442
     38  CE2       34.8320  104.4310   43.6410 C.ar  303  TRP303      0.0810
     39  CE3       36.7930  103.0180   43.5700 C.ar  303  TRP303      0.0012
     40  CZ2       34.0780  103.5080   42.9200 C.ar  303  TRP303      0.0191
     41  CZ3       36.0410  102.1030   42.8490 C.ar  303  TRP303      0.0001
     42  CH2       34.6990  102.3530   42.5380 C.ar  303  TRP303      0.0015
     43  N         24.2610   99.1470   41.2320 N.3   398  GLU398     -0.1245
     44  CA        24.9780   99.3360   42.4930 C.3   398  GLU398      0.1567
     45  C         24.1740  100.3240   43.3570 C.2   398  GLU398      0.2260
     46  O         24.3780  101.5310   43.2540 O.2   398  GLU398     -0.2867
     47  CB        26.3930   99.8720   42.2250 C.3   398  GLU398      0.0388
     48  CG        27.3760   99.7460   43.4120 C.3   398  GLU398      0.1160
     49  CD        27.0280  100.6670   44.5810 C.2   398  GLU398      0.3649
     50  OE1       27.2810  101.8850   44.4750 O.co2 398  GLU398     -0.2457
     51  OE2       26.5000  100.1740   45.6030 O.co2 398  GLU398     -0.2457
     52  N         23.9350   93.0420   43.8050 N.3   426  ASP426     -0.1225
     53  CA        25.2860   93.5150   44.0870 C.3   426  ASP426      0.1805
     54  C         25.6230   93.2730   45.5710 C.2   426  ASP426      0.2597
     55  O         24.8810   92.6000   46.2950 O.2   426  ASP426     -0.2718
     56  CB        25.3470   95.0120   43.7550 C.3   426  ASP426      0.1424
     57  CG        26.7440   95.5010   43.4180 C.2   426  ASP426      0.3668
     58  OD1       27.7570   94.8780   43.8220 O.co2 426  ASP426     -0.2456
     59  OD2       26.8190   96.5440   42.7410 O.co2 426  ASP426     -0.2456
     60  N         26.7340   93.8400   46.0240 N.am  427  TRP427     -0.1976
     61  CA        27.2090   93.6190   47.3790 C.3   427  TRP427      0.1640
     62  C         26.2100   94.1050   48.4400 C.2   427  TRP427      0.2290
     63  O         25.2170   94.7810   48.1310 O.2   427  TRP427     -0.2864
     64  CB        28.5400   94.3420   47.5690 C.3   427  TRP427      0.0576
     65  CG        28.3770   95.8260   47.5590 C.ar  427  TRP427      0.0006
     66  CD1       28.0800   96.6190   46.4850 C.ar  427  TRP427      0.0946
     67  CD2       28.4780   96.6990   48.6870 C.ar  427  TRP427      0.0152
     68  NE1       28.0010   97.9360   46.8730 N.ar  427  TRP427     -0.2442
     69  CE2       28.2390   98.0120   48.2220 C.ar  427  TRP427      0.0810
     70  CE3       28.7580   96.5020   50.0470 C.ar  427  TRP427      0.0012
     71  CZ2       28.2690   99.1200   49.0730 C.ar  427  TRP427      0.0191
     72  CZ3       28.7830   97.6010   50.8850 C.ar  427  TRP427      0.0001
     73  CH2       28.5410   98.8940   50.3930 C.ar  427  TRP427      0.0015
     74  N         32.4970   88.2860   47.1230 N.3   467  TRP467     -0.1241
     75  CA        33.8960   88.7060   47.1100 C.3   467  TRP467      0.1605
     76  C         34.7770   87.6310   47.7530 C.2   467  TRP467      0.2264
     77  O         34.2590   86.6770   48.3470 O.2   467  TRP467     -0.2867
     78  CB        34.0440   89.9960   47.9120 C.3   467  TRP467      0.0550
     79  CG        33.4230   91.1930   47.2660 C.ar  467  TRP467      0.0003
     80  CD1       32.2330   91.2520   46.5820 C.ar  467  TRP467      0.0946
     81  CD2       33.9500   92.5160   47.2670 C.ar  467  TRP467      0.0152
     82  NE1       32.0040   92.5320   46.1460 N.ar  467  TRP467     -0.2442
     83  CE2       33.0480   93.3270   46.5510 C.ar  467  TRP467      0.0810
     84  CE3       35.1090   93.0930   47.7930 C.ar  467  TRP467      0.0012
     85  CZ2       33.2680   94.6790   46.3550 C.ar  467  TRP467      0.0191
     86  CZ3       35.3190   94.4360   47.6030 C.ar  467  TRP467      0.0001
     87  CH2       34.4080   95.2140   46.8880 C.ar  467  TRP467      0.0015
     88  N         35.2690  100.7610   53.8460 N.3   498  TRP498     -0.1241
     89  CA        34.4840  101.9870   53.7520 C.3   498  TRP498      0.1605
     90  C         33.1220  101.9390   54.4520 C.2   498  TRP498      0.2264
     91  O         32.3720  102.9110   54.3960 O.2   498  TRP498     -0.2867
     92  CB        34.2460  102.3120   52.2730 C.3   498  TRP498      0.0550
     93  CG        33.5180  101.2050   51.5410 C.ar  498  TRP498      0.0003
     94  CD1       32.1780  101.1280   51.2930 C.ar  498  TRP498      0.0946
     95  CD2       34.0980  100.0130   50.9830 C.ar  498  TRP498      0.0152
     96  NE1       31.8870   99.9690   50.6030 N.ar  498  TRP498     -0.2442
     97  CE2       33.0460   99.2670   50.4000 C.ar  498  TRP498      0.0810
     98  CE3       35.4060   99.5090   50.9100 C.ar  498  TRP498      0.0012
     99  CZ2       33.2580   98.0370   49.7570 C.ar  498  TRP498      0.0191
    100  CZ3       35.6190   98.2840   50.2640 C.ar  498  TRP498      0.0001
    101  CH2       34.5460   97.5620   49.7010 C.ar  498  TRP498      0.0015
    102  N         33.4750   89.3270   42.3740 N.3   538  ASP538     -0.1239
    103  CA        34.0140   90.6850   42.3010 C.3   538  ASP538      0.1674
    104  C         35.3490   90.8450   43.0300 C.2   538  ASP538      0.2266
    105  O         35.6930   90.0420   43.9100 O.2   538  ASP538     -0.2867
    106  CB        33.0070   91.6610   42.9270 C.3   538  ASP538      0.1410
    107  CG        33.1590   93.0880   42.4020 C.2   538  ASP538      0.3668
    108  OD1       34.2060   93.4090   41.7950 O.co2 538  ASP538     -0.2456
    109  OD2       32.2170   93.8870   42.5870 O.co2 538  ASP538     -0.2456
    110  N         41.5380   93.2870   45.0570 N.3   543  ASP543     -0.1239
    111  CA        41.6330   94.6570   45.5190 C.3   543  ASP543      0.1674
    112  C         41.3700   94.6450   47.0230 C.2   543  ASP543      0.2266
    113  O         40.2590   94.9340   47.4820 O.2   543  ASP543     -0.2867
    114  CB        40.6400   95.5520   44.7760 C.3   543  ASP543      0.1410
    115  CG        40.8640   97.0280   45.0550 C.2   543  ASP543      0.3668
    116  OD1       42.0330   97.4850   45.0430 O.co2 543  ASP543     -0.2456
    117  OD2       39.8620   97.7300   45.2780 O.co2 543  ASP543     -0.2456
    118  N         42.0460   99.5190   48.3770 N.3   546  SER546     -0.1217
    119  CA        42.2370  100.3630   47.2100 C.3   546  SER546      0.1889
    120  C         43.2950  101.4360   47.4150 C.2   546  SER546      0.2288
    121  O         43.4390  101.9710   48.5110 O.2   546  SER546     -0.2866
    122  CB        40.9130  101.0120   46.8170 C.3   546  SER546      0.2089
    123  OG        39.9900  100.0140   46.4420 O.3   546  SER546     -0.2183
    124  N         35.8990   90.0730   37.8000 N.3   598  ARG598     -0.1245
    125  CA        36.4530   91.3890   37.4610 C.3   598  ARG598      0.1563
    126  C         37.9170   91.3460   37.0720 C.2   598  ARG598      0.2260
    127  O         38.5120   92.3680   36.7410 O.2   598  ARG598     -0.2867
    128  CB        36.2680   92.3810   38.6100 C.3   598  ARG598      0.0307
    129  CG        36.2470   93.8440   38.1600 C.3   598  ARG598      0.0489
    130  CD        35.9350   94.7710   39.3380 C.3   598  ARG598      0.2205
    131  NE        37.0280   94.8030   40.3080 N.pl3 598  ARG598     -0.0865
    132  CZ        36.9980   95.5020   41.4380 C.cat 598  ARG598      0.5346
    133  NH1       35.9170   96.2090   41.7510 N.pl3 598  ARG598      0.1354
    134  NH2       38.0340   95.4810   42.2620 N.pl3 598  ARG598      0.1354
    135  N         35.3230   99.2100   36.9930 N.3   615  ASP615     -0.1239
    136  CA        34.7310  100.4860   37.4000 C.3   615  ASP615      0.1674
    137  C         35.1770  101.6710   36.5410 C.2   615  ASP615      0.2266
    138  O         35.7990  102.6120   37.0300 O.2   615  ASP615     -0.2867
    139  CB        35.0330  100.7640   38.8790 C.3   615  ASP615      0.1410
    140  CG        34.4420   99.7170   39.7910 C.2   615  ASP615      0.3668
    141  OD1       33.4680   99.0500   39.3640 O.co2 615  ASP615     -0.2456
    142  OD2       34.9540   99.5510   40.9270 O.co2 615  ASP615     -0.2456
    143  N         30.5460  102.9880   35.2030 N.3   648  PHE648     -0.1241
    144  CA        30.2050  102.6450   36.5910 C.3   648  PHE648      0.1605
    145  C         29.8800  103.8720   37.4400 C.2   648  PHE648      0.2264
    146  O         28.8200  103.9390   38.0630 O.2   648  PHE648     -0.2867
    147  CB        31.3190  101.8290   37.2530 C.3   648  PHE648      0.0534
    148  CG        31.0360  101.4610   38.6970 C.ar  648  PHE648     -0.0203
    149  CD1       30.1050  100.4740   39.0110 C.ar  648  PHE648     -0.0042
    150  CD2       31.7190  102.0890   39.7400 C.ar  648  PHE648     -0.0042
    151  CE1       29.8510  100.1180   40.3420 C.ar  648  PHE648     -0.0003
    152  CE2       31.4760  101.7440   41.0710 C.ar  648  PHE648     -0.0003
    153  CZ        30.5400  100.7620   41.3730 C.ar  648  PHE648     -0.0000
    154  N         24.9880  112.5580   39.6180 N.3   655  ARG655     -0.1245
    155  CA        24.6090  111.7540   40.7830 C.3   655  ARG655      0.1563
    156  C         23.6660  112.4830   41.7440 C.2   655  ARG655      0.2260
    157  O         22.8900  111.8560   42.4600 O.2   655  ARG655     -0.2867
    158  CB        25.8570  111.2530   41.5260 C.3   655  ARG655      0.0307
    159  CG        26.8230  110.4500   40.6380 C.3   655  ARG655      0.0489
    160  CD        27.7330  109.5640   41.4660 C.3   655  ARG655      0.2205
    161  NE        27.0220  108.4840   42.1510 N.pl3 655  ARG655     -0.0865
    162  CZ        27.5520  107.7610   43.1370 C.cat 655  ARG655      0.5346
    163  NH1       28.7910  108.0120   43.5440 N.pl3 655  ARG655      0.1354
    164  NH2       26.8530  106.7910   43.7200 N.pl3 655  ARG655      0.1354
    165  N         26.5770  102.8660   39.4330 N.3   698  GLN698     -0.1245
    166  CA        26.1150  103.6610   40.5680 C.3   698  GLN698      0.1566
    167  C         25.0520  104.6370   40.0780 C.2   698  GLN698      0.2260
    168  O         24.8940  104.8230   38.8580 O.2   698  GLN698     -0.2867
    169  CB        27.2820  104.4300   41.1830 C.3   698  GLN698      0.0367
    170  CG        28.5040  103.5660   41.5080 C.3   698  GLN698      0.0905
    171  CD        29.4130  104.2170   42.5500 C.2   698  GLN698      0.2608
    172  OE1       30.2310  105.0860   42.2320 O.2   698  GLN698     -0.2717
    173  NE2       29.2650  103.7980   43.8020 N.am  698  GLN698     -0.0878
@<TRIPOS>BOND
     1   143   144    1
     2   137   138    2
     3   137   136    1
     4   144   147    1
     5   144   145    1
     6   127   126    2
     7     4     3    2
     8   135   136    1
     9   126   125    1
    10     3     2    1
    11   147   148    1
    12   136   139    1
    13   145   146    2
    14   125   124    1
    15   125   128    1
    16   129   128    1
    17   129   130    1
    18     7     6    2
    19     2     1    1
    20     2     5    1
    21   148   149   ar
    22   148   150   ar
    23   168   167    2
    24   139   140    1
    25   149   151   ar
    26   130   131    1
    27   141   140   ar
    28   165   166    1
    29     6     5    1
    30     6     8   am
    31   154   155    1
    32   150   152   ar
    33   140   142   ar
    34   167   166    1
    35   131   132    2
    36   151   153   ar
    37   166   169    1
    38   159   160    1
    39   159   158    1
    40   155   158    1
    41   155   156    1
    42   152   153   ar
    43   169   170    1
    44    43    44    1
    45   132   133    1
    46   132   134    1
    47   160   161    1
    48   170   171    1
    49   156   157    2
    50   108   107   ar
    51   161   162    2
    52    47    44    1
    53    47    48    1
    54   172   171    2
    55   103   102    1
    56   103   106    1
    57   103   104    1
    58   107   109   ar
    59   107   106    1
    60    21    22    1
    61    44    45    1
    62    42    41   ar
    63    42    40   ar
    64   171   173   am
    65    59    57   ar
    66    41    39   ar
    67    40    38   ar
    68   104   105    2
    69   162   163    1
    70   162   164    1
    71    22    23    1
    72    22    25    1
    73    31    32    2
    74    31    30    1
    75    46    45    2
    76    24    23    2
    77    48    49    1
    78    57    56    1
    79    57    58   ar
    80    23    29   am
    81    39    36   ar
    82    38    36   ar
    83    38    37   ar
    84    56    53    1
    85    52    53    1
    86    29    30    1
    87    36    34   ar
    88    53    54    1
    89    37    35   ar
    90    30    33    1
    91    50    49   ar
    92    25    26    1
    93    49    51   ar
    94    34    35   ar
    95    34    33    1
    96   114   115    1
    97   114   111    1
    98   116   115   ar
    99   115   117   ar
   100   110   111    1
   101    26    27    2
   102    26    28   am
   103   111   112    1
   104    54    60   am
   105    54    55    2
   106    60    61    1
   107    82    83   ar
   108    82    80   ar
   109    85    83   ar
   110    85    87   ar
   111   123   122    1
   112    66    68   ar
   113    66    65   ar
   114    83    81   ar
   115    80    79   ar
   116   122   119    1
   117    68    69   ar
   118    87    86   ar
   119   112   113    2
   120    75    74    1
   121    75    76    1
   122    75    78    1
   123   119   120    1
   124   119   118    1
   125    79    81   ar
   126    79    78    1
   127    81    84   ar
   128    61    64    1
   129    61    62    1
   130   120   121    2
   131    65    64    1
   132    65    67   ar
   133    86    84   ar
   134    76    77    2
   135    63    62    2
   136    69    67   ar
   137    69    71   ar
   138    67    70   ar
   139     9    10    1
   140    71    73   ar
   141   101    99   ar
   142   101   100   ar
   143    99    97   ar
   144    20    19    1
   145    18    19   ar
   146    18    16   ar
   147    12    11    2
   148    70    72   ar
   149    19    17   ar
   150    16    14   ar
   151    10    13    1
   152    10    11    1
   153   100    98   ar
   154    17    15   ar
   155    73    72   ar
   156    97    96   ar
   157    97    95   ar
   158    14    15   ar
   159    14    13    1
   160    96    94   ar
   161    98    95   ar
   162    95    93   ar
   163    94    93   ar
   164    93    92    1
   165    92    89    1
   166    89    88    1
   167    89    90    1
   168    91    90    2
