@<TRIPOS>MOLECULE
tmp/2xvmB00.pdb
 151 145 0 0 0
SMALL
GASTEIGER

@<TRIPOS>ATOM
      1  N        -44.1230  -13.6780   -8.2880 N.3    33  ASP33      -0.1225
      2  CA       -42.9710  -14.3690   -8.8900 C.3    33  ASP33       0.1805
      3  C        -42.5330  -15.4290   -7.9140 C.2    33  ASP33       0.2598
      4  O        -41.9330  -15.0940   -6.8490 O.2    33  ASP33      -0.2718
      5  CB       -41.8540  -13.3180   -9.1400 C.3    33  ASP33       0.1424
      6  CG       -40.6590  -13.8550   -9.9310 C.2    33  ASP33       0.3668
      7  OD1      -40.6630  -14.9530  -10.3670 O.co2  33  ASP33      -0.2456
      8  OD2      -39.6710  -13.1570  -10.1640 O.co2  33  ASP33      -0.2456
      9  N        -42.9240  -16.6820   -8.2090 N.am   34  LEU34      -0.1966
     10  CA       -42.6860  -17.8420   -7.3170 C.3    34  LEU34       0.1728
     11  C        -41.2960  -18.4390   -7.5320 C.2    34  LEU34       0.2617
     12  O        -41.0510  -19.2280   -8.4790 O.2    34  LEU34      -0.2715
     13  CB       -43.7630  -18.8700   -7.4330 C.3    34  LEU34       0.0311
     14  CG       -45.1800  -18.4070   -7.0580 C.3    34  LEU34       0.0022
     15  CD1      -46.0780  -19.6690   -7.2770 C.3    34  LEU34       0.0001
     16  CD2      -45.2220  -17.9410   -5.6000 C.3    34  LEU34       0.0001
     17  N        -40.3850  -18.0970   -6.6200 N.am   35  GLY35      -0.1940
     18  CA       -38.9970  -18.5120   -6.7340 C.3    35  GLY35       0.2014
     19  C        -38.2210  -17.4830   -7.5510 C.2    35  GLY35       0.2639
     20  O        -37.5910  -17.7930   -8.5930 O.2    35  GLY35      -0.2714
     21  N        -38.2130  -16.2570   -7.0610 N.am   36  CYS36      -0.1953
     22  CA       -37.6700  -15.1090   -7.8050 C.3    36  CYS36       0.1843
     23  C        -36.1330  -15.0760   -7.9680 C.2    36  CYS36       0.2626
     24  O        -35.6450  -14.3030   -8.7930 O.2    36  CYS36      -0.2714
     25  CB       -38.1130  -13.8370   -7.1230 C.3    36  CYS36       0.0997
     26  SG       -37.4880  -13.5910   -5.4310 S.3    36  CYS36      -0.0797
     27  N        -35.4110  -15.9110   -7.1890 N.am   37  GLY37      -0.1954
     28  CA       -33.9490  -15.9080   -7.1600 C.3    37  GLY37       0.1869
     29  C        -33.4360  -14.5040   -6.8580 C.2    37  GLY37       0.2309
     30  O        -33.9850  -13.8230   -5.9880 O.2    37  GLY37      -0.2863
     31  N        -33.9430  -11.0920  -11.3380 N.3    40  ARG40      -0.1231
     32  CA       -33.9210  -10.5520  -12.7350 C.3    40  ARG40       0.1694
     33  C        -35.3440  -10.2480  -13.2820 C.2    40  ARG40       0.2592
     34  O        -35.5520   -9.2360  -13.9030 O.2    40  ARG40      -0.2718
     35  CB       -33.2010  -11.5020  -13.7220 C.3    40  ARG40       0.0321
     36  CG       -33.8020  -12.9150  -13.7320 C.3    40  ARG40       0.0489
     37  CD       -33.2790  -13.6720  -14.9840 C.3    40  ARG40       0.2205
     38  NE       -33.6620  -15.0480  -14.9440 N.pl3  40  ARG40      -0.0865
     39  CZ       -33.5550  -15.8770  -15.9990 C.cat  40  ARG40       0.5346
     40  NH1      -33.0000  -15.4850  -17.1390 N.pl3  40  ARG40       0.1354
     41  NH2      -33.9190  -17.1220  -15.8130 N.pl3  40  ARG40       0.1354
     42  N        -36.3110  -11.1510  -13.0560 N.am   41  ASN41      -0.1974
     43  CA       -37.6350  -10.9700  -13.6190 C.3    41  ASN41       0.1688
     44  C        -38.4960  -10.0610  -12.7410 C.2    41  ASN41       0.2292
     45  O        -39.2060   -9.2120  -13.2750 O.2    41  ASN41      -0.2864
     46  CB       -38.3200  -12.3150  -13.8530 C.3    41  ASN41       0.1181
     47  CG       -37.5090  -13.2120  -14.7150 C.2    41  ASN41       0.2629
     48  OD1      -37.3070  -14.3930  -14.3630 O.2    41  ASN41      -0.2716
     49  ND2      -36.9560  -12.6660  -15.7870 N.am   41  ASN41      -0.0877
     50  N        -38.8900  -16.4170   -2.4280 N.3    56  ASP56      -0.1225
     51  CA       -37.8490  -17.4280   -2.6390 C.3    56  ASP56       0.1805
     52  C        -37.4650  -18.0330   -1.2790 C.2    56  ASP56       0.2598
     53  O        -37.6950  -17.3800   -0.2640 O.2    56  ASP56      -0.2718
     54  CB       -36.6130  -16.7790   -3.2930 C.3    56  ASP56       0.1424
     55  CG       -35.7610  -17.7950   -4.0340 C.2    56  ASP56       0.3668
     56  OD1      -34.9600  -18.5760   -3.4080 O.co2  56  ASP56      -0.2456
     57  OD2      -35.9880  -17.9100   -5.2560 O.co2  56  ASP56      -0.2456
     58  N        -36.9320  -19.2560   -1.2680 N.am   57  LYS57      -0.1966
     59  CA       -36.4020  -19.8460   -0.0240 C.3    57  LYS57       0.1728
     60  C        -35.0540  -19.2310    0.3790 C.2    57  LYS57       0.2616
     61  O        -34.6390  -19.3410    1.5540 O.2    57  LYS57      -0.2715
     62  CB       -36.2650  -21.3650   -0.1260 C.3    57  LYS57       0.0311
     63  CG       -35.1680  -21.8320   -1.0570 C.3    57  LYS57       0.0038
     64  CD       -35.0210  -23.3210   -0.9590 C.3    57  LYS57       0.0206
     65  CE       -33.9950  -23.8670   -1.9520 C.3    57  LYS57       0.1093
     66  NZ       -32.8960  -22.9190   -2.2070 N.3    57  LYS57      -0.1314
     67  N        -34.3580  -18.5660   -0.5650 N.am   58  ASN58      -0.1972
     68  CA       -32.9930  -18.1950   -0.3340 C.3    58  ASN58       0.1688
     69  C        -32.9300  -16.8380    0.2800 C.2    58  ASN58       0.2292
     70  O        -33.1750  -15.8380   -0.3700 O.2    58  ASN58      -0.2864
     71  CB       -32.1720  -18.2980   -1.6500 C.3    58  ASN58       0.1181
     72  CG       -30.6720  -18.0990   -1.4240 C.2    58  ASN58       0.2629
     73  OD1      -30.2740  -17.2530   -0.6180 O.2    58  ASN58      -0.2716
     74  ND2      -29.8460  -18.8650   -2.1350 N.am   58  ASN58      -0.0877
     75  N        -30.5810  -14.3850   -1.3530 N.3    61  SER61      -0.1217
     76  CA       -31.1330  -13.8030   -2.5940 C.3    61  SER61       0.1889
     77  C        -32.1730  -12.7310   -2.3050 C.2    61  SER61       0.2288
     78  O        -32.1580  -11.6710   -2.8980 O.2    61  SER61      -0.2866
     79  CB       -31.7190  -14.8650   -3.4990 C.3    61  SER61       0.2089
     80  OG       -30.6870  -15.8050   -3.7430 O.3    61  SER61      -0.2183
     81  N        -39.9830  -17.7050    1.5990 N.3    82  VAL82      -0.1231
     82  CA       -40.9450  -18.8290    1.6950 C.3    82  VAL82       0.1692
     83  C        -40.3290  -20.1160    1.2350 C.2    82  VAL82       0.2592
     84  O        -39.4190  -20.0930    0.3880 O.2    82  VAL82      -0.2718
     85  CB       -42.2340  -18.6010    0.8250 C.3    82  VAL82       0.0266
     86  CG1      -42.8260  -17.2750    1.1440 C.3    82  VAL82       0.0020
     87  CG2      -41.9170  -18.8620   -0.7110 C.3    82  VAL82       0.0020
     88  N        -40.8910  -21.2380    1.7040 N.am   83  ASP83      -0.1960
     89  CA       -40.5950  -22.5790    1.1940 C.3    83  ASP83       0.1840
     90  C        -41.8180  -23.0640    0.3790 C.2    83  ASP83       0.2622
     91  O        -42.8840  -23.3620    0.9440 O.2    83  ASP83      -0.2715
     92  CB       -40.2990  -23.5710    2.3090 C.3    83  ASP83       0.1450
     93  CG       -39.8560  -24.9640    1.7600 C.2    83  ASP83       0.3671
     94  OD1      -40.0390  -25.3290    0.5560 O.co2  83  ASP83      -0.2456
     95  OD2      -39.3320  -25.7270    2.5890 O.co2  83  ASP83      -0.2456
     96  N        -41.6750  -23.0720   -0.9520 N.am   84  LEU84      -0.1963
     97  CA       -42.7670  -23.4570   -1.8090 C.3    84  LEU84       0.1728
     98  C        -43.2260  -24.8980   -1.6030 C.2    84  LEU84       0.2616
     99  O        -44.3750  -25.2200   -1.9350 O.2    84  LEU84      -0.2715
    100  CB       -42.3330  -23.2450   -3.2610 C.3    84  LEU84       0.0311
    101  CG       -42.1050  -21.8000   -3.7190 C.3    84  LEU84       0.0022
    102  CD1      -41.4420  -21.8530   -5.1530 C.3    84  LEU84       0.0001
    103  CD2      -43.4390  -21.1450   -3.7990 C.3    84  LEU84       0.0001
    104  N        -42.4360  -25.7320   -0.9050 N.am   85  ASN85      -0.1972
    105  CA       -42.9140  -27.0660   -0.5380 C.3    85  ASN85       0.1688
    106  C        -43.8720  -27.0920    0.6430 C.2    85  ASN85       0.2292
    107  O        -44.3900  -28.1750    0.9610 O.2    85  ASN85      -0.2864
    108  CB       -41.7610  -28.0050   -0.2160 C.3    85  ASN85       0.1181
    109  CG       -40.9270  -28.3290   -1.4050 C.2    85  ASN85       0.2629
    110  OD1      -39.6940  -28.2070   -1.3480 O.2    85  ASN85      -0.2716
    111  ND2      -41.5680  -28.8540   -2.4670 N.am   85  ASN85      -0.0877
    112  N        -40.6620  -19.3970  -13.2740 N.3    99  THR99      -0.1203
    113  CA       -39.7380  -19.7470  -14.3840 C.3    99  THR99       0.1994
    114  C        -38.4850  -20.4820  -13.8760 C.2    99  THR99       0.2618
    115  O        -37.7970  -20.0200  -12.9460 O.2    99  THR99      -0.2717
    116  CB       -39.2910  -18.4450  -15.1130 C.3    99  THR99       0.1784
    117  OG1      -38.7300  -17.4840  -14.2030 O.3    99  THR99      -0.2211
    118  CG2      -40.4250  -17.8150  -15.8820 C.3    99  THR99       0.0376
    119  N        -38.2520  -21.6800  -14.4280 N.am  100  VAL100     -0.1965
    120  CA       -37.1390  -22.5770  -14.0710 C.3   100  VAL100      0.1727
    121  C        -36.9800  -22.7940  -12.5470 C.2   100  VAL100      0.2616
    122  O        -35.8680  -22.7300  -12.0210 O.2   100  VAL100     -0.2715
    123  CB       -35.8270  -22.2220  -14.8360 C.3   100  VAL100      0.0290
    124  CG1      -36.0970  -22.4690  -16.3460 C.3   100  VAL100      0.0023
    125  CG2      -35.4080  -20.7960  -14.6280 C.3   100  VAL100      0.0023
    126  N        -38.1280  -23.0170  -11.8760 N.am  101  VAL101     -0.1977
    127  CA       -38.1680  -23.2560  -10.4020 C.3   101  VAL101      0.1596
    128  C        -38.7940  -24.5890  -10.0640 C.2   101  VAL101      0.2287
    129  O        -38.3280  -25.3070   -9.1620 O.2   101  VAL101     -0.2864
    130  CB       -38.9910  -22.1860   -9.6560 C.3   101  VAL101      0.0276
    131  CG1      -39.3520  -22.5710   -8.1860 C.3   101  VAL101      0.0022
    132  CG2      -38.2860  -20.7960   -9.7360 C.3   101  VAL101      0.0022
    133  N        -37.1380  -28.0270   -8.9710 N.3   104  PHE104     -0.1227
    134  CA       -36.4610  -28.1040   -7.6580 C.3   104  PHE104      0.1736
    135  C        -37.3720  -28.5560   -6.4980 C.2   104  PHE104      0.2595
    136  O        -36.8810  -28.8980   -5.3890 O.2   104  PHE104     -0.2718
    137  CB       -35.7550  -26.7630   -7.3070 C.3   104  PHE104      0.0547
    138  CG       -34.7330  -26.4120   -8.2820 C.ar  104  PHE104     -0.0202
    139  CD1      -33.5750  -27.1880   -8.3980 C.ar  104  PHE104     -0.0042
    140  CD2      -34.9200  -25.3430   -9.1200 C.ar  104  PHE104     -0.0042
    141  CE1      -32.6240  -26.8530   -9.3450 C.ar  104  PHE104     -0.0003
    142  CE2      -33.9930  -25.0160  -10.0920 C.ar  104  PHE104     -0.0003
    143  CZ       -32.8520  -25.7670  -10.2070 C.ar  104  PHE104     -0.0000
    144  N        -38.6820  -28.5470   -6.7720 N.am  105  LEU105     -0.1980
    145  CA       -39.7240  -28.8750   -5.7540 C.3   105  LEU105      0.1596
    146  C        -39.9970  -30.3630   -5.6640 C.2   105  LEU105      0.2287
    147  O        -39.6910  -31.0990   -6.5680 O.2   105  LEU105     -0.2864
    148  CB       -41.0130  -28.0400   -6.0360 C.3   105  LEU105      0.0297
    149  CG       -40.8640  -26.5170   -6.1650 C.3   105  LEU105      0.0022
    150  CD1      -42.1940  -25.8430   -6.2790 C.3   105  LEU105      0.0001
    151  CD2      -40.0500  -25.8890   -4.9910 C.3   105  LEU105      0.0001
@<TRIPOS>BOND
     1    40    39    1
     2   124   123    1
     3    39    41    1
     4    39    38    2
     5   118   116    1
     6    49    47   am
     7   116   113    1
     8   116   117    1
     9    37    38    1
    10    37    36    1
    11   123   125    1
    12   123   120    1
    13    47    48    2
    14    47    46    1
    15   119   120    1
    16   119   114   am
    17   113   114    1
    18   113   112    1
    19   120   121    1
    20    34    33    2
    21   114   115    2
    22    46    43    1
    23    36    35    1
    24    35    32    1
    25    43    42    1
    26    43    44    1
    27    33    42   am
    28    33    32    1
    29    45    44    2
    30    32    31    1
    31   121   122    2
    32   121   126   am
    33   126   127    1
    34   127   128    1
    35   127   130    1
    36     7     6   ar
    37   143   142   ar
    38   143   141   ar
    39     8     6   ar
    40   142   140   ar
    41   128   129    2
    42     6     5    1
    43   132   130    1
    44   130   131    1
    45   141   139   ar
    46     5     2    1
    47   140   138   ar
    48   133   134    1
    49     2     1    1
    50     2     3    1
    51    24    23    2
    52    20    19    2
    53    12    11    2
    54   139   138   ar
    55   138   137    1
    56     9     3   am
    57     9    10    1
    58    23    22    1
    59    23    27   am
    60     3     4    2
    61    22    25    1
    62    22    21    1
    63   134   137    1
    64   134   135    1
    65    19    21   am
    66    19    18    1
    67    11    10    1
    68    11    17   am
    69    13    10    1
    70    13    14    1
    71    15    14    1
    72    27    28    1
    73    28    29    1
    74    25    26    1
    75    14    16    1
    76    29    30    2
    77   144   135   am
    78   144   145    1
    79    18    17    1
    80   147   146    2
    81   135   136    2
    82   150   149    1
    83   149   148    1
    84   149   151    1
    85   148   145    1
    86   145   146    1
    87    57    55   ar
    88   102   101    1
    89    55    56   ar
    90    55    54    1
    91   103   101    1
    92    80    79    1
    93   101   100    1
    94    79    76    1
    95    54    51    1
    96   100    97    1
    97    78    77    2
    98    51    50    1
    99    51    52    1
   100    76    77    1
   101    76    75    1
   102   111   109   am
   103    66    65    1
   104    74    72   am
   105    65    64    1
   106    99    98    2
   107    97    98    1
   108    97    96    1
   109    71    72    1
   110    71    68    1
   111    98   104   am
   112    72    73    2
   113   109   110    2
   114   109   108    1
   115    52    58   am
   116    52    53    2
   117    58    59    1
   118    63    64    1
   119    63    62    1
   120    96    90   am
   121   104   105    1
   122    87    85    1
   123    67    68    1
   124    67    60   am
   125   105   108    1
   126   105   106    1
   127    70    69    2
   128    68    69    1
   129    62    59    1
   130    59    60    1
   131    60    61    2
   132    90    91    2
   133    90    89    1
   134    84    83    2
   135    94    93   ar
   136   106   107    2
   137    85    86    1
   138    85    82    1
   139    89    88    1
   140    89    92    1
   141    83    82    1
   142    83    88   am
   143    81    82    1
   144    93    92    1
   145    93    95   ar
