@<TRIPOS>MOLECULE
tmp/2xvnA00.pdb
 129 124 0 0 0
SMALL
GASTEIGER

@<TRIPOS>ATOM
      1  N        -10.2520    8.5800    4.4240 N.3     6  TYR6       -0.1241
      2  CA        -9.6050    9.8160    4.0570 C.3     6  TYR6        0.1605
      3  C         -9.9640   10.8750    5.0960 C.2     6  TYR6        0.2264
      4  O        -11.1270   10.9250    5.6020 O.2     6  TYR6       -0.2867
      5  CB       -10.0270   10.2410    2.6360 C.3     6  TYR6        0.0534
      6  CG        -9.1590    9.5830    1.5460 C.ar    6  TYR6       -0.0201
      7  CD1       -9.4050    8.2770    1.1140 C.ar    6  TYR6       -0.0009
      8  CD2       -8.1300   10.2900    0.9230 C.ar    6  TYR6       -0.0009
      9  CE1       -8.5860    7.6300    0.1170 C.ar    6  TYR6        0.0417
     10  CE2       -7.3270    9.6860   -0.0690 C.ar    6  TYR6        0.0417
     11  CZ        -7.5860    8.3350   -0.4650 C.ar    6  TYR6        0.1957
     12  OH        -6.7830    7.6760   -1.3690 O.3     6  TYR6       -0.2866
     13  N         -4.2730   16.9350    1.1060 N.3    32  PHE32      -0.1241
     14  CA        -3.4520   16.3460    0.0020 C.3    32  PHE32       0.1605
     15  C         -2.2050   17.1630   -0.3260 C.2    32  PHE32       0.2264
     16  O         -2.2370   18.3620   -0.2310 O.2    32  PHE32      -0.2867
     17  CB        -4.2810   16.4490   -1.2750 C.3    32  PHE32       0.0534
     18  CG        -5.3980   15.4920   -1.3350 C.ar   32  PHE32      -0.0203
     19  CD1       -5.1170   14.1500   -1.5080 C.ar   32  PHE32      -0.0042
     20  CD2       -6.7240   15.9160   -1.2270 C.ar   32  PHE32      -0.0042
     21  CE1       -6.1230   13.2090   -1.5510 C.ar   32  PHE32      -0.0003
     22  CE2       -7.7270   15.0150   -1.3010 C.ar   32  PHE32      -0.0003
     23  CZ        -7.4310   13.6290   -1.4500 C.ar   32  PHE32      -0.0000
     24  N         -8.8720   15.9180   -5.7670 N.3    96  ALA96      -0.1245
     25  CA        -9.8170   16.3830   -6.7590 C.3    96  ALA96       0.1562
     26  C         -9.4970   17.7700   -7.3090 C.2    96  ALA96       0.2260
     27  O         -9.7210   18.0590   -8.4950 O.2    96  ALA96      -0.2867
     28  CB       -11.2080   16.3810   -6.1540 C.3    96  ALA96       0.0290
     29  N         -3.5630    9.4280   -5.1230 N.3   144  ASP144     -0.1239
     30  CA        -4.9400    9.7140   -5.4890 C.3   144  ASP144      0.1674
     31  C         -4.8430   10.7260   -6.6040 C.2   144  ASP144      0.2266
     32  O         -5.2870   11.8790   -6.4980 O.2   144  ASP144     -0.2867
     33  CB        -5.7520   10.2290   -4.2880 C.3   144  ASP144      0.1410
     34  CG        -7.2090   10.4780   -4.6220 C.2   144  ASP144      0.3668
     35  OD1       -7.7280    9.9110   -5.6120 O.co2 144  ASP144     -0.2456
     36  OD2       -7.8770   11.2280   -3.8820 O.co2 144  ASP144     -0.2456
     37  N         -6.2760   11.7410   -9.8290 N.3   146  GLU146     -0.1231
     38  CA        -7.5390   11.6210  -10.5590 C.3   146  GLU146      0.1699
     39  C         -7.6100   12.5750  -11.7440 C.2   146  GLU146      0.2592
     40  O         -8.7300   12.9180  -12.1980 O.2   146  GLU146     -0.2718
     41  CB        -8.7410   11.9280   -9.6440 C.3   146  GLU146      0.0402
     42  CG        -8.7080   11.3460   -8.1860 C.3   146  GLU146      0.1161
     43  CD        -9.7000   12.0390   -7.2730 C.2   146  GLU146      0.3649
     44  OE1      -10.1600   13.1550   -7.5920 O.co2 146  GLU146     -0.2457
     45  OE2      -10.0270   11.5030   -6.2180 O.co2 146  GLU146     -0.2457
     46  N         -6.4510   13.0260  -12.2600 N.am  147  HIS147     -0.1976
     47  CA        -6.4080   13.9000  -13.4710 C.3   147  HIS147      0.1656
     48  C         -5.1270   13.7610  -14.3070 C.2   147  HIS147      0.2291
     49  O         -4.0350   13.5670  -13.7550 O.2   147  HIS147     -0.2864
     50  CB        -6.5520   15.4060  -13.1370 C.3   147  HIS147      0.0771
     51  CG        -7.7810   15.7830  -12.3690 C.ar  147  HIS147      0.0820
     52  ND1       -8.9700   16.1270  -12.9850 N.ar  147  HIS147     -0.2267
     53  CD2       -7.9980   15.9000  -11.0340 C.ar  147  HIS147      0.1154
     54  CE1       -9.8710   16.4220  -12.0620 C.ar  147  HIS147      0.1986
     55  NE2       -9.3010   16.3170  -10.8710 N.ar  147  HIS147     -0.2212
     56  N         -5.3230    4.9280   -5.3980 N.3   177  ALA177     -0.1245
     57  CA        -6.7760    5.0310   -5.3420 C.3   177  ALA177      0.1562
     58  C         -7.3930    5.2650   -6.7170 C.2   177  ALA177      0.2260
     59  O         -7.7940    6.3830   -7.0380 O.2   177  ALA177     -0.2867
     60  CB        -7.1800    6.1350   -4.3560 C.3   177  ALA177      0.0290
     61  N        -11.9870    3.5650   -6.0280 N.3   202  GLN202     -0.1245
     62  CA       -13.1460    4.3760   -5.7680 C.3   202  GLN202      0.1566
     63  C        -14.3350    3.7980   -6.5490 C.2   202  GLN202      0.2260
     64  O        -14.3530    3.8170   -7.8090 O.2   202  GLN202     -0.2867
     65  CB       -12.8580    5.8300   -6.1520 C.3   202  GLN202      0.0367
     66  CG       -11.4030    6.2810   -5.7800 C.3   202  GLN202      0.0905
     67  CD       -11.1450    7.7700   -5.9900 C.2   202  GLN202      0.2608
     68  OE1      -11.9080    8.5960   -5.5190 O.2   202  GLN202     -0.2717
     69  NE2      -10.0240    8.1190   -6.6390 N.am  202  GLN202     -0.0878
     70  N        -17.4680    4.9840   -6.4730 N.3   204  TYR204     -0.1227
     71  CA       -18.4950    6.0540   -6.5650 C.3   204  TYR204      0.1736
     72  C        -18.0510    7.0830   -7.5900 C.2   204  TYR204      0.2595
     73  O        -16.8510    7.3280   -7.7460 O.2   204  TYR204     -0.2718
     74  CB       -18.6060    6.8920   -5.2570 C.3   204  TYR204      0.0548
     75  CG       -17.2430    7.1390   -4.5610 C.ar  204  TYR204     -0.0200
     76  CD1      -16.5950    6.0730   -3.8790 C.ar  204  TYR204     -0.0009
     77  CD2      -16.6270    8.3640   -4.5390 C.ar  204  TYR204     -0.0009
     78  CE1      -15.3100    6.2450   -3.2030 C.ar  204  TYR204      0.0417
     79  CE2      -15.3830    8.5680   -3.8530 C.ar  204  TYR204      0.0417
     80  CZ       -14.7330    7.4870   -3.2160 C.ar  204  TYR204      0.1957
     81  OH       -13.5220    7.7040   -2.6020 O.3   204  TYR204     -0.2866
     82  N        -19.0440    7.8100   -8.1120 N.am  205  ASN205     -0.1974
     83  CA       -18.8970    8.8840   -9.1050 C.3   205  ASN205      0.1688
     84  C        -18.7370    8.4230  -10.5680 C.2   205  ASN205      0.2292
     85  O        -18.7530    9.2430  -11.4930 O.2   205  ASN205     -0.2864
     86  CB       -17.8310    9.8950   -8.7260 C.3   205  ASN205      0.1181
     87  CG       -18.2600   10.8030   -7.5580 C.2   205  ASN205      0.2629
     88  OD1      -19.4500   10.9760   -7.3020 O.2   205  ASN205     -0.2716
     89  ND2      -17.2790   11.4100   -6.8860 N.am  205  ASN205     -0.0877
     90  N        -21.3030   12.7020    0.2350 N.3   251  ALA251     -0.1231
     91  CA       -19.8730   12.4750    0.2030 C.3   251  ALA251      0.1694
     92  C        -19.3250   12.3210   -1.2190 C.2   251  ALA251      0.2592
     93  O        -18.1290   12.5930   -1.4750 O.2   251  ALA251     -0.2718
     94  CB       -19.5710   11.2550    0.9750 C.3   251  ALA251      0.0304
     95  N        -20.1800   11.8030   -2.0980 N.am  252  ALA252     -0.1966
     96  CA       -19.9610   11.7680   -3.5360 C.3   252  ALA252      0.1728
     97  C        -21.3020   12.0510   -4.2320 C.2   252  ALA252      0.2616
     98  O        -22.3360   12.2350   -3.5610 O.2   252  ALA252     -0.2715
     99  CB       -19.4090   10.3880   -3.9830 C.3   252  ALA252      0.0334
    100  N        -21.2580   12.1060   -5.5760 N.am  253  ASN253     -0.1972
    101  CA       -22.4560   12.3180   -6.4040 C.3   253  ASN253      0.1688
    102  C        -23.6380   11.4290   -6.0060 C.2   253  ASN253      0.2292
    103  O        -23.4370   10.3210   -5.5220 O.2   253  ASN253     -0.2864
    104  CB       -22.1210   12.2410   -7.9050 C.3   253  ASN253      0.1181
    105  CG       -21.2890   13.4450   -8.3800 C.2   253  ASN253      0.2629
    106  OD1      -20.9190   14.3200   -7.5790 O.2   253  ASN253     -0.2716
    107  ND2      -20.9780   13.4870   -9.6770 N.am  253  ASN253     -0.0877
    108  N        -12.7070    1.1730    2.1250 N.3   282  MET282     -0.1245
    109  CA       -12.1000    2.4800    2.2320 C.3   282  MET282      0.1570
    110  C        -13.2370    3.4610    2.2290 C.2   282  MET282      0.2261
    111  O        -14.2210    3.3110    1.4770 O.2   282  MET282     -0.2867
    112  CB       -11.1920    2.7430    1.0540 C.3   282  MET282      0.0387
    113  CG       -10.5660    4.1410    1.0390 C.3   282  MET282      0.0595
    114  SD       -11.7010    5.2260    0.2090 S.3   282  MET282     -0.1393
    115  CE       -11.0490    5.3700   -1.5260 C.3   282  MET282      0.0692
    116  N        -14.6800    7.4360    1.7470 N.3   284  TRP284     -0.1241
    117  CA       -14.6710    8.9150    1.4920 C.3   284  TRP284      0.1605
    118  C        -15.8670    9.6330    2.0770 C.2   284  TRP284      0.2264
    119  O        -16.9600    9.4810    1.5410 O.2   284  TRP284     -0.2867
    120  CB       -14.6360    9.2660   -0.0070 C.3   284  TRP284      0.0550
    121  CG       -14.4900   10.7710   -0.1860 C.ar  284  TRP284      0.0003
    122  CD1      -15.4950   11.6720   -0.3560 C.ar  284  TRP284      0.0946
    123  CD2      -13.2730   11.5370   -0.1680 C.ar  284  TRP284      0.0152
    124  NE1      -14.9850   12.9600   -0.4290 N.ar  284  TRP284     -0.2442
    125  CE2      -13.6220   12.8900   -0.3490 C.ar  284  TRP284      0.0810
    126  CE3      -11.9220   11.2100    0.0080 C.ar  284  TRP284      0.0012
    127  CZ2      -12.6790   13.9060   -0.3500 C.ar  284  TRP284      0.0191
    128  CZ3      -10.9880   12.2170   -0.0430 C.ar  284  TRP284      0.0001
    129  CH2      -11.3670   13.5420   -0.1980 C.ar  284  TRP284      0.0015
@<TRIPOS>BOND
     1    48    49    2
     2    48    47    1
     3    47    50    1
     4    47    46    1
     5    50    51    1
     6    52    51   ar
     7    52    54   ar
     8    51    53   ar
     9    46    39   am
    10    40    39    2
    11    54    55   ar
    12    39    38    1
    13    85    84    2
    14    53    55   ar
    15    84    83    1
    16    38    37    1
    17    38    41    1
    18   107   105   am
    19    41    42    1
    20    83    86    1
    21    83    82    1
    22    86    87    1
    23    27    26    2
    24   105   104    1
    25   105   106    2
    26    42    43    1
    27    82    72   am
    28   104   101    1
    29    64    63    2
    30    73    72    2
    31    44    43   ar
    32    72    71    1
    33    87    88    2
    34    87    89   am
    35    26    25    1
    36    43    45   ar
    37    59    58    2
    38    25    28    1
    39    25    24    1
    40    58    57    1
    41    69    67   am
    42    31    32    2
    43    31    30    1
    44    71    70    1
    45    71    74    1
    46    63    62    1
    47   101   102    1
    48   101   100    1
    49    65    66    1
    50    65    62    1
    51    61    62    1
    52   102   103    2
    53    67    66    1
    54    67    68    2
    55    35    34   ar
    56   100    97   am
    57    30    29    1
    58    30    33    1
    59    56    57    1
    60    57    60    1
    61    74    75    1
    62    34    33    1
    63    34    36   ar
    64    75    77   ar
    65    75    76   ar
    66    77    79   ar
    67    97    98    2
    68    97    96    1
    69    99    96    1
    70    76    78   ar
    71    79    80   ar
    72    96    95    1
    73    80    78   ar
    74    80    81    1
    75    95    92   am
    76    21    19   ar
    77    21    23   ar
    78   115   114    1
    79    19    18   ar
    80    93    92    2
    81    23    22   ar
    82    12    11    1
    83    18    17    1
    84    18    20   ar
    85    22    20   ar
    86    17    14    1
    87    92    91    1
    88    11    10   ar
    89    11     9   ar
    90   124   122   ar
    91   124   125   ar
    92   122   121   ar
    93   127   125   ar
    94   127   129   ar
    95   125   123   ar
    96    15    16    2
    97    15    14    1
    98   129   128   ar
    99   121   123   ar
   100   121   120    1
   101   123   126   ar
   102    10     8   ar
   103   128   126   ar
   104   120   117    1
   105    14    13    1
   106     9     7   ar
   107    91    90    1
   108    91    94    1
   109   114   113    1
   110     8     6   ar
   111   113   112    1
   112   112   109    1
   113     7     6   ar
   114   111   110    2
   115   117   116    1
   116   117   118    1
   117   119   118    2
   118     6     5    1
   119   108   109    1
   120   110   109    1
   121     5     2    1
   122     2     1    1
   123     2     3    1
   124     3     4    2
