@<TRIPOS>MOLECULE
tmp/2xvqB00.pdb
 150 139 0 0 0
SMALL
GASTEIGER

@<TRIPOS>ATOM
      1  N         52.6350   41.7090   78.2350 N.3   371  LEU371     -0.1231
      2  CA        53.2320   40.4010   78.0430 C.3   371  LEU371      0.1693
      3  C         54.1320   40.4780   76.8300 C.2   371  LEU371      0.2591
      4  O         55.2270   39.9230   76.8100 O.2   371  LEU371     -0.2718
      5  CB        52.1500   39.3450   77.8410 C.3   371  LEU371      0.0284
      6  CG        52.6990   37.9330   78.0600 C.3   371  LEU371      0.0019
      7  CD1       53.1160   37.8560   79.4990 C.3   371  LEU371      0.0001
      8  CD2       51.6680   36.8570   77.7460 C.3   371  LEU371      0.0001
      9  N         53.6650   41.1780   75.8110 N.am  372  ILE372     -0.1980
     10  CA        54.4670   41.3590   74.6150 C.3   372  ILE372      0.1595
     11  C         55.6930   42.2170   75.0020 C.2   372  ILE372      0.2287
     12  O         56.8270   41.8740   74.7090 O.2   372  ILE372     -0.2864
     13  CB        53.6580   42.1070   73.5170 C.3   372  ILE372      0.0276
     14  CG1       52.4200   41.3010   73.1150 C.3   372  ILE372      0.0022
     15  CG2       54.5440   42.4010   72.3170 C.3   372  ILE372      0.0022
     16  CD1       52.7080   40.1030   72.3340 C.3   372  ILE372      0.0001
     17  N         58.4960   40.1550   77.1990 N.3   375  ASN375     -0.1225
     18  CA        59.1210   39.1770   76.3040 C.3   375  ASN375      0.1785
     19  C         59.9500   39.6830   75.1310 C.2   375  ASN375      0.2597
     20  O         60.7940   38.9510   74.6240 O.2   375  ASN375     -0.2718
     21  CB        58.0640   38.2210   75.7940 C.3   375  ASN375      0.1169
     22  CG        57.6410   37.2280   76.8390 C.2   375  ASN375      0.2627
     23  OD1       58.2910   36.1950   77.0430 O.2   375  ASN375     -0.2716
     24  ND2       56.5480   37.5340   77.5240 N.am  375  ASN375     -0.0877
     25  N         59.6920   40.9110   74.6860 N.am  376  CYS376     -0.1970
     26  CA        60.4610   41.5150   73.5960 C.3   376  CYS376      0.1712
     27  C         61.7140   42.1230   74.1850 C.2   376  CYS376      0.2296
     28  O         62.7900   42.0810   73.5850 O.2   376  CYS376     -0.2864
     29  CB        59.6820   42.6250   72.9180 C.3   376  CYS376      0.0983
     30  SG        58.8490   42.0580   71.4170 S.3   376  CYS376     -0.0798
     31  N         67.2200   32.9870   73.7820 N.3   387  PHE387     -0.1241
     32  CA        65.7970   33.1530   74.0500 C.3   387  PHE387      0.1605
     33  C         65.1210   31.8090   73.7590 C.2   387  PHE387      0.2264
     34  O         64.3990   31.2810   74.6040 O.2   387  PHE387     -0.2867
     35  CB        65.2190   34.2630   73.1720 C.3   387  PHE387      0.0534
     36  CG        63.7690   34.5760   73.4470 C.ar  387  PHE387     -0.0203
     37  CD1       63.3610   35.0010   74.7080 C.ar  387  PHE387     -0.0042
     38  CD2       62.8060   34.4490   72.4370 C.ar  387  PHE387     -0.0042
     39  CE1       62.0210   35.2970   74.9680 C.ar  387  PHE387     -0.0003
     40  CE2       61.4630   34.7430   72.6860 C.ar  387  PHE387     -0.0003
     41  CZ        61.0700   35.1680   73.9530 C.ar  387  PHE387     -0.0000
     42  N         62.5770   29.5350   76.3090 N.3   391  LEU391     -0.1245
     43  CA        61.2240   29.0630   76.0190 C.3   391  LEU391      0.1561
     44  C         61.1810   27.5410   75.9980 C.2   391  LEU391      0.2260
     45  O         60.1360   26.9590   76.2850 O.2   391  LEU391     -0.2867
     46  CB        60.7080   29.6060   74.6780 C.3   391  LEU391      0.0270
     47  CG        60.7210   31.1210   74.4170 C.3   391  LEU391      0.0019
     48  CD1       60.0880   31.3830   73.0580 C.3   391  LEU391      0.0001
     49  CD2       59.9860   31.8720   75.4910 C.3   391  LEU391      0.0001
     50  N         61.0450   26.5860   79.7500 N.3   394  ARG394     -0.1231
     51  CA        59.7190   26.9400   80.2590 C.3   394  ARG394      0.1694
     52  C         58.6260   25.9760   79.7500 C.2   394  ARG394      0.2592
     53  O         57.8370   25.4400   80.5320 O.2   394  ARG394     -0.2718
     54  CB        59.3500   28.3780   79.8680 C.3   394  ARG394      0.0321
     55  CG        60.0030   29.5180   80.6070 C.3   394  ARG394      0.0489
     56  CD        59.6590   29.4370   82.0600 C.3   394  ARG394      0.2205
     57  NE        58.2250   29.5760   82.3060 N.pl3 394  ARG394     -0.0865
     58  CZ        57.5640   30.7140   82.4620 C.cat 394  ARG394      0.5346
     59  NH1       58.2630   31.8360   82.4970 N.pl3 394  ARG394      0.1354
     60  NH2       56.2390   30.7430   82.6280 N.pl3 394  ARG394      0.1354
     61  N         58.5910   25.7270   78.4430 N.am  395  TYR395     -0.1976
     62  CA        57.5600   24.8570   77.9010 C.3   395  TYR395      0.1639
     63  C         57.6960   23.3940   78.2840 C.2   395  TYR395      0.2290
     64  O         56.6830   22.7450   78.5490 O.2   395  TYR395     -0.2864
     65  CB        57.4560   25.0190   76.3770 C.3   395  TYR395      0.0560
     66  CG        56.4570   26.1050   75.9780 C.ar  395  TYR395     -0.0198
     67  CD1       56.7890   27.4610   76.0880 C.ar  395  TYR395     -0.0009
     68  CD2       55.1440   25.7760   75.5800 C.ar  395  TYR395     -0.0009
     69  CE1       55.8460   28.4520   75.8310 C.ar  395  TYR395      0.0417
     70  CE2       54.1980   26.7750   75.3170 C.ar  395  TYR395      0.0417
     71  CZ        54.5660   28.1000   75.4580 C.ar  395  TYR395      0.1957
     72  OH        53.6550   29.0930   75.3230 O.3   395  TYR395     -0.2866
     73  N         56.2030   23.1680   81.5670 N.3   398  LYS398     -0.1245
     74  CA        54.7510   23.2740   81.4920 C.3   398  LYS398      0.1561
     75  C         54.0980   21.9370   81.0780 C.2   398  LYS398      0.2260
     76  O         53.2060   21.4410   81.7560 O.2   398  LYS398     -0.2867
     77  CB        54.3240   24.3630   80.4870 C.3   398  LYS398      0.0271
     78  CG        54.5710   25.8060   80.8660 C.3   398  LYS398      0.0035
     79  CD        54.7940   26.6240   79.5790 C.3   398  LYS398      0.0206
     80  CE        53.6980   27.6280   79.2980 C.3   398  LYS398      0.1093
     81  NZ        53.8200   28.8270   80.1740 N.3   398  LYS398     -0.1314
     82  N         58.2670   29.4480   68.3590 N.3   414  LEU414     -0.1245
     83  CA        57.7970   30.4320   69.3060 C.3   414  LEU414      0.1561
     84  C         58.9160   31.4500   69.4200 C.2   414  LEU414      0.2260
     85  O         58.6690   32.6560   69.4760 O.2   414  LEU414     -0.2867
     86  CB        57.4900   29.7840   70.6580 C.3   414  LEU414      0.0270
     87  CG        56.2400   28.9180   70.7760 C.3   414  LEU414      0.0019
     88  CD1       56.1820   28.2960   72.1580 C.3   414  LEU414      0.0001
     89  CD2       55.0250   29.7430   70.5300 C.3   414  LEU414      0.0001
     90  N         59.1480   34.4720   66.8890 N.3   417  VAL417     -0.1231
     91  CA        58.2350   35.6040   67.0020 C.3   417  VAL417      0.1692
     92  C         59.0570   36.8180   67.4030 C.2   417  VAL417      0.2592
     93  O         58.8860   37.9020   66.8510 O.2   417  VAL417     -0.2718
     94  CB        57.1720   35.4770   68.1150 C.3   417  VAL417      0.0266
     95  CG1       56.2880   36.7150   68.0890 C.3   417  VAL417      0.0020
     96  CG2       56.3040   34.2780   67.8810 C.3   417  VAL417      0.0020
     97  N         59.9440   36.6350   68.3840 N.am  418  GLY418     -0.1957
     98  CA        60.7700   37.7440   68.8550 C.3   418  GLY418      0.1869
     99  C         61.3890   38.4750   67.6840 C.2   418  GLY418      0.2309
    100  O         61.2700   39.6970   67.5660 O.2   418  GLY418     -0.2863
    101  N         58.6790   40.2130   65.3090 N.3   421  CYS421     -0.1221
    102  CA        57.8320   41.2820   65.8210 C.3   421  CYS421      0.1808
    103  C         58.4670   42.3350   66.6790 C.2   421  CYS421      0.2601
    104  O         58.1090   43.4960   66.5870 O.2   421  CYS421     -0.2717
    105  CB        56.6740   40.7000   66.6300 C.3   421  CYS421      0.0970
    106  SG        55.6250   39.4780   65.7830 S.3   421  CYS421     -0.0800
    107  N         59.3790   41.9530   67.5510 N.am  422  CYS422     -0.1970
    108  CA        59.9440   42.9580   68.4380 C.3   422  CYS422      0.1712
    109  C         60.4810   44.2180   67.7320 C.2   422  CYS422      0.2296
    110  O         60.5160   45.3050   68.3220 O.2   422  CYS422     -0.2864
    111  CB        60.9910   42.2950   69.3450 C.3   422  CYS422      0.0983
    112  SG        60.2400   41.0020   70.3990 S.3   422  CYS422     -0.0798
    113  N         52.5440   39.8260   66.9620 N.3   433  ALA433     -0.1245
    114  CA        52.7860   38.9040   68.0550 C.3   433  ALA433      0.1562
    115  C         51.6980   37.9190   68.3240 C.2   433  ALA433      0.2260
    116  O         51.8700   36.7360   68.0490 O.2   433  ALA433     -0.2867
    117  CB        53.0920   39.6650   69.3180 C.3   433  ALA433      0.0290
    118  N         51.5450   33.8770   67.3900 N.3   437  LEU437     -0.1245
    119  CA        51.5870   32.8730   68.4550 C.3   437  LEU437      0.1561
    120  C         50.3930   31.9340   68.2630 C.2   437  LEU437      0.2260
    121  O         50.4210   30.7500   68.6160 O.2   437  LEU437     -0.2867
    122  CB        51.4910   33.5430   69.8280 C.3   437  LEU437      0.0270
    123  CG        52.6910   34.3020   70.3840 C.3   437  LEU437      0.0019
    124  CD1       52.2890   35.0830   71.6400 C.3   437  LEU437      0.0001
    125  CD2       53.8120   33.3260   70.7030 C.3   437  LEU437      0.0001
    126  N         51.1050   27.8850   68.2910 N.3   441  LEU441     -0.1245
    127  CA        50.4270   27.0500   69.2520 C.3   441  LEU441      0.1561
    128  C         49.4970   26.0850   68.5420 C.2   441  LEU441      0.2260
    129  O         49.3240   24.9480   68.9870 O.2   441  LEU441     -0.2867
    130  CB        49.6710   27.9160   70.2700 C.3   441  LEU441      0.0270
    131  CG        50.6200   28.6810   71.2180 C.3   441  LEU441      0.0019
    132  CD1       49.8690   29.4820   72.2700 C.3   441  LEU441      0.0001
    133  CD2       51.5150   27.6610   71.8950 C.3   441  LEU441      0.0001
    134  N         46.3780   30.9310   73.6800 N.3   469  ARG469     -0.1245
    135  CA        47.5850   31.5510   74.1760 C.3   469  ARG469      0.1563
    136  C         47.4670   31.8820   75.6600 C.2   469  ARG469      0.2260
    137  O         48.3380   31.5690   76.4470 O.2   469  ARG469     -0.2867
    138  CB        47.8890   32.7970   73.3350 C.3   469  ARG469      0.0307
    139  CG        49.3340   33.3410   73.4170 C.3   469  ARG469      0.0489
    140  CD        49.5810   34.1080   74.7040 C.3   469  ARG469      0.2205
    141  NE        48.6310   35.2030   74.7870 N.pl3 469  ARG469     -0.0865
    142  CZ        48.3670   35.8980   75.8900 C.cat 469  ARG469      0.5346
    143  NH1       48.9900   35.6150   77.0320 N.pl3 469  ARG469      0.1354
    144  NH2       47.4740   36.8840   75.8470 N.pl3 469  ARG469      0.1354
    145  N         49.8790   30.1610   78.7220 N.3   473  SER473     -0.1217
    146  CA        50.6600   31.0610   79.5780 C.3   473  SER473      0.1889
    147  C         50.4010   30.8130   81.0460 C.2   473  SER473      0.2288
    148  O         51.2860   30.9980   81.8740 O.2   473  SER473     -0.2866
    149  CB        50.3460   32.5200   79.2760 C.3   473  SER473      0.2089
    150  OG        51.0070   32.9370   78.1050 O.3   473  SER473     -0.2183
@<TRIPOS>BOND
     1   101   102    1
     2   106   105    1
     3   102   105    1
     4   102   103    1
     5   104   103    2
     6   103   107   am
     7    93    92    2
     8    90    91    1
     9   113   114    1
    10    91    92    1
    11    91    94    1
    12   118   119    1
    13    92    97   am
    14   107   108    1
    15   100    99    2
    16    99    98    1
    17   109   110    2
    18   109   108    1
    19    96    94    1
    20   116   115    2
    21   114   115    1
    22   114   117    1
    23    95    94    1
    24   120   119    1
    25   120   121    2
    26   126   127    1
    27    82    83    1
    28    97    98    1
    29   108   111    1
    30   119   122    1
    31   128   129    2
    32   128   127    1
    33   127   130    1
    34    83    84    1
    35    83    86    1
    36   111   112    1
    37    84    85    2
    38   122   123    1
    39   130   131    1
    40   123   125    1
    41   123   124    1
    42   112    30    1
    43    89    87    1
    44    86    87    1
    45    87    88    1
    46   131   133    1
    47   131   132    1
    48    30    29    1
    49    15    13    1
    50    16    14    1
    51    38    40   ar
    52    38    36   ar
    53    40    41   ar
    54    29    26    1
    55    48    47    1
    56    14    13    1
    57    35    36    1
    58    35    32    1
    59   138   139    1
    60   138   135    1
    61   139   140    1
    62    36    37   ar
    63    13    10    1
    64    28    27    2
    65    26    27    1
    66    26    25    1
    67   134   135    1
    68    33    32    1
    69    33    34    2
    70    31    32    1
    71    41    39   ar
    72   135   136    1
    73    47    46    1
    74    47    49    1
    75    10    11    1
    76    10     9    1
    77    20    19    2
    78    46    43    1
    79    25    19   am
    80   140   141    1
    81    37    39   ar
    82    12    11    2
    83   141   142    2
    84    19    18    1
    85    70    71   ar
    86    70    68   ar
    87    72    71    1
    88    71    69   ar
    89    68    66   ar
    90   136   137    2
    91    21    18    1
    92    21    22    1
    93     9     3   am
    94    69    67   ar
    95   144   142    1
    96   142   143    1
    97    66    67   ar
    98    66    65    1
    99    44    43    1
   100    44    45    2
   101    43    42    1
   102    18    17    1
   103    65    62    1
   104     4     3    2
   105     3     2    1
   106    22    23    2
   107    22    24   am
   108     8     6    1
   109     5     2    1
   110     5     6    1
   111    62    63    1
   112    62    61    1
   113     2     1    1
   114     6     7    1
   115   150   149    1
   116    63    64    2
   117    61    52   am
   118   145   146    1
   119   149   146    1
   120    80    79    1
   121    80    81    1
   122   146   147    1
   123    79    78    1
   124    50    51    1
   125    52    51    1
   126    52    53    2
   127    54    51    1
   128    54    55    1
   129    77    78    1
   130    77    74    1
   131    55    56    1
   132   147   148    2
   133    75    74    1
   134    75    76    2
   135    74    73    1
   136    56    57    1
   137    57    58    2
   138    58    59    1
   139    58    60    1
