@<TRIPOS>MOLECULE
tmp/2xvuA00.pdb
 188 179 0 0 0
SMALL
GASTEIGER

@<TRIPOS>ATOM
      1  N         -2.6670   -1.6400    8.2580 N.3   137  TYR137     -0.1241
      2  CA        -2.5150   -2.8650    9.0430 C.3   137  TYR137      0.1605
      3  C         -2.4850   -2.4630   10.5170 C.2   137  TYR137      0.2264
      4  O         -1.4580   -2.0110   11.0400 O.2   137  TYR137     -0.2867
      5  CB        -1.2100   -3.5310    8.6150 C.3   137  TYR137      0.0534
      6  CG        -0.8590   -4.8370    9.2770 C.ar  137  TYR137     -0.0201
      7  CD1       -1.7840   -5.8810    9.3670 C.ar  137  TYR137     -0.0009
      8  CD2        0.4400   -5.0630    9.7290 C.ar  137  TYR137     -0.0009
      9  CE1       -1.4170   -7.1160    9.8870 C.ar  137  TYR137      0.0417
     10  CE2        0.8190   -6.2920   10.2480 C.ar  137  TYR137      0.0417
     11  CZ        -0.1080   -7.3130   10.3260 C.ar  137  TYR137      0.1957
     12  OH         0.2850   -8.5240   10.8470 O.3   137  TYR137     -0.2866
     13  N          0.4020   -2.8790   13.0580 N.3   140  GLU140     -0.1245
     14  CA         1.6070   -2.0930   12.7920 C.3   140  GLU140      0.1567
     15  C          1.3760   -0.6240   13.1460 C.2   140  GLU140      0.2260
     16  O          2.3230    0.1470   13.3230 O.2   140  GLU140     -0.2867
     17  CB         1.9890   -2.2020   11.3120 C.3   140  GLU140      0.0388
     18  CG         3.4770   -2.0160   11.0070 C.3   140  GLU140      0.1160
     19  CD         4.3120   -3.1950   11.4960 C.2   140  GLU140      0.3649
     20  OE1        3.7720   -4.3260   11.5360 O.co2 140  GLU140     -0.2457
     21  OE2        5.5030   -2.9990   11.8230 O.co2 140  GLU140     -0.2457
     22  N          1.6050   -0.9390    0.9090 N.3   182  LYS182     -0.1231
     23  CA         1.8670   -2.3760    0.9030 C.3   182  LYS182      0.1693
     24  C          0.6270   -3.0670    1.4030 C.2   182  LYS182      0.2591
     25  O          0.0980   -3.9890    0.7710 O.2   182  LYS182     -0.2718
     26  CB         3.0280   -2.7490    1.8360 C.3   182  LYS182      0.0285
     27  CG         4.4530   -2.5290    1.3110 C.3   182  LYS182      0.0035
     28  CD         5.5280   -2.9050    2.3370 C.3   182  LYS182      0.0206
     29  CE         6.9200   -2.4980    1.8740 C.3   182  LYS182      0.1093
     30  NZ         7.9830   -3.1020    2.7200 N.3   182  LYS182     -0.1314
     31  N          0.1550   -2.6380    2.5440 N.am  183  GLN183     -0.1979
     32  CA        -1.0270   -3.2660    3.0570 C.3   183  GLN183      0.1601
     33  C         -2.2120   -3.1850    2.1310 C.2   183  GLN183      0.2287
     34  O         -2.9940   -4.1400    2.0360 O.2   183  GLN183     -0.2864
     35  CB        -1.3960   -2.7010    4.4070 C.3   183  GLN183      0.0394
     36  CG        -2.4630   -3.5550    5.0870 C.3   183  GLN183      0.0908
     37  CD        -2.0150   -4.9800    5.3730 C.2   183  GLN183      0.2608
     38  OE1       -2.8380   -5.8590    5.6260 O.2   183  GLN183     -0.2717
     39  NE2       -0.7010   -5.2140    5.3460 N.am  183  GLN183     -0.0878
     40  N         -2.2130   -6.0580   -0.3170 N.3   186  LYS186     -0.1245
     41  CA        -2.5750   -7.3570    0.2660 C.3   186  LYS186      0.1561
     42  C         -4.0770   -7.5050    0.3980 C.2   186  LYS186      0.2260
     43  O         -4.6410   -8.5770    0.1510 O.2   186  LYS186     -0.2867
     44  CB        -1.9570   -7.5280    1.6540 C.3   186  LYS186      0.0271
     45  CG        -0.4410   -7.6220    1.6740 C.3   186  LYS186      0.0035
     46  CD         0.0570   -8.0490    3.0440 C.3   186  LYS186      0.0206
     47  CE         1.5410   -8.3670    3.0040 C.3   186  LYS186      0.1093
     48  NZ         2.4270   -7.1870    2.8510 N.3   186  LYS186     -0.1314
     49  N          1.2400  -15.5690   -3.3890 N.3   201  TRP201     -0.1241
     50  CA         2.1300  -14.4630   -3.0940 C.3   201  TRP201      0.1605
     51  C          3.0000  -14.8350   -1.8780 C.2   201  TRP201      0.2264
     52  O          4.2150  -14.6650   -1.8950 O.2   201  TRP201     -0.2867
     53  CB         1.3230  -13.2020   -2.7680 C.3   201  TRP201      0.0550
     54  CG         2.2030  -12.0600   -2.4570 C.ar  201  TRP201      0.0003
     55  CD1        2.8480  -11.2780   -3.3530 C.ar  201  TRP201      0.0946
     56  CD2        2.6790  -11.6640   -1.1590 C.ar  201  TRP201      0.0152
     57  NE1        3.7080  -10.4230   -2.7050 N.ar  201  TRP201     -0.2442
     58  CE2        3.6240  -10.6430   -1.3560 C.ar  201  TRP201      0.0810
     59  CE3        2.4020  -12.0840    0.1490 C.ar  201  TRP201      0.0012
     60  CZ2        4.3030  -10.0280   -0.3000 C.ar  201  TRP201      0.0191
     61  CZ3        3.0760  -11.4740    1.2040 C.ar  201  TRP201      0.0001
     62  CH2        4.0180  -10.4550    0.9670 C.ar  201  TRP201      0.0015
     63  N          7.0260  -15.3020   -1.4130 N.3   205  ARG205     -0.1231
     64  CA         7.7060  -14.3490   -0.5590 C.3   205  ARG205      0.1694
     65  C          8.4330  -14.9870    0.6310 C.2   205  ARG205      0.2591
     66  O          9.6020  -14.6720    0.8920 O.2   205  ARG205     -0.2718
     67  CB         6.7190  -13.3020   -0.0430 C.3   205  ARG205      0.0321
     68  CG         7.4120  -12.1500    0.6810 C.3   205  ARG205      0.0489
     69  CD         8.3520  -11.4360   -0.2680 C.3   205  ARG205      0.2205
     70  NE         9.1330  -10.3960    0.3850 N.pl3 205  ARG205     -0.0865
     71  CZ        10.3730  -10.5690    0.8360 C.cat 205  ARG205      0.5346
     72  NH1       10.9780  -11.7460    0.7110 N.pl3 205  ARG205      0.1354
     73  NH2       11.0210   -9.5580    1.3960 N.pl3 205  ARG205      0.1354
     74  N          7.7360  -15.8590    1.3650 N.am  206  LEU206     -0.1980
     75  CA         8.3300  -16.5150    2.5300 C.3   206  LEU206      0.1596
     76  C          9.4050  -17.5140    2.0860 C.2   206  LEU206      0.2287
     77  O         10.4140  -17.7260    2.7780 O.2   206  LEU206     -0.2864
     78  CB         7.2560  -17.2200    3.3500 C.3   206  LEU206      0.0297
     79  CG         6.1770  -16.3060    3.9370 C.3   206  LEU206      0.0022
     80  CD1        5.2600  -17.1280    4.8370 C.3   206  LEU206      0.0001
     81  CD2        6.8040  -15.1760    4.7370 C.3   206  LEU206      0.0001
     82  N         12.3880  -15.5620    1.7130 N.3   209  ARG209     -0.1231
     83  CA        12.8460  -15.1080    3.0160 C.3   209  ARG209      0.1694
     84  C         13.4540  -16.2260    3.8650 C.2   209  ARG209      0.2592
     85  O         14.4930  -16.0460    4.5080 O.2   209  ARG209     -0.2718
     86  CB        11.6750  -14.4760    3.7690 C.3   209  ARG209      0.0321
     87  CG        12.0240  -13.1950    4.4840 C.3   209  ARG209      0.0489
     88  CD        10.7570  -12.4380    4.8150 C.3   209  ARG209      0.2205
     89  NE        10.8960  -11.0140    4.5310 N.pl3 209  ARG209     -0.0865
     90  CZ         9.8800  -10.1630    4.4860 C.cat 209  ARG209      0.5346
     91  NH1        8.6410  -10.5870    4.7030 N.pl3 209  ARG209      0.1354
     92  NH2       10.1060   -8.8830    4.2340 N.pl3 209  ARG209      0.1354
     93  N         12.7940  -17.3760    3.8510 N.am  210  PHE210     -0.1976
     94  CA        13.2170  -18.5310    4.6230 C.3   210  PHE210      0.1639
     95  C         13.6190  -19.7010    3.7200 C.2   210  PHE210      0.2290
     96  O         12.9690  -20.7460    3.7210 O.2   210  PHE210     -0.2864
     97  CB        12.0670  -18.9340    5.5360 C.3   210  PHE210      0.0560
     98  CG        11.5220  -17.7940    6.3450 C.ar  210  PHE210     -0.0200
     99  CD1       12.3860  -16.8870    6.9680 C.ar  210  PHE210     -0.0042
    100  CD2       10.1440  -17.6450    6.5280 C.ar  210  PHE210     -0.0042
    101  CE1       11.8850  -15.8470    7.7720 C.ar  210  PHE210     -0.0003
    102  CE2        9.6280  -16.6080    7.3300 C.ar  210  PHE210     -0.0003
    103  CZ        10.5030  -15.7090    7.9540 C.ar  210  PHE210     -0.0000
    104  N         -0.4540  -16.7010    8.2450 N.3   225  LEU225     -0.1245
    105  CA        -0.2660  -15.3460    7.7630 C.3   225  LEU225      0.1561
    106  C         -1.5290  -14.9480    7.0180 C.2   225  LEU225      0.2260
    107  O         -2.0330  -13.8450    7.1890 O.2   225  LEU225     -0.2867
    108  CB         0.9410  -15.2710    6.8270 C.3   225  LEU225      0.0270
    109  CG         1.3890  -13.8580    6.4490 C.3   225  LEU225      0.0019
    110  CD1        1.5290  -12.9910    7.6910 C.3   225  LEU225      0.0001
    111  CD2        2.6970  -13.9350    5.7200 C.3   225  LEU225      0.0001
    112  N         -4.3470  -14.0810    9.3830 N.3   228  VAL228     -0.1231
    113  CA        -4.0720  -12.7850    9.9800 C.3   228  VAL228      0.1692
    114  C         -4.5530  -11.6840    9.0470 C.2   228  VAL228      0.2592
    115  O         -5.4620  -10.9180    9.3870 O.2   228  VAL228     -0.2718
    116  CB        -2.5610  -12.6030   10.2510 C.3   228  VAL228      0.0266
    117  CG1       -2.2360  -11.1460   10.5870 C.3   228  VAL228      0.0020
    118  CG2       -2.1530  -13.4860   11.3930 C.3   228  VAL228      0.0020
    119  N         -3.9510  -11.6190    7.8640 N.am  229  HIS229     -0.1976
    120  CA        -4.3140  -10.6040    6.8880 C.3   229  HIS229      0.1656
    121  C         -5.7700  -10.6760    6.4670 C.2   229  HIS229      0.2291
    122  O         -6.4240   -9.6490    6.2920 O.2   229  HIS229     -0.2864
    123  CB        -3.3860  -10.6930    5.6860 C.3   229  HIS229      0.0771
    124  CG        -2.0230  -10.1480    5.9640 C.ar  229  HIS229      0.0820
    125  ND1       -1.8220   -8.8600    6.4120 N.ar  229  HIS229     -0.2267
    126  CD2       -0.7990  -10.7210    5.8980 C.ar  229  HIS229      0.1154
    127  CE1       -0.5310   -8.6620    6.6110 C.ar  229  HIS229      0.1986
    128  NE2        0.1130   -9.7760    6.3050 N.ar  229  HIS229     -0.2212
    129  N         -2.0010  -12.5260   15.0180 N.3   244  ARG244     -0.1245
    130  CA        -0.7050  -12.0080   14.6280 C.3   244  ARG244      0.1563
    131  C          0.2760  -12.2070   15.7930 C.2   244  ARG244      0.2260
    132  O          1.4730  -12.4330   15.5870 O.2   244  ARG244     -0.2867
    133  CB        -0.8470  -10.5270   14.2310 C.3   244  ARG244      0.0307
    134  CG         0.2990   -9.6130   14.6180 C.3   244  ARG244      0.0489
    135  CD         0.1460   -9.2130   16.0740 C.3   244  ARG244      0.2205
    136  NE         1.0980   -8.1980   16.5070 N.pl3 244  ARG244     -0.0865
    137  CZ         0.9880   -7.5460   17.6590 C.cat 244  ARG244      0.5346
    138  NH1       -0.0280   -7.8150   18.4710 N.pl3 244  ARG244      0.1354
    139  NH2        1.8790   -6.6230   17.9960 N.pl3 244  ARG244      0.1354
    140  N          1.2840  -16.1200   15.9040 N.3   247  LEU247     -0.1231
    141  CA         2.2220  -16.3700   14.8140 C.3   247  LEU247      0.1693
    142  C          3.6410  -15.9380   15.1230 C.2   247  LEU247      0.2591
    143  O          4.5990  -16.6160   14.7420 O.2   247  LEU247     -0.2718
    144  CB         1.7470  -15.6750   13.5350 C.3   247  LEU247      0.0284
    145  CG         2.5590  -15.9510   12.2670 C.3   247  LEU247      0.0019
    146  CD1        2.6570  -17.4570   12.0210 C.3   247  LEU247      0.0001
    147  CD2        1.8870  -15.2700   11.0920 C.3   247  LEU247      0.0001
    148  N          3.7900  -14.8090   15.8020 N.am  248  ALA248     -0.1980
    149  CA         5.1250  -14.3380   16.1470 C.3   248  ALA248      0.1597
    150  C          5.6960  -15.2370   17.2520 C.2   248  ALA248      0.2287
    151  O          6.8830  -15.5920   17.2400 O.2   248  ALA248     -0.2864
    152  CB         5.0660  -12.8990   16.6090 C.3   248  ALA248      0.0319
    153  N          6.7750  -18.4310   15.4040 N.3   251  ILE251     -0.1245
    154  CA         7.9930  -18.2310   14.6230 C.3   251  ILE251      0.1561
    155  C          9.2630  -18.1660   15.4650 C.2   251  ILE251      0.2260
    156  O         10.2960  -18.6930   15.0730 O.2   251  ILE251     -0.2867
    157  CB         7.8920  -16.9490   13.7460 C.3   251  ILE251      0.0252
    158  CG1        6.9100  -17.1930   12.5970 C.3   251  ILE251      0.0019
    159  CG2        9.2650  -16.5620   13.2110 C.3   251  ILE251      0.0019
    160  CD1        6.7160  -16.0100   11.6780 C.3   251  ILE251      0.0001
    161  N          7.3080   -8.4410   16.3160 N.3   274  SER274     -0.1217
    162  CA         6.4240   -8.5890   15.1600 C.3   274  SER274      0.1889
    163  C          6.9470   -7.8490   13.9340 C.2   274  SER274      0.2288
    164  O          7.0840   -8.4330   12.8590 O.2   274  SER274     -0.2866
    165  CB         5.0230   -8.0720   15.4950 C.3   274  SER274      0.2089
    166  OG         4.1080   -9.1350   15.7060 O.3   274  SER274     -0.2183
    167  N         10.2490   -9.4800   12.5090 N.3   277  ILE277     -0.1231
    168  CA        10.0540  -10.6940   11.7280 C.3   277  ILE277      0.1692
    169  C          9.5390  -10.3110   10.3440 C.2   277  ILE277      0.2592
    170  O         10.1510  -10.6260    9.3260 O.2   277  ILE277     -0.2718
    171  CB         9.0120  -11.6410   12.3880 C.3   277  ILE277      0.0266
    172  CG1        9.4760  -12.0420   13.7910 C.3   277  ILE277      0.0019
    173  CG2        8.8240  -12.8910   11.5370 C.3   277  ILE277      0.0020
    174  CD1        8.5260  -12.9960   14.5080 C.3   277  ILE277      0.0001
    175  N          8.4040   -9.6230   10.3270 N.am  278  ALA278     -0.1966
    176  CA         7.7690   -9.1880    9.0900 C.3   278  ALA278      0.1728
    177  C          8.7230   -8.5080    8.1050 C.2   278  ALA278      0.2616
    178  O          8.5060   -8.5750    6.8920 O.2   278  ALA278     -0.2715
    179  CB         6.6010   -8.2630    9.4120 C.3   278  ALA278      0.0334
    180  N          9.7760   -7.8700    8.6170 N.am  279  GLU279     -0.1977
    181  CA        10.7380   -7.1840    7.7570 C.3   279  GLU279      0.1602
    182  C         12.1200   -7.8330    7.7160 C.2   279  GLU279      0.2287
    183  O         13.0500   -7.2600    7.1520 O.2   279  GLU279     -0.2864
    184  CB        10.9190   -5.7270    8.1990 C.3   279  GLU279      0.0415
    185  CG         9.6550   -4.8880    8.2180 C.3   279  GLU279      0.1163
    186  CD         8.9460   -4.8410    6.8690 C.2   279  GLU279      0.3649
    187  OE1        9.6230   -4.6170    5.8390 O.co2 279  GLU279     -0.2457
    188  OE2        7.7050   -5.0200    6.8450 O.co2 279  GLU279     -0.2457
@<TRIPOS>BOND
     1    49    50    1
     2    55    57   ar
     3    55    54   ar
     4    50    53    1
     5    50    51    1
     6    53    54    1
     7    57    58   ar
     8    54    56   ar
     9    52    51    2
    10    63    64    1
    11    58    56   ar
    12    58    60   ar
    13    56    59   ar
    14    64    67    1
    15    64    65    1
    16    40    41    1
    17    60    62   ar
    18    69    70    1
    19    69    68    1
    20    67    68    1
    21    59    61   ar
    22    43    42    2
    23    41    42    1
    24    41    44    1
    25    70    71    2
    26    65    66    2
    27    65    74   am
    28    72    71    1
    29    25    24    2
    30    71    73    1
    31    23    22    1
    32    23    24    1
    33    23    26    1
    34    62    61   ar
    35    27    26    1
    36    27    28    1
    37    74    75    1
    38    24    31   am
    39    44    45    1
    40    45    46    1
    41    82    83    1
    42    29    28    1
    43    29    30    1
    44    34    33    2
    45    76    75    1
    46    76    77    2
    47    33    32    1
    48    75    78    1
    49    31    32    1
    50    48    47    1
    51    47    46    1
    52    83    86    1
    53    83    84    1
    54    32    35    1
    55    78    79    1
    56    95    96    2
    57    95    94    1
    58    86    87    1
    59    93    84   am
    60    93    94    1
    61    84    85    2
    62    79    81    1
    63    79    80    1
    64    92    90    1
    65    35    36    1
    66    87    88    1
    67    90    89    2
    68    90    91    1
    69    89    88    1
    70    94    97    1
    71    36    37    1
    72    39    37   am
    73    37    38    2
    74    97    98    1
    75   123   124    1
    76   123   120    1
    77   111   109    1
    78   187   186   ar
    79   126   124   ar
    80   126   128   ar
    81   124   125   ar
    82   122   121    2
    83   128   127   ar
    84    98   100   ar
    85    98    99   ar
    86   125   127   ar
    87   109   108    1
    88   109   110    1
    89   121   120    1
    90   100   102   ar
    91   108   105    1
    92   188   186   ar
    93   186   185    1
    94   120   119    1
    95   178   177    2
    96    99   101   ar
    97   106   107    2
    98   106   105    1
    99   183   182    2
   100   102   103   ar
   101   182   181    1
   102   181   184    1
   103   181   180    1
   104   105   104    1
   105   101   103   ar
   106   119   114   am
   107   177   180   am
   108   177   176    1
   109   184   185    1
   110     1     2    1
   111     5     2    1
   112     5     6    1
   113     2     3    1
   114   114   115    2
   115   114   113    1
   116   176   179    1
   117   176   175    1
   118     6     7   ar
   119     6     8   ar
   120   170   169    2
   121     7     9   ar
   122   112   113    1
   123     8    10   ar
   124     9    11   ar
   125   113   116    1
   126    10    11   ar
   127   116   117    1
   128   116   118    1
   129    11    12    1
   130   175   169   am
   131   169   168    1
   132     3     4    2
   133    18    17    1
   134    18    19    1
   135   147   145    1
   136    17    14    1
   137    19    20   ar
   138    19    21   ar
   139   173   171    1
   140   160   158    1
   141   168   171    1
   142   168   167    1
   143   146   145    1
   144   145   144    1
   145   171   172    1
   146   158   157    1
   147    14    13    1
   148    14    15    1
   149   164   163    2
   150    15    16    2
   151   159   157    1
   152   144   141    1
   153   157   154    1
   154   172   174    1
   155   163   162    1
   156   133   134    1
   157   133   130    1
   158   134   135    1
   159   154   153    1
   160   154   155    1
   161   130   129    1
   162   130   131    1
   163   143   142    2
   164   141   142    1
   165   141   140    1
   166   156   155    2
   167   142   148   am
   168   162   165    1
   169   162   161    1
   170   165   166    1
   171   132   131    2
   172   148   149    1
   173   135   136    1
   174   149   152    1
   175   149   150    1
   176   136   137    2
   177   151   150    2
   178   137   139    1
   179   137   138    1
