@<TRIPOS>MOLECULE
tmp/2xvuA01.pdb
 169 158 0 0 0
SMALL
GASTEIGER

@<TRIPOS>ATOM
      1  N         13.6940   -3.7730  -19.0160 N.3   374  LEU374     -0.1231
      2  CA        12.9190   -2.5750  -18.7320 C.3   374  LEU374      0.1693
      3  C         13.5910   -1.7810  -17.6100 C.2   374  LEU374      0.2591
      4  O         13.7840   -0.5690  -17.7340 O.2   374  LEU374     -0.2718
      5  CB        11.4870   -2.9390  -18.3460 C.3   374  LEU374      0.0284
      6  CG        10.5280   -1.7470  -18.4510 C.3   374  LEU374      0.0019
      7  CD1       10.3380   -1.3930  -19.9300 C.3   374  LEU374      0.0001
      8  CD2        9.1910   -2.0630  -17.8000 C.3   374  LEU374      0.0001
      9  N         13.9680   -2.4790  -16.5340 N.am  375  ILE375     -0.1980
     10  CA        14.6210   -1.8730  -15.3710 C.3   375  ILE375      0.1595
     11  C         15.9620   -1.2270  -15.7390 C.2   375  ILE375      0.2287
     12  O         16.2730   -0.1150  -15.3070 O.2   375  ILE375     -0.2864
     13  CB        14.9080   -2.9310  -14.2840 C.3   375  ILE375      0.0276
     14  CG1       13.6290   -3.6920  -13.9220 C.3   375  ILE375      0.0022
     15  CG2       15.5240   -2.2650  -13.0550 C.3   375  ILE375      0.0022
     16  CD1       12.6830   -2.9530  -13.0380 C.3   375  ILE375      0.0001
     17  N         15.1120    2.0570  -17.7840 N.3   378  ASN378     -0.1225
     18  CA        14.5690    3.0910  -16.9110 C.3   378  ASN378      0.1785
     19  C         15.4640    3.6450  -15.8110 C.2   378  ASN378      0.2597
     20  O         15.2450    4.7640  -15.3520 O.2   378  ASN378     -0.2718
     21  CB        13.2520    2.6150  -16.3180 C.3   378  ASN378      0.1169
     22  CG        12.1300    2.6370  -17.3320 C.2   378  ASN378      0.2627
     23  OD1       11.7140    3.7030  -17.7670 O.2   378  ASN378     -0.2716
     24  ND2       11.6450    1.4670  -17.7240 N.am  378  ASN378     -0.0877
     25  N         16.4660    2.8940  -15.3690 N.am  379  CYS379     -0.1970
     26  CA        17.3390    3.4380  -14.3380 C.3   379  CYS379      0.1712
     27  C         18.3910    4.3060  -15.0080 C.2   379  CYS379      0.2296
     28  O         18.9380    5.2290  -14.4010 O.2   379  CYS379     -0.2864
     29  CB        18.0140    2.3320  -13.5250 C.3   379  CYS379      0.0983
     30  SG        17.0030    1.7110  -12.1450 S.3   379  CYS379     -0.0798
     31  N         17.8290    6.2110  -17.7280 N.3   381  LEU381     -0.1245
     32  CA        17.1200    7.4650  -17.9140 C.3   381  LEU381      0.1561
     33  C         17.0340    8.2310  -16.5950 C.2   381  LEU381      0.2260
     34  O         17.2900    9.4330  -16.5430 O.2   381  LEU381     -0.2867
     35  CB        15.7090    7.1950  -18.4440 C.3   381  LEU381      0.0270
     36  CG        14.9670    8.4160  -19.0060 C.3   381  LEU381      0.0019
     37  CD1       15.7640    8.9680  -20.1930 C.3   381  LEU381      0.0001
     38  CD2       13.5530    8.0300  -19.4410 C.3   381  LEU381      0.0001
     39  N         12.3580   12.9890  -14.2750 N.3   390  PHE390     -0.1241
     40  CA        11.8770   11.6320  -14.5190 C.3   390  PHE390      0.1605
     41  C         10.3810   11.5280  -14.2020 C.2   390  PHE390      0.2264
     42  O          9.6320   10.8640  -14.9190 O.2   390  PHE390     -0.2867
     43  CB        12.6690   10.6180  -13.6860 C.3   390  PHE390      0.0534
     44  CG        12.3660    9.1830  -14.0280 C.ar  390  PHE390     -0.0203
     45  CD1       12.6080    8.6930  -15.3020 C.ar  390  PHE390     -0.0042
     46  CD2       11.8240    8.3230  -13.0760 C.ar  390  PHE390     -0.0042
     47  CE1       12.3150    7.3690  -15.6260 C.ar  390  PHE390     -0.0003
     48  CE2       11.5270    6.9950  -13.3900 C.ar  390  PHE390     -0.0003
     49  CZ        11.7740    6.5200  -14.6680 C.ar  390  PHE390     -0.0000
     50  N          7.1800   10.4780  -16.8640 N.3   394  LEU394     -0.1245
     51  CA         6.1360    9.4900  -16.5780 C.3   394  LEU394      0.1561
     52  C          4.7670   10.1170  -16.6010 C.2   394  LEU394      0.2260
     53  O          3.7960    9.4590  -16.9570 O.2   394  LEU394     -0.2867
     54  CB         6.3550    8.8490  -15.2070 C.3   394  LEU394      0.0270
     55  CG         7.6470    8.0480  -15.0380 C.3   394  LEU394      0.0019
     56  CD1        7.8590    7.7290  -13.5710 C.3   394  LEU394      0.0001
     57  CD2        7.5710    6.7810  -15.8720 C.3   394  LEU394      0.0001
     58  N          3.9050   10.2790  -20.2390 N.3   397  ARG397     -0.1231
     59  CA         3.6760    8.9100  -20.6920 C.3   397  ARG397      0.1694
     60  C          2.3590    8.3350  -20.1910 C.2   397  ARG397      0.2592
     61  O          1.6210    7.7050  -20.9420 O.2   397  ARG397     -0.2718
     62  CB         4.8060    7.9980  -20.2260 C.3   397  ARG397      0.0321
     63  CG         6.1350    8.2290  -20.8980 C.3   397  ARG397      0.0489
     64  CD         6.2700    7.3820  -22.1390 C.3   397  ARG397      0.2205
     65  NE         6.2120    5.9600  -21.8190 N.pl3 397  ARG397     -0.0865
     66  CZ         5.8210    5.0190  -22.6720 C.cat 397  ARG397      0.5346
     67  NH1        5.4520    5.3420  -23.9090 N.pl3 397  ARG397      0.1354
     68  NH2        5.7720    3.7520  -22.2790 N.pl3 397  ARG397      0.1354
     69  N          2.0450    8.5400  -18.9220 N.am  398  TYR398     -0.1976
     70  CA         0.8130    7.9690  -18.4160 C.3   398  TYR398      0.1639
     71  C         -0.4620    8.6610  -18.8190 C.2   398  TYR398      0.2290
     72  O         -1.4960    7.9980  -18.9940 O.2   398  TYR398     -0.2864
     73  CB         0.8640    7.8130  -16.8970 C.3   398  TYR398      0.0560
     74  CG         1.3450    6.4400  -16.5030 C.ar  398  TYR398     -0.0198
     75  CD1        2.7080    6.1250  -16.5280 C.ar  398  TYR398     -0.0009
     76  CD2        0.4350    5.4280  -16.1920 C.ar  398  TYR398     -0.0009
     77  CE1        3.1560    4.8340  -16.2570 C.ar  398  TYR398      0.0417
     78  CE2        0.8720    4.1350  -15.9270 C.ar  398  TYR398      0.0417
     79  CZ         2.2340    3.8500  -15.9670 C.ar  398  TYR398      0.1957
     80  OH         2.6680    2.5680  -15.7710 O.3   398  TYR398     -0.2866
     81  N         -1.3710    7.2930  -22.0360 N.3   401  LYS401     -0.1245
     82  CA        -1.9010    5.9280  -21.9680 C.3   401  LYS401      0.1561
     83  C         -3.3710    5.9530  -21.5810 C.2   401  LYS401      0.2260
     84  O         -4.1920    5.3280  -22.2270 O.2   401  LYS401     -0.2867
     85  CB        -1.1630    5.0770  -20.9160 C.3   401  LYS401      0.0271
     86  CG         0.2770    4.7040  -21.2010 C.3   401  LYS401      0.0035
     87  CD         0.9260    4.2370  -19.8960 C.3   401  LYS401      0.0206
     88  CE         2.3960    3.9170  -20.0460 C.3   401  LYS401      0.1093
     89  NZ         2.5830    2.5660  -20.6370 N.3   401  LYS401     -0.1314
     90  N          5.4860    6.7920   -8.8680 N.3   417  LEU417     -0.1245
     91  CA         6.2090    5.9260   -9.7970 C.3   417  LEU417      0.1561
     92  C          7.6380    6.3930   -9.9450 C.2   417  LEU417      0.2260
     93  O          8.5580    5.5850  -10.1090 O.2   417  LEU417     -0.2867
     94  CB         5.5380    5.8990  -11.1760 C.3   417  LEU417      0.0270
     95  CG         4.1840    5.1770  -11.3200 C.3   417  LEU417      0.0019
     96  CD1        3.7080    5.3150  -12.7510 C.3   417  LEU417      0.0001
     97  CD2        4.3050    3.7080  -10.9340 C.3   417  LEU417      0.0001
     98  N         10.1790    5.2530   -7.3550 N.3   420  VAL420     -0.1231
     99  CA        10.6930    3.9070   -7.5260 C.3   420  VAL420      0.1692
    100  C         12.1280    4.0050   -8.0310 C.2   420  VAL420      0.2592
    101  O         12.9630    3.1570   -7.7320 O.2   420  VAL420     -0.2718
    102  CB         9.8450    3.1130   -8.5490 C.3   420  VAL420      0.0266
    103  CG1       10.4570    1.7380   -8.7890 C.3   420  VAL420      0.0020
    104  CG2        8.4190    2.9730   -8.0410 C.3   420  VAL420      0.0020
    105  N         12.4130    5.0530   -8.7900 N.am  421  GLY421     -0.1957
    106  CA        13.7520    5.2180   -9.3150 C.3   421  GLY421      0.1869
    107  C         14.7280    5.5430   -8.2050 C.2   421  GLY421      0.2309
    108  O         15.8560    5.0460   -8.1760 O.2   421  GLY421     -0.2863
    109  N         15.1210    2.2960   -5.7950 N.3   424  CYS424     -0.1221
    110  CA        15.7500    1.0970   -6.3200 C.3   424  CYS424      0.1808
    111  C         16.9870    1.2060   -7.1820 C.2   424  CYS424      0.2601
    112  O         17.9310    0.4350   -7.0120 O.2   424  CYS424     -0.2717
    113  CB        14.7090    0.2850   -7.0730 C.3   424  CYS424      0.0970
    114  SG        13.2250   -0.1030   -6.0980 S.3   424  CYS424     -0.0800
    115  N         17.0010    2.1410   -8.1170 N.am  425  CYS425     -0.1970
    116  CA        18.1570    2.2420   -8.9900 C.3   425  CYS425      0.1712
    117  C         19.5220    2.2180   -8.2950 C.2   425  CYS425      0.2296
    118  O         20.5270    1.8650   -8.9160 O.2   425  CYS425     -0.2864
    119  CB        18.0260    3.4750   -9.8720 C.3   425  CYS425      0.0983
    120  SG        16.6170    3.3540  -11.0050 S.3   425  CYS425     -0.0798
    121  N         12.1970   -2.8660   -7.5760 N.3   436  ALA436     -0.1245
    122  CA        11.4150   -2.2240   -8.6190 C.3   436  ALA436      0.1562
    123  C         10.0480   -2.8360   -8.8690 C.2   436  ALA436      0.2260
    124  O          9.0130   -2.2120   -8.6060 O.2   436  ALA436     -0.2867
    125  CB        12.2080   -2.2140   -9.9080 C.3   436  ALA436      0.0290
    126  N          6.4460   -1.2310   -8.0260 N.3   440  LEU440     -0.1245
    127  CA         5.5150   -0.8550   -9.0970 C.3   440  LEU440      0.1561
    128  C          4.1220   -1.4950   -8.9060 C.2   440  LEU440      0.2260
    129  O          3.1090   -0.9230   -9.3170 O.2   440  LEU440     -0.2867
    130  CB         6.0810   -1.2530  -10.4710 C.3   440  LEU440      0.0270
    131  CG         7.3520   -0.5160  -10.9130 C.3   440  LEU440      0.0019
    132  CD1        7.8710   -1.0380  -12.2310 C.3   440  LEU440      0.0001
    133  CD2        7.0530    0.9540  -11.0210 C.3   440  LEU440      0.0001
    134  N          0.8660    0.8060   -8.7890 N.3   444  LEU444     -0.1245
    135  CA        -0.1970    0.6210   -9.7730 C.3   444  LEU444      0.1561
    136  C         -1.4720    0.1490   -9.0940 C.2   444  LEU444      0.2260
    137  O         -2.5660    0.2920   -9.6520 O.2   444  LEU444     -0.2867
    138  CB         0.2210   -0.3660  -10.8850 C.3   444  LEU444      0.0270
    139  CG         1.4470    0.0720  -11.7220 C.3   444  LEU444      0.0019
    140  CD1        1.7820   -0.9480  -12.7950 C.3   444  LEU444      0.0001
    141  CD2        1.1650    1.4370  -12.3520 C.3   444  LEU444      0.0001
    142  N          1.6360   -4.6840  -14.2330 N.3   472  ARG472     -0.1245
    143  CA         2.7490   -3.8820  -14.7050 C.3   472  ARG472      0.1563
    144  C          2.9710   -4.1200  -16.2090 C.2   472  ARG472      0.2260
    145  O          3.1090   -3.1790  -16.9800 O.2   472  ARG472     -0.2867
    146  CB         3.9890   -4.2320  -13.8820 C.3   472  ARG472      0.0307
    147  CG         5.0470   -3.1500  -13.7900 C.3   472  ARG472      0.0489
    148  CD         5.9990   -3.2210  -14.9610 C.3   472  ARG472      0.2205
    149  NE         6.5070   -4.5730  -15.0910 N.pl3 472  ARG472     -0.0865
    150  CZ         6.9710   -5.0920  -16.2160 C.cat 472  ARG472      0.5346
    151  NH1        6.9970   -4.3640  -17.3260 N.pl3 472  ARG472      0.1354
    152  NH2        7.3880   -6.3490  -16.2300 N.pl3 472  ARG472      0.1354
    153  N          0.0990   -2.3830  -18.2740 N.3   475  PHE475     -0.1227
    154  CA         0.2730   -0.9410  -18.3210 C.3   475  PHE475      0.1736
    155  C          1.4450   -0.4770  -19.1660 C.2   475  PHE475      0.2596
    156  O          1.3540    0.5430  -19.8580 O.2   475  PHE475     -0.2718
    157  CB         0.3890   -0.3820  -16.8980 C.3   475  PHE475      0.0547
    158  CG        -0.9340   -0.0720  -16.2660 C.ar  475  PHE475     -0.0202
    159  CD1       -1.7070    0.9920  -16.7270 C.ar  475  PHE475     -0.0042
    160  CD2       -1.4240   -0.8530  -15.2260 C.ar  475  PHE475     -0.0042
    161  CE1       -2.9590    1.2750  -16.1580 C.ar  475  PHE475     -0.0003
    162  CE2       -2.6690   -0.5880  -14.6490 C.ar  475  PHE475     -0.0003
    163  CZ        -3.4390    0.4840  -15.1200 C.ar  475  PHE475     -0.0000
    164  N          2.5470   -1.2110  -19.1070 N.am  476  SER476     -0.1952
    165  CA         3.7300   -0.8650  -19.8840 C.3   476  SER476      0.1924
    166  C          3.4700   -1.0080  -21.3690 C.2   476  SER476      0.2314
    167  O          4.0620   -0.3040  -22.1760 O.2   476  SER476     -0.2863
    168  CB         4.9110   -1.7640  -19.5110 C.3   476  SER476      0.2116
    169  OG         5.7300   -1.1480  -18.5350 O.3   476  SER476     -0.2180
@<TRIPOS>BOND
     1    67    66    1
     2    66    68    1
     3    66    65    2
     4    84    83    2
     5   167   166    2
     6    64    65    1
     7    64    63    1
     8    81    82    1
     9    82    83    1
    10    82    85    1
    11   166   165    1
    12    86    85    1
    13    86    87    1
    14    61    60    2
    15    63    62    1
    16    59    58    1
    17    59    62    1
    18    59    60    1
    19    89    88    1
    20    37    36    1
    21    60    69   am
    22    88    87    1
    23     7     6    1
    24   165   168    1
    25   165   164    1
    26   156   155    2
    27   168   169    1
    28    38    36    1
    29   155   164   am
    30   155   154    1
    31     1     2    1
    32    36    35    1
    33    72    71    2
    34    69    70    1
    35    71    70    1
    36     2     5    1
    37     2     3    1
    38     6     5    1
    39     6     8    1
    40    35    32    1
    41    70    73    1
    42   154   153    1
    43   154   157    1
    44    32    31    1
    45    32    33    1
    46    17    18    1
    47    23    22    2
    48     4     3    2
    49    24    22   am
    50     3     9   am
    51    22    21    1
    52   151   150    1
    53   145   144    2
    54    53    52    2
    55    18    21    1
    56    18    19    1
    57   157   158    1
    58    73    74    1
    59    50    51    1
    60   159   158   ar
    61   159   161   ar
    62    52    51    1
    63    33    34    2
    64    51    54    1
    65     9    10    1
    66    75    74   ar
    67    75    77   ar
    68    74    76   ar
    69   158   160   ar
    70    77    79   ar
    71   152   150    1
    72   150   149    2
    73   144   143    1
    74    76    78   ar
    75   161   163   ar
    76    79    78   ar
    77    79    80    1
    78    57    55    1
    79    19    25   am
    80    19    20    2
    81    11    10    1
    82    11    12    2
    83    47    45   ar
    84    47    49   ar
    85    10    13    1
    86    25    26    1
    87    45    44   ar
    88   160   162   ar
    89    54    55    1
    90   163   162   ar
    91   149   148    1
    92    55    56    1
    93    27    28    2
    94    27    26    1
    95   148   147    1
    96    42    41    2
    97   143   142    1
    98   143   146    1
    99    49    48   ar
   100    40    39    1
   101    40    41    1
   102    40    43    1
   103    26    29    1
   104    13    14    1
   105    13    15    1
   106    44    43    1
   107    44    46   ar
   108    14    16    1
   109   146   147    1
   110    29    30    1
   111    48    46   ar
   112   140   139    1
   113    96    95    1
   114   141   139    1
   115   132   131    1
   116    30   120    1
   117   139   138    1
   118    95    94    1
   119    95    97    1
   120    94    91    1
   121   133   131    1
   122   120   119    1
   123   131   130    1
   124   138   135    1
   125   130   127    1
   126    93    92    2
   127    92    91    1
   128   125   122    1
   129   119   116    1
   130    91    90    1
   131   135   136    1
   132   135   134    1
   133   137   136    2
   134   129   128    2
   135   106   105    1
   136   106   107    1
   137   127   128    1
   138   127   126    1
   139   116   117    1
   140   116   115    1
   141   118   117    2
   142   123   122    1
   143   123   124    2
   144   105   100   am
   145   103   102    1
   146   122   121    1
   147   102   104    1
   148   102    99    1
   149   107   108    2
   150   115   111   am
   151   100   101    2
   152   100    99    1
   153    99    98    1
   154   111   112    2
   155   111   110    1
   156   113   110    1
   157   113   114    1
   158   110   109    1
