@<TRIPOS>MOLECULE
tmp/2xvvA07.pdb
 128 122 0 0 0
SMALL
GASTEIGER

@<TRIPOS>ATOM
      1  N         30.5930    2.1240   38.4190 N.3   112  ARG112     -0.1231
      2  CA        29.9990    3.2940   37.7780 C.3   112  ARG112      0.1694
      3  C         30.6780    4.5160   38.3990 C.2   112  ARG112      0.2591
      4  O         31.0860    4.5000   39.5580 O.2   112  ARG112     -0.2718
      5  CB        28.4810    3.3840   38.0230 C.3   112  ARG112      0.0321
      6  CG        28.0800    3.5610   39.4930 C.3   112  ARG112      0.0489
      7  CD        26.6680    4.1560   39.6850 C.3   112  ARG112      0.2205
      8  NE        26.6490    5.6060   39.4770 N.pl3 112  ARG112     -0.0865
      9  CZ        25.7380    6.4320   39.9910 C.cat 112  ARG112      0.5346
     10  NH1       24.7590    5.9540   40.7520 N.pl3 112  ARG112      0.1354
     11  NH2       25.8120    7.7390   39.7530 N.pl3 112  ARG112      0.1354
     12  N         30.8120    5.5710   37.6140 N.am  113  LEU113     -0.1980
     13  CA        31.4220    6.7970   38.0980 C.3   113  LEU113      0.1596
     14  C         30.3170    7.5660   38.8310 C.2   113  LEU113      0.2287
     15  O         29.2570    7.8280   38.2540 O.2   113  LEU113     -0.2864
     16  CB        31.9450    7.6010   36.8990 C.3   113  LEU113      0.0297
     17  CG        33.1810    8.4920   37.0740 C.3   113  LEU113      0.0022
     18  CD1       34.3250    7.6790   37.6760 C.3   113  LEU113      0.0001
     19  CD2       33.5830    9.0760   35.7170 C.3   113  LEU113      0.0001
     20  N         37.3060    8.7820   32.8130 N.3   140  ILE140     -0.1245
     21  CA        36.4070    8.7610   31.6570 C.3   140  ILE140      0.1561
     22  C         37.0260    8.0290   30.4570 C.2   140  ILE140      0.2260
     23  O         36.3680    7.2300   29.8010 O.2   140  ILE140     -0.2867
     24  CB        36.0600   10.2020   31.1580 C.3   140  ILE140      0.0252
     25  CG1       35.4230   11.0300   32.2810 C.3   140  ILE140      0.0019
     26  CG2       35.0970   10.1290   29.9610 C.3   140  ILE140      0.0019
     27  CD1       34.0280   10.6060   32.6330 C.3   140  ILE140      0.0001
     28  N         37.2270    4.1890   30.6550 N.3   143  ARG143     -0.1231
     29  CA        35.9060    3.5680   30.5460 C.3   143  ARG143      0.1694
     30  C         35.3730    3.6400   29.1080 C.2   143  ARG143      0.2592
     31  O         34.4940    2.8590   28.7220 O.2   143  ARG143     -0.2718
     32  CB        34.9130    4.2270   31.5120 C.3   143  ARG143      0.0321
     33  CG        35.0620    3.7890   32.9790 C.3   143  ARG143      0.0489
     34  CD        34.1730    4.6320   33.8920 C.3   143  ARG143      0.2205
     35  NE        34.2820    4.2890   35.3140 N.pl3 143  ARG143     -0.0865
     36  CZ        35.3840    4.4170   36.0610 C.cat 143  ARG143      0.5346
     37  NH1       36.5090    4.8790   35.5370 N.pl3 143  ARG143      0.1354
     38  NH2       35.3610    4.0920   37.3500 N.pl3 143  ARG143      0.1354
     39  N         35.9200    4.5600   28.3090 N.am  144  HIS144     -0.1976
     40  CA        35.5090    4.7320   26.9070 C.3   144  HIS144      0.1656
     41  C         36.7330    4.6750   25.9800 C.2   144  HIS144      0.2291
     42  O         37.1830    5.7020   25.4790 O.2   144  HIS144     -0.2864
     43  CB        34.7850    6.0830   26.7520 C.3   144  HIS144      0.0771
     44  CG        33.5400    6.1900   27.5830 C.ar  144  HIS144      0.0820
     45  ND1       32.3560    5.5680   27.2420 N.ar  144  HIS144     -0.2267
     46  CD2       33.3040    6.8180   28.7600 C.ar  144  HIS144      0.1154
     47  CE1       31.4430    5.8160   28.1670 C.ar  144  HIS144      0.1986
     48  NE2       31.9920    6.5740   29.0970 N.ar  144  HIS144     -0.2212
     49  N         36.4830    6.3730   22.2830 N.3   147  PHE147     -0.1241
     50  CA        36.1370    7.7870   22.1860 C.3   147  PHE147      0.1605
     51  C         37.3580    8.5640   21.6630 C.2   147  PHE147      0.2264
     52  O         38.4060    8.5930   22.3170 O.2   147  PHE147     -0.2867
     53  CB        35.7340    8.2980   23.5740 C.3   147  PHE147      0.0534
     54  CG        34.7970    9.4790   23.5560 C.ar  147  PHE147     -0.0203
     55  CD1       35.2620   10.7590   23.2530 C.ar  147  PHE147     -0.0042
     56  CD2       33.4460    9.3130   23.8660 C.ar  147  PHE147     -0.0042
     57  CE1       34.3960   11.8610   23.2610 C.ar  147  PHE147     -0.0003
     58  CE2       32.5670   10.4020   23.8780 C.ar  147  PHE147     -0.0003
     59  CZ        33.0450   11.6830   23.5730 C.ar  147  PHE147     -0.0000
     60  N         37.7470   14.1380   23.4750 N.3   152  LEU152     -0.1245
     61  CA        37.6190   13.9110   24.8980 C.3   152  LEU152      0.1561
     62  C         38.3070   15.0770   25.6160 C.2   152  LEU152      0.2260
     63  O         37.9890   15.4010   26.7600 O.2   152  LEU152     -0.2867
     64  CB        38.2580   12.5650   25.2460 C.3   152  LEU152      0.0270
     65  CG        37.7970   11.8440   26.5050 C.3   152  LEU152      0.0019
     66  CD1       36.3030   11.9890   26.6510 C.3   152  LEU152      0.0001
     67  CD2       38.1960   10.3670   26.4170 C.3   152  LEU152      0.0001
     68  N         35.9340   18.2710   25.6200 N.3   155  PHE155     -0.1241
     69  CA        34.9590   18.1810   26.6960 C.3   155  PHE155      0.1605
     70  C         35.5960   18.6070   28.0090 C.2   155  PHE155      0.2264
     71  O         34.9730   19.2930   28.8150 O.2   155  PHE155     -0.2867
     72  CB        34.4190   16.7560   26.8090 C.3   155  PHE155      0.0534
     73  CG        33.3140   16.4510   25.8280 C.ar  155  PHE155     -0.0203
     74  CD1       32.0360   16.9640   26.0180 C.ar  155  PHE155     -0.0042
     75  CD2       33.5520   15.6480   24.7180 C.ar  155  PHE155     -0.0042
     76  CE1       31.0090   16.6750   25.1130 C.ar  155  PHE155     -0.0003
     77  CE2       32.5410   15.3550   23.8100 C.ar  155  PHE155     -0.0003
     78  CZ        31.2660   15.8690   24.0070 C.ar  155  PHE155     -0.0000
     79  N         34.2690   21.3940   30.6950 N.3   159  TYR159     -0.1241
     80  CA        34.1060   21.0710   32.1030 C.3   159  TYR159      0.1605
     81  C         34.8340   22.0870   32.9810 C.2   159  TYR159      0.2264
     82  O         34.2830   22.5890   33.9610 O.2   159  TYR159     -0.2867
     83  CB        34.6230   19.6600   32.3910 C.3   159  TYR159      0.0534
     84  CG        33.5450   18.6220   32.2560 C.ar  159  TYR159     -0.0201
     85  CD1       32.6150   18.4280   33.2770 C.ar  159  TYR159     -0.0009
     86  CD2       33.4310   17.8530   31.1010 C.ar  159  TYR159     -0.0009
     87  CE1       31.6000   17.4950   33.1560 C.ar  159  TYR159      0.0417
     88  CE2       32.4130   16.9150   30.9630 C.ar  159  TYR159      0.0417
     89  CZ        31.5000   16.7400   31.9970 C.ar  159  TYR159      0.1957
     90  OH        30.4880   15.8110   31.8660 O.3   159  TYR159     -0.2866
     91  N         26.4590   18.4090   29.8760 N.3   183  LEU183     -0.1231
     92  CA        27.7160   17.9410   29.3090 C.3   183  LEU183      0.1693
     93  C         27.7130   16.4150   29.2700 C.2   183  LEU183      0.2591
     94  O         28.2320   15.8190   28.3310 O.2   183  LEU183     -0.2718
     95  CB        28.9090   18.4610   30.1290 C.3   183  LEU183      0.0284
     96  CG        29.2090   19.9630   29.9600 C.3   183  LEU183      0.0019
     97  CD1       30.2030   20.4120   31.0160 C.3   183  LEU183      0.0001
     98  CD2       29.7490   20.2450   28.5590 C.3   183  LEU183      0.0001
     99  N         27.1100   15.7930   30.2810 N.am  184  ARG184     -0.1980
    100  CA        27.0280   14.3350   30.3490 C.3   184  ARG184      0.1597
    101  C         26.2120   13.8050   29.1750 C.2   184  ARG184      0.2287
    102  O         26.6630   12.9390   28.4310 O.2   184  ARG184     -0.2864
    103  CB        26.3840   13.8930   31.6680 C.3   184  ARG184      0.0334
    104  CG        26.3690   12.3830   31.8770 C.3   184  ARG184      0.0492
    105  CD        24.9610   11.8690   32.0850 C.3   184  ARG184      0.2205
    106  NE        24.4810   12.1210   33.4400 N.pl3 184  ARG184     -0.0865
    107  CZ        23.3070   12.6790   33.7360 C.cat 184  ARG184      0.5346
    108  NH1       22.4700   13.0610   32.7680 N.pl3 184  ARG184      0.1354
    109  NH2       22.9680   12.8500   35.0080 N.pl3 184  ARG184      0.1354
    110  N         27.8770   14.0940   25.9990 N.3   187  GLY187     -0.1210
    111  CA        28.9520   13.1200   25.8990 C.3   187  GLY187      0.1956
    112  C         28.3930   11.7510   25.5560 C.2   187  GLY187      0.2611
    113  O         28.9920   10.9760   24.8080 O.2   187  GLY187     -0.2717
    114  N         27.2250   11.4590   26.1160 N.am  188  LYS188     -0.1979
    115  CA        26.5320   10.2000   25.8720 C.3   188  LYS188      0.1596
    116  C         26.1130   10.1250   24.4180 C.2   188  LYS188      0.2287
    117  O         26.1740    9.0630   23.7950 O.2   188  LYS188     -0.2864
    118  CB        25.2820   10.1170   26.7360 C.3   188  LYS188      0.0298
    119  CG        25.4630    9.3900   28.0200 C.3   188  LYS188      0.0038
    120  CD        24.1820    9.4470   28.8390 C.3   188  LYS188      0.0206
    121  CE        24.2050    8.3750   29.9090 C.3   188  LYS188      0.1093
    122  NZ        23.4230    8.8090   31.0890 N.3   188  LYS188     -0.1314
    123  N         29.1740    9.7560   22.0010 N.3   191  SER191     -0.1217
    124  CA        29.6310    8.3910   22.1390 C.3   191  SER191      0.1889
    125  C         28.7340    7.4970   21.2660 C.2   191  SER191      0.2288
    126  O         29.2110    6.7910   20.3720 O.2   191  SER191     -0.2866
    127  CB        29.5380    7.9780   23.6070 C.3   191  SER191      0.2089
    128  OG        30.0950    6.6970   23.8150 O.3   191  SER191     -0.2183
@<TRIPOS>BOND
     1   126   125    2
     2   125   124    1
     3    51    50    1
     4    51    52    2
     5   123   124    1
     6   124   127    1
     7    50    49    1
     8    50    53    1
     9    55    57   ar
    10    55    54   ar
    11    57    59   ar
    12    60    61    1
    13    54    53    1
    14    54    56   ar
    15    59    58   ar
    16   127   128    1
    17   117   116    2
    18    77    78   ar
    19    77    75   ar
    20    56    58   ar
    21    78    76   ar
    22   116   115    1
    23    75    73   ar
    24   113   112    2
    25    61    64    1
    26    61    62    1
    27    76    74   ar
    28    64    65    1
    29    42    41    2
    30   112   111    1
    31   112   114   am
    32    62    63    2
    33    68    69    1
    34    73    74   ar
    35    73    72    1
    36   115   114    1
    37   115   118    1
    38   111   110    1
    39    41    40    1
    40    67    65    1
    41    65    66    1
    42    69    72    1
    43    69    70    1
    44   118   119    1
    45    43    40    1
    46    43    44    1
    47    40    39    1
    48    45    44   ar
    49    45    47   ar
    50    44    46   ar
    51    70    71    2
    52   119   120    1
    53    47    48   ar
    54    39    30   am
    55    94    93    2
    56   102   101    2
    57    98    96    1
    58    31    30    2
    59    46    48   ar
    60   120   121    1
    61    30    29    1
    62   101   100    1
    63    93    92    1
    64    93    99   am
    65    92    91    1
    66    92    95    1
    67    23    22    2
    68   121   122    1
    69    96    95    1
    70    96    97    1
    71    26    24    1
    72    99   100    1
    73   100   103    1
    74    22    21    1
    75    29    28    1
    76    29    32    1
    77    79    80    1
    78    88    86   ar
    79    88    89   ar
    80    86    84   ar
    81    24    21    1
    82    24    25    1
    83    32    33    1
    84    21    20    1
    85   103   104    1
    86    90    89    1
    87   104   105    1
    88    89    87   ar
    89   105   106    1
    90    80    83    1
    91    80    81    1
    92    84    83    1
    93    84    85   ar
    94    25    27    1
    95   108   107    1
    96    33    34    1
    97    81    82    2
    98    87    85   ar
    99   106   107    2
   100   107   109    1
   101    34    35    1
   102    35    36    2
   103    37    36    1
   104    19    17    1
   105    36    38    1
   106    16    17    1
   107    16    13    1
   108    17    18    1
   109    12    13    1
   110    12     3   am
   111     2     5    1
   112     2     3    1
   113     2     1    1
   114     5     6    1
   115    13    14    1
   116    15    14    2
   117     3     4    2
   118     8     7    1
   119     8     9    2
   120     6     7    1
   121    11     9    1
   122     9    10    1
