@<TRIPOS>MOLECULE
tmp/2xvwA06.pdb
 200 190 0 0 0
SMALL
GASTEIGER

@<TRIPOS>ATOM
      1  N         38.6240   14.5030   21.3400 N.3   151  GLU151     -0.1245
      2  CA        37.2800   14.9260   21.6710 C.3   151  GLU151      0.1567
      3  C         37.0470   14.8820   23.1640 C.2   151  GLU151      0.2260
      4  O         36.3190   15.7070   23.7200 O.2   151  GLU151     -0.2867
      5  CB        36.2600   14.0490   20.9620 C.3   151  GLU151      0.0388
      6  CG        34.9720   14.7840   20.7420 C.3   151  GLU151      0.1160
      7  CD        33.8330   13.8700   20.4020 C.2   151  GLU151      0.3649
      8  OE1       34.0350   12.9570   19.5650 O.co2 151  GLU151     -0.2457
      9  OE2       32.7350   14.0790   20.9690 O.co2 151  GLU151     -0.2457
     10  N         27.5900   11.6140   22.1380 N.3   190  SER190     -0.1217
     11  CA        28.7580   11.5300   21.2640 C.3   190  SER190      0.1889
     12  C         29.2840   10.1030   21.2470 C.2   190  SER190      0.2288
     13  O         29.6020    9.5490   20.1950 O.2   190  SER190     -0.2866
     14  CB        29.8650   12.4750   21.7390 C.3   190  SER190      0.2089
     15  OG        31.0210   12.3290   20.9280 O.3   190  SER190     -0.2183
     16  N         26.9580    7.8430   19.2870 N.3   193  LYS193     -0.1231
     17  CA        26.9910    8.0800   17.8500 C.3   193  LYS193      0.1693
     18  C         28.2350    7.5230   17.2020 C.2   193  LYS193      0.2591
     19  O         28.1980    7.1080   16.0490 O.2   193  LYS193     -0.2718
     20  CB        26.9200    9.5650   17.5250 C.3   193  LYS193      0.0285
     21  CG        25.6770   10.2810   17.9720 C.3   193  LYS193      0.0035
     22  CD        25.6930   11.6570   17.3370 C.3   193  LYS193      0.0206
     23  CE        25.0360   12.6980   18.2050 C.3   193  LYS193      0.1093
     24  NZ        25.1810   14.0350   17.5700 N.3   193  LYS193     -0.1314
     25  N         29.3450    7.5350   17.9300 N.am  194  GLN194     -0.1979
     26  CA        30.6000    7.0270   17.3830 C.3   194  GLN194      0.1601
     27  C         30.5170    5.5240   17.1720 C.2   194  GLN194      0.2287
     28  O         30.8930    5.0110   16.1200 O.2   194  GLN194     -0.2864
     29  CB        31.7680    7.3570   18.3160 C.3   194  GLN194      0.0394
     30  CG        32.0830    8.8500   18.4230 C.3   194  GLN194      0.0908
     31  CD        33.3680    9.1350   19.2000 C.2   194  GLN194      0.2608
     32  OE1       34.4530    8.6650   18.8350 O.2   194  GLN194     -0.2717
     33  NE2       33.2470    9.9150   20.2720 N.am  194  GLN194     -0.0878
     34  N         27.9510    4.6770   14.2040 N.3   197  LYS197     -0.1245
     35  CA        28.4650    4.7490   12.8430 C.3   197  LYS197      0.1561
     36  C         29.3980    3.5910   12.5380 C.2   197  LYS197      0.2260
     37  O         29.4210    3.0660   11.4260 O.2   197  LYS197     -0.2867
     38  CB        29.2170    6.0500   12.6130 C.3   197  LYS197      0.0271
     39  CG        28.3470    7.2880   12.6230 C.3   197  LYS197      0.0035
     40  CD        29.1190    8.4670   12.0440 C.3   197  LYS197      0.0206
     41  CE        28.2890    9.7260   12.0580 C.3   197  LYS197      0.1093
     42  NZ        29.1080   10.8650   11.5810 N.3   197  LYS197     -0.1314
     43  N         25.0660    7.5540    2.9980 N.3   212  TRP212     -0.1241
     44  CA        24.7470    8.4050    4.1280 C.3   212  TRP212      0.1605
     45  C         25.5880    9.6940    4.0650 C.2   212  TRP212      0.2264
     46  O         25.0880   10.7820    4.3220 O.2   212  TRP212     -0.2867
     47  CB        25.0400    7.6420    5.4300 C.3   212  TRP212      0.0550
     48  CG        24.7510    8.4090    6.6830 C.ar  212  TRP212      0.0003
     49  CD1       23.5830    8.4220    7.3840 C.ar  212  TRP212      0.0946
     50  CD2       25.6150    9.3630    7.3210 C.ar  212  TRP212      0.0152
     51  NE1       23.6580    9.3360    8.4140 N.ar  212  TRP212     -0.2442
     52  CE2       24.8940    9.9280    8.3950 C.ar  212  TRP212      0.0810
     53  CE3       26.9270    9.7990    7.0820 C.ar  212  TRP212      0.0012
     54  CZ2       25.4380   10.9130    9.2330 C.ar  212  TRP212      0.0191
     55  CZ3       27.4690   10.7840    7.9150 C.ar  212  TRP212      0.0001
     56  CH2       26.7210   11.3290    8.9770 C.ar  212  TRP212      0.0015
     57  N         24.6190   13.6460    3.8320 N.3   216  ARG216     -0.1231
     58  CA        25.0040   14.5860    4.8660 C.3   216  ARG216      0.1694
     59  C         25.9170   15.6900    4.3700 C.2   216  ARG216      0.2591
     60  O         25.7040   16.8490    4.6930 O.2   216  ARG216     -0.2718
     61  CB        25.6690   13.8710    6.0460 C.3   216  ARG216      0.0321
     62  CG        25.7020   14.7340    7.3030 C.3   216  ARG216      0.0489
     63  CD        24.2900   15.0000    7.8160 C.3   216  ARG216      0.2205
     64  NE        24.2240   16.1550    8.7050 N.pl3 216  ARG216     -0.0865
     65  CZ        24.2050   17.4230    8.2960 C.cat 216  ARG216      0.5346
     66  NH1       24.2410   17.7040    6.9980 N.pl3 216  ARG216      0.1354
     67  NH2       24.1580   18.4130    9.1830 N.pl3 216  ARG216      0.1354
     68  N         26.9300   15.3410    3.5880 N.am  217  LEU217     -0.1980
     69  CA        27.8630   16.3450    3.0820 C.3   217  LEU217      0.1596
     70  C         27.2120   17.3200    2.1230 C.2   217  LEU217      0.2287
     71  O         27.6240   18.4730    2.0210 O.2   217  LEU217     -0.2864
     72  CB        29.0490   15.6750    2.3900 C.3   217  LEU217      0.0297
     73  CG        30.0370   15.0580    3.3750 C.3   217  LEU217      0.0022
     74  CD1       31.1370   14.3190    2.6330 C.3   217  LEU217      0.0001
     75  CD2       30.6160   16.1530    4.2270 C.3   217  LEU217      0.0001
     76  N         25.2460   19.9000    4.0060 N.3   220  ARG220     -0.1231
     77  CA        26.2020   20.7840    4.6540 C.3   220  ARG220      0.1694
     78  C         26.9800   21.6880    3.6970 C.2   220  ARG220      0.2592
     79  O         27.2510   22.8440    4.0230 O.2   220  ARG220     -0.2718
     80  CB        27.1670   19.9500    5.5150 C.3   220  ARG220      0.0321
     81  CG        27.6990   20.6700    6.7510 C.3   220  ARG220      0.0489
     82  CD        28.8290   19.8970    7.4680 C.3   220  ARG220      0.2205
     83  NE        28.3720   18.8080    8.3380 N.pl3 220  ARG220     -0.0865
     84  CZ        27.5920   18.9530    9.4100 C.cat 220  ARG220      0.5346
     85  NH1       27.1550   20.1430    9.7800 N.pl3 220  ARG220      0.1354
     86  NH2       27.2450   17.8960   10.1180 N.pl3 220  ARG220      0.1354
     87  N         27.3470   21.1660    2.5310 N.am  221  PHE221     -0.1976
     88  CA        28.0850   21.9480    1.5400 C.3   221  PHE221      0.1639
     89  C         27.3200   21.9600    0.2290 C.2   221  PHE221      0.2290
     90  O         27.8280   21.5090   -0.7950 O.2   221  PHE221     -0.2864
     91  CB        29.4620   21.3470    1.2820 C.3   221  PHE221      0.0560
     92  CG        30.2300   21.0420    2.5220 C.ar  221  PHE221     -0.0200
     93  CD1       30.2980   21.9700    3.5590 C.ar  221  PHE221     -0.0042
     94  CD2       30.9080   19.8290    2.6530 C.ar  221  PHE221     -0.0042
     95  CE1       31.0300   21.7010    4.7090 C.ar  221  PHE221     -0.0003
     96  CE2       31.6390   19.5490    3.7910 C.ar  221  PHE221     -0.0003
     97  CZ        31.7020   20.4910    4.8280 C.ar  221  PHE221     -0.0000
     98  N         36.3690   10.6510    3.7400 N.3   236  LEU236     -0.1245
     99  CA        35.6650   10.5560    4.9990 C.3   236  LEU236      0.1561
    100  C         35.4700    9.0930    5.3450 C.2   236  LEU236      0.2260
    101  O         35.5490    8.7010    6.5080 O.2   236  LEU236     -0.2867
    102  CB        34.3150   11.2700    4.9080 C.3   236  LEU236      0.0270
    103  CG        33.6260   11.4730    6.2610 C.3   236  LEU236      0.0019
    104  CD1       34.5210   12.3160    7.1650 C.3   236  LEU236      0.0001
    105  CD2       32.2860   12.1500    6.0710 C.3   236  LEU236      0.0001
    106  N         38.6240    7.6960    6.7050 N.3   239  VAL239     -0.1231
    107  CA        38.7420    8.2010    8.0600 C.3   239  VAL239      0.1692
    108  C         37.9510    7.3460    9.0340 C.2   239  VAL239      0.2592
    109  O         38.5170    6.8060    9.9820 O.2   239  VAL239     -0.2718
    110  CB        38.2730    9.6840    8.1540 C.3   239  VAL239      0.0266
    111  CG1       38.2010   10.1370    9.6000 C.3   239  VAL239      0.0020
    112  CG2       39.2360   10.5650    7.4100 C.3   239  VAL239      0.0020
    113  N         36.6520    7.2030    8.8030 N.am  240  HIS240     -0.1976
    114  CA        35.8310    6.4040    9.7020 C.3   240  HIS240      0.1656
    115  C         36.2600    4.9440    9.8370 C.2   240  HIS240      0.2291
    116  O         36.2660    4.3990   10.9420 O.2   240  HIS240     -0.2864
    117  CB        34.3670    6.4950    9.2860 C.3   240  HIS240      0.0771
    118  CG        33.7060    7.7580    9.7380 C.ar  240  HIS240      0.0820
    119  ND1       33.2690    7.9420   11.0320 N.ar  240  HIS240     -0.2267
    120  CD2       33.4720    8.9240    9.0930 C.ar  240  HIS240      0.1154
    121  CE1       32.7960    9.1680   11.1650 C.ar  240  HIS240      0.1986
    122  NE2       32.9080    9.7840   10.0030 N.ar  240  HIS240     -0.2212
    123  N         42.3180   12.4160    9.9130 N.3   255  ARG255     -0.1245
    124  CA        41.4790   13.5630   10.2090 C.3   255  ARG255      0.1563
    125  C         42.2000   14.8810    9.9850 C.2   255  ARG255      0.2260
    126  O         41.6060   15.8480    9.5240 O.2   255  ARG255     -0.2867
    127  CB        40.9780   13.4950   11.6510 C.3   255  ARG255      0.0307
    128  CG        39.9740   12.3910   11.8960 C.3   255  ARG255      0.0489
    129  CD        39.4050   12.4710   13.2880 C.3   255  ARG255      0.2205
    130  NE        38.9310   13.8160   13.5990 N.pl3 255  ARG255     -0.0865
    131  CZ        37.7110   14.0940   14.0500 C.cat 255  ARG255      0.5346
    132  NH1       36.8300   13.1220   14.2390 N.pl3 255  ARG255      0.1354
    133  NH2       37.3720   15.3420   14.3290 N.pl3 255  ARG255      0.1354
    134  N         42.3500   15.4970    6.0910 N.3   258  LEU258     -0.1231
    135  CA        41.0520   15.8950    5.5740 C.3   258  LEU258      0.1693
    136  C         40.6620   17.3280    5.9460 C.2   258  LEU258      0.2591
    137  O         40.1570   18.0790    5.1110 O.2   258  LEU258     -0.2718
    138  CB        39.9740   14.9220    6.0550 C.3   258  LEU258      0.0284
    139  CG        38.6030   15.0660    5.3860 C.3   258  LEU258      0.0019
    140  CD1       38.7660   15.1360    3.8630 C.3   258  LEU258      0.0001
    141  CD2       37.7240   13.8940    5.7910 C.3   258  LEU258      0.0001
    142  N         40.9010   17.7070    7.1940 N.am  259  ALA259     -0.1980
    143  CA        40.5590   19.0420    7.6570 C.3   259  ALA259      0.1597
    144  C         41.3750   20.1170    6.9510 C.2   259  ALA259      0.2287
    145  O         40.8440   21.1620    6.5780 O.2   259  ALA259     -0.2864
    146  CB        40.7610   19.1360    9.1560 C.3   259  ALA259      0.0319
    147  N         40.2260   20.3800    3.3000 N.3   262  ILE262     -0.1245
    148  CA        38.9960   21.1300    3.2230 C.3   262  ILE262      0.1561
    149  C         39.2480   22.6200    3.3490 C.2   262  ILE262      0.2260
    150  O         38.6380   23.4090    2.6360 O.2   262  ILE262     -0.2867
    151  CB        38.0220   20.6800    4.3170 C.3   262  ILE262      0.0252
    152  CG1       37.3730   19.3600    3.9010 C.3   262  ILE262      0.0019
    153  CG2       36.9860   21.7610    4.5840 C.3   262  ILE262      0.0019
    154  CD1       36.4900   18.7610    4.9680 C.3   262  ILE262      0.0001
    155  N         39.4030   20.0140   12.9720 N.3   285  SER285     -0.1202
    156  CA        38.5850   18.8300   12.7270 C.3   285  SER285      0.2020
    157  C         37.2060   18.8920   13.3700 C.2   285  SER285      0.2618
    158  O         36.1860   18.8680   12.6860 O.2   285  SER285     -0.2717
    159  CB        39.3010   17.5820   13.2480 C.3   285  SER285      0.2103
    160  OG        39.9200   16.8550   12.2030 O.3   285  SER285     -0.2182
    161  N         37.1930   18.9490   14.6940 N.am  286  HIS286     -0.1975
    162  CA        35.9700   18.9910   15.4770 C.3   286  HIS286      0.1656
    163  C         35.0020   20.0640   14.9850 C.2   286  HIS286      0.2291
    164  O         33.7820   19.8430   14.8990 O.2   286  HIS286     -0.2864
    165  CB        36.3350   19.2550   16.9390 C.3   286  HIS286      0.0771
    166  CG        35.1740   19.2050   17.8730 C.ar  286  HIS286      0.0820
    167  ND1       34.5210   18.0300   18.1830 N.ar  286  HIS286     -0.2267
    168  CD2       34.5280   20.1870   18.5450 C.ar  286  HIS286      0.1154
    169  CE1       33.5180   18.2930   19.0040 C.ar  286  HIS286      0.1986
    170  NE2       33.5000   19.5950   19.2380 N.ar  286  HIS286     -0.2212
    171  N         34.9210   21.7560   11.8820 N.3   288  ILE288     -0.1231
    172  CA        34.4310   21.4380   10.5620 C.3   288  ILE288      0.1692
    173  C         33.3370   20.3710   10.6000 C.2   288  ILE288      0.2592
    174  O         32.2750   20.5420    9.9980 O.2   288  ILE288     -0.2718
    175  CB        35.5960   20.9800    9.6670 C.3   288  ILE288      0.0266
    176  CG1       36.5690   22.1460    9.4780 C.3   288  ILE288      0.0019
    177  CG2       35.0740   20.4770    8.3280 C.3   288  ILE288      0.0020
    178  CD1       37.7870   21.8110    8.6550 C.3   288  ILE288      0.0001
    179  N         33.5820   19.2830   11.3210 N.am  289  ALA289     -0.1966
    180  CA        32.6020   18.2130   11.4000 C.3   289  ALA289      0.1728
    181  C         31.2430   18.6660   11.9170 C.2   289  ALA289      0.2616
    182  O         30.2220   18.0850   11.5550 O.2   289  ALA289     -0.2715
    183  CB        33.1300   17.0940   12.2640 C.3   289  ALA289      0.0334
    184  N         31.2240   19.7000   12.7510 N.am  290  GLU290     -0.1977
    185  CA        29.9660   20.1900   13.3150 C.3   290  GLU290      0.1602
    186  C         29.4190   21.4720   12.6670 C.2   290  GLU290      0.2287
    187  O         28.3830   21.9800   13.0910 O.2   290  GLU290     -0.2864
    188  CB        30.1330   20.4300   14.8290 C.3   290  GLU290      0.0415
    189  CG        30.5190   19.1940   15.6480 C.3   290  GLU290      0.1163
    190  CD        29.3880   18.1600   15.7760 C.2   290  GLU290      0.3649
    191  OE1       28.5070   18.0930   14.8850 O.co2 290  GLU290     -0.2457
    192  OE2       29.3960   17.3980   16.7700 O.co2 290  GLU290     -0.2457
    193  N         18.8360   12.7530   14.7120 N.3   449  ASP449     -0.1239
    194  CA        20.0620   12.6270   15.4720 C.3   449  ASP449      0.1674
    195  C         19.8370   12.1350   16.8930 C.2   449  ASP449      0.2266
    196  O         20.5860   11.2970   17.3920 O.2   449  ASP449     -0.2867
    197  CB        20.8010   13.9650   15.4970 C.3   449  ASP449      0.1410
    198  CG        22.3100   13.7940   15.4360 C.2   449  ASP449      0.3668
    199  OD1       22.8560   13.0350   16.2580 O.co2 449  ASP449     -0.2456
    200  OD2       22.9560   14.4170   14.5700 O.co2 449  ASP449     -0.2456
@<TRIPOS>BOND
     1    90    89    2
     2    89    88    1
     3    91    88    1
     4    91    92    1
     5    88    87    1
     6    71    70    2
     7    70    69    1
     8    72    69    1
     9    72    73    1
    10    92    94   ar
    11    92    93   ar
    12    87    78   am
    13    74    73    1
    14   150   149    2
    15    94    96   ar
    16    43    44    1
    17    69    68    1
    18   148   147    1
    19   148   149    1
    20   148   151    1
    21    73    75    1
    22    93    95   ar
    23    68    59   am
    24    78    79    2
    25    78    77    1
    26    98    99    1
    27    96    97   ar
    28    57    58    1
    29   140   139    1
    30   152   151    1
    31   152   154    1
    32    76    77    1
    33    45    44    1
    34    45    46    2
    35    44    47    1
    36   151   153    1
    37    59    60    2
    38    59    58    1
    39    77    80    1
    40    95    97   ar
    41    58    61    1
    42   102    99    1
    43   102   103    1
    44    99   100    1
    45   137   136    2
    46   100   101    2
    47   139   141    1
    48   139   138    1
    49    47    48    1
    50    80    81    1
    51   135   136    1
    52   135   138    1
    53   135   134    1
    54   136   142   am
    55    61    62    1
    56   105   103    1
    57   103   104    1
    58   145   144    2
    59    48    50   ar
    60    48    49   ar
    61   106   107    1
    62    81    82    1
    63   144   143    1
    64    66    65    1
    65    53    50   ar
    66    53    55   ar
    67   142   143    1
    68    62    63    1
    69    50    52   ar
    70    49    51   ar
    71   112   110    1
    72    82    83    1
    73   143   146    1
    74    63    64    1
    75    55    56   ar
    76   107   110    1
    77   107   108    1
    78   110   111    1
    79    65    64    2
    80    65    67    1
    81   177   175    1
    82    83    84    2
    83    52    51   ar
    84    52    54   ar
    85   178   176    1
    86   113   108   am
    87   113   114    1
    88    56    54   ar
    89   108   109    2
    90   120   118   ar
    91   120   122   ar
    92   117   114    1
    93   117   118    1
    94    84    85    1
    95    84    86    1
    96   176   175    1
    97   126   125    2
    98   175   172    1
    99   114   115    1
   100   118   119   ar
   101   115   116    2
   102   123   124    1
   103   125   124    1
   104   174   173    2
   105   122   121   ar
   106   124   127    1
   107   172   173    1
   108   172   171    1
   109   173   179   am
   110   119   121   ar
   111   179   180    1
   112   180   181    1
   113   180   183    1
   114    37    36    2
   115   182   181    2
   116    42    41    1
   117   127   128    1
   118   128   129    1
   119   181   184   am
   120    40    41    1
   121    40    39    1
   122   160   159    1
   123    36    35    1
   124    38    39    1
   125    38    35    1
   126   186   187    2
   127   186   185    1
   128   158   157    2
   129   156   155    1
   130   156   159    1
   131   156   157    1
   132   184   185    1
   133    35    34    1
   134   129   130    1
   135   185   188    1
   136   157   161   am
   137   130   131    2
   138   131   132    1
   139   131   133    1
   140   200   198   ar
   141   161   162    1
   142   193   194    1
   143   188   189    1
   144   191   190   ar
   145   164   163    2
   146   163   162    1
   147   198   197    1
   148   198   199   ar
   149   194   197    1
   150   194   195    1
   151   162   165    1
   152   189   190    1
   153   190   192   ar
   154    19    18    2
   155    28    27    2
   156   195   196    2
   157   165   166    1
   158    27    26    1
   159    18    17    1
   160    18    25   am
   161    22    21    1
   162    22    23    1
   163    26    25    1
   164    26    29    1
   165    20    17    1
   166    20    21    1
   167    24    23    1
   168    17    16    1
   169   166   167   ar
   170   166   168   ar
   171   167   169   ar
   172    29    30    1
   173    30    31    1
   174   168   170   ar
   175    32    31    2
   176   169   170   ar
   177    31    33   am
   178     8     7   ar
   179    13    12    2
   180     7     6    1
   181     7     9   ar
   182     6     5    1
   183    15    14    1
   184     5     2    1
   185    12    11    1
   186    11    14    1
   187    11    10    1
   188     1     2    1
   189     2     3    1
   190     3     4    2
