@<TRIPOS>MOLECULE
tmp/2xvwA07.pdb
 155 146 0 0 0
SMALL
GASTEIGER

@<TRIPOS>ATOM
      1  N         34.5580   -2.3930   27.1930 N.3   107  ASN107     -0.1240
      2  CA        33.7620   -2.1070   28.3890 C.3   107  ASN107      0.1653
      3  C         34.1580   -3.0210   29.5540 C.2   107  ASN107      0.2266
      4  O         33.5430   -4.0670   29.7750 O.2   107  ASN107     -0.2867
      5  CB        32.2690   -2.2720   28.0850 C.3   107  ASN107      0.1155
      6  CG        31.3970   -1.6830   29.1820 C.2   107  ASN107      0.2627
      7  OD1       31.8660   -0.9810   30.0430 O.2   107  ASN107     -0.2716
      8  ND2       30.1190   -1.9650   29.0550 N.am  107  ASN107     -0.0877
      9  N         34.5990   -2.1270   35.5700 N.3   110  LEU110     -0.1245
     10  CA        34.9210   -1.0600   36.5220 C.3   110  LEU110      0.1561
     11  C         33.6570   -0.5580   37.2160 C.2   110  LEU110      0.2260
     12  O         32.5500   -0.7100   36.6980 O.2   110  LEU110     -0.2867
     13  CB        35.6070    0.1140   35.8110 C.3   110  LEU110      0.0270
     14  CG        37.0390   -0.0860   35.3110 C.3   110  LEU110      0.0019
     15  CD1       37.4170    1.0370   34.3820 C.3   110  LEU110      0.0001
     16  CD2       37.9950   -0.1420   36.4870 C.3   110  LEU110      0.0001
     17  N         30.8020    2.0030   38.7290 N.3   112  ARG112     -0.1231
     18  CA        30.1800    3.2080   38.2010 C.3   112  ARG112      0.1694
     19  C         30.8500    4.4040   38.8760 C.2   112  ARG112      0.2591
     20  O         31.1140    4.3950   40.0800 O.2   112  ARG112     -0.2718
     21  CB        28.6750    3.2420   38.4870 C.3   112  ARG112      0.0321
     22  CG        28.3210    3.3860   39.9640 C.3   112  ARG112      0.0489
     23  CD        27.0650    4.2260   40.1830 C.3   112  ARG112      0.2205
     24  NE        27.2300    5.5700   39.6270 N.pl3 112  ARG112     -0.0865
     25  CZ        26.5970    6.6590   40.0670 C.cat 112  ARG112      0.5346
     26  NH1       25.7450    6.5740   41.0840 N.pl3 112  ARG112      0.1354
     27  NH2       26.8120    7.8360   39.4830 N.pl3 112  ARG112      0.1354
     28  N         31.1440    5.4240   38.0860 N.am  113  LEU113     -0.1980
     29  CA        31.7620    6.6390   38.5950 C.3   113  LEU113      0.1596
     30  C         30.6590    7.4460   39.2850 C.2   113  LEU113      0.2287
     31  O         29.6740    7.8250   38.6530 O.2   113  LEU113     -0.2864
     32  CB        32.3200    7.4320   37.4200 C.3   113  LEU113      0.0297
     33  CG        33.5560    8.2980   37.5900 C.3   113  LEU113      0.0022
     34  CD1       34.7580    7.4270   37.9230 C.3   113  LEU113      0.0001
     35  CD2       33.7980    9.0540   36.2950 C.3   113  LEU113      0.0001
     36  N         37.4280    8.5670   33.0470 N.3   140  ILE140     -0.1245
     37  CA        36.5130    8.5400   31.9160 C.3   140  ILE140      0.1561
     38  C         37.1780    7.7820   30.7680 C.2   140  ILE140      0.2260
     39  O         36.6060    6.8500   30.2130 O.2   140  ILE140     -0.2867
     40  CB        36.1500    9.9850   31.4410 C.3   140  ILE140      0.0252
     41  CG1       35.4620   10.7530   32.5730 C.3   140  ILE140      0.0019
     42  CG2       35.2090    9.9390   30.2380 C.3   140  ILE140      0.0019
     43  CD1       34.1640   10.1230   33.0370 C.3   140  ILE140      0.0001
     44  N         37.3110    3.9980   30.9890 N.3   143  ARG143     -0.1231
     45  CA        35.9940    3.3840   30.8530 C.3   143  ARG143      0.1694
     46  C         35.4530    3.4600   29.4220 C.2   143  ARG143      0.2592
     47  O         34.4880    2.7840   29.0840 O.2   143  ARG143     -0.2718
     48  CB        35.0060    4.0440   31.8080 C.3   143  ARG143      0.0321
     49  CG        35.2900    3.7540   33.2640 C.3   143  ARG143      0.0489
     50  CD        34.3480    4.5010   34.1710 C.3   143  ARG143      0.2205
     51  NE        34.4140    4.0160   35.5450 N.pl3 143  ARG143     -0.0865
     52  CZ        35.4750    4.1210   36.3420 C.cat 143  ARG143      0.5346
     53  NH1       36.5840    4.7030   35.9110 N.pl3 143  ARG143      0.1354
     54  NH2       35.4270    3.6290   37.5740 N.pl3 143  ARG143      0.1354
     55  N         36.0770    4.2810   28.5850 N.am  144  HIS144     -0.1976
     56  CA        35.6400    4.4340   27.1990 C.3   144  HIS144      0.1656
     57  C         36.8260    4.4040   26.2480 C.2   144  HIS144      0.2291
     58  O         37.1130    5.3790   25.5690 O.2   144  HIS144     -0.2864
     59  CB        34.8590    5.7410   27.0350 C.3   144  HIS144      0.0771
     60  CG        33.6130    5.7980   27.8610 C.ar  144  HIS144      0.0820
     61  ND1       33.6250    6.0990   29.2050 N.ar  144  HIS144     -0.2267
     62  CD2       32.3260    5.5140   27.5530 C.ar  144  HIS144      0.1154
     63  CE1       32.4020    5.9950   29.6930 C.ar  144  HIS144      0.1986
     64  NE2       31.5940    5.6400   28.7110 N.ar  144  HIS144     -0.2212
     65  N         36.5420    6.1270   22.7610 N.3   147  PHE147     -0.1241
     66  CA        36.1870    7.5200   22.5970 C.3   147  PHE147      0.1605
     67  C         37.3880    8.2430   21.9850 C.2   147  PHE147      0.2264
     68  O         38.5050    8.1600   22.5120 O.2   147  PHE147     -0.2867
     69  CB        35.8540    8.1110   23.9510 C.3   147  PHE147      0.0534
     70  CG        34.9310    9.2670   23.8820 C.ar  147  PHE147     -0.0203
     71  CD1       35.3950   10.5190   23.4970 C.ar  147  PHE147     -0.0042
     72  CD2       33.5920    9.1140   24.2100 C.ar  147  PHE147     -0.0042
     73  CE1       34.5380   11.6070   23.4440 C.ar  147  PHE147     -0.0003
     74  CE2       32.7280   10.1960   24.1600 C.ar  147  PHE147     -0.0003
     75  CZ        33.2040   11.4500   23.7750 C.ar  147  PHE147     -0.0000
     76  N         37.6670   13.9010   23.8080 N.3   152  LEU152     -0.1245
     77  CA        37.5480   13.7380   25.2440 C.3   152  LEU152      0.1561
     78  C         38.2230   14.9570   25.8600 C.2   152  LEU152      0.2260
     79  O         37.7800   15.4940   26.8770 O.2   152  LEU152     -0.2867
     80  CB        38.2450   12.4470   25.6540 C.3   152  LEU152      0.0270
     81  CG        37.8900   11.8130   26.9950 C.3   152  LEU152      0.0019
     82  CD1       36.3880   11.7650   27.1800 C.3   152  LEU152      0.0001
     83  CD2       38.4850   10.4110   27.0370 C.3   152  LEU152      0.0001
     84  N         35.9410   17.9280   25.7860 N.3   155  PHE155     -0.1241
     85  CA        34.9740   17.9040   26.8680 C.3   155  PHE155      0.1605
     86  C         35.5860   18.3920   28.1680 C.2   155  PHE155      0.2264
     87  O         34.9650   19.1390   28.9190 O.2   155  PHE155     -0.2867
     88  CB        34.4550   16.4930   27.0640 C.3   155  PHE155      0.0534
     89  CG        33.3130   16.1450   26.1710 C.ar  155  PHE155     -0.0203
     90  CD1       32.0420   16.6220   26.4390 C.ar  155  PHE155     -0.0042
     91  CD2       33.5060   15.3380   25.0560 C.ar  155  PHE155     -0.0042
     92  CE1       30.9780   16.2990   25.6110 C.ar  155  PHE155     -0.0003
     93  CE2       32.4440   15.0100   24.2180 C.ar  155  PHE155     -0.0003
     94  CZ        31.1820   15.4910   24.4980 C.ar  155  PHE155     -0.0000
     95  N         34.3950   21.1620   30.9970 N.3   159  TYR159     -0.1241
     96  CA        34.2120   20.8190   32.3980 C.3   159  TYR159      0.1605
     97  C         34.9810   21.8280   33.2630 C.2   159  TYR159      0.2264
     98  O         34.4640   22.3310   34.2710 O.2   159  TYR159     -0.2867
     99  CB        34.7190   19.4030   32.6410 C.3   159  TYR159      0.0534
    100  CG        33.6290   18.3780   32.5190 C.ar  159  TYR159     -0.0201
    101  CD1       32.7280   18.1760   33.5580 C.ar  159  TYR159     -0.0009
    102  CD2       33.4750   17.6290   31.3520 C.ar  159  TYR159     -0.0009
    103  CE1       31.7030   17.2540   33.4430 C.ar  159  TYR159      0.0417
    104  CE2       32.4450   16.7020   31.2250 C.ar  159  TYR159      0.0417
    105  CZ        31.5650   16.5190   32.2760 C.ar  159  TYR159      0.1957
    106  OH        30.5550   15.5950   32.1680 O.3   159  TYR159     -0.2866
    107  N         26.5410   18.1010   30.2860 N.3   183  LEU183     -0.1231
    108  CA        27.8110   17.5770   29.8030 C.3   183  LEU183      0.1693
    109  C         27.7480   16.0550   29.7000 C.2   183  LEU183      0.2591
    110  O         28.2420   15.4730   28.7410 O.2   183  LEU183     -0.2718
    111  CB        28.9490   17.9700   30.7460 C.3   183  LEU183      0.0284
    112  CG        29.9170   19.1160   30.4190 C.3   183  LEU183      0.0019
    113  CD1       29.6280   19.7380   29.0500 C.3   183  LEU183      0.0001
    114  CD2       29.8200   20.1580   31.5290 C.3   183  LEU183      0.0001
    115  N         27.1420   15.4090   30.6880 N.am  184  ARG184     -0.1980
    116  CA        27.0290   13.9570   30.6670 C.3   184  ARG184      0.1597
    117  C         26.2470   13.4520   29.4480 C.2   184  ARG184      0.2287
    118  O         26.6940   12.5510   28.7400 O.2   184  ARG184     -0.2864
    119  CB        26.3530   13.4600   31.9470 C.3   184  ARG184      0.0334
    120  CG        26.2670   11.9450   32.0580 C.3   184  ARG184      0.0492
    121  CD        25.3460   11.5700   33.1790 C.3   184  ARG184      0.2205
    122  NE        24.1010   12.3040   33.0280 N.pl3 184  ARG184     -0.0865
    123  CZ        23.2050   12.4680   33.9920 C.cat 184  ARG184      0.5346
    124  NH1       23.4150   11.9360   35.1920 N.pl3 184  ARG184      0.1354
    125  NH2       22.1150   13.1950   33.7600 N.pl3 184  ARG184      0.1354
    126  N         27.9700   13.8590   26.3470 N.3   187  GLY187     -0.1210
    127  CA        29.0180   12.8570   26.2940 C.3   187  GLY187      0.1956
    128  C         28.4320   11.5130   25.9070 C.2   187  GLY187      0.2611
    129  O         28.9870   10.8180   25.0640 O.2   187  GLY187     -0.2717
    130  N         27.3060   11.1530   26.5250 N.am  188  LYS188     -0.1979
    131  CA        26.6140    9.8980   26.2190 C.3   188  LYS188      0.1596
    132  C         26.2230    9.8410   24.7380 C.2   188  LYS188      0.2287
    133  O         26.3580    8.7960   24.0910 O.2   188  LYS188     -0.2864
    134  CB        25.3440    9.7520   27.0710 C.3   188  LYS188      0.0298
    135  CG        25.5550    9.6570   28.5890 C.3   188  LYS188      0.0038
    136  CD        24.3970    8.8980   29.2520 C.3   188  LYS188      0.0206
    137  CE        23.6560    9.7270   30.2930 C.3   188  LYS188      0.1093
    138  NZ        22.6650    8.8580   30.9920 N.3   188  LYS188     -0.1314
    139  N         29.3790    9.5160   22.4290 N.3   191  SER191     -0.1217
    140  CA        29.8520    8.1520   22.5530 C.3   191  SER191      0.1889
    141  C         28.9670    7.2450   21.6970 C.2   191  SER191      0.2288
    142  O         29.4440    6.5770   20.7790 O.2   191  SER191     -0.2866
    143  CB        29.7980    7.7180   24.0200 C.3   191  SER191      0.2089
    144  OG        30.2870    6.3980   24.1890 O.3   191  SER191     -0.2183
    145  N         30.0100    4.8260   18.1820 N.3   195  ARG195     -0.1245
    146  CA        29.8680    3.3840   18.1230 C.3   195  ARG195      0.1563
    147  C         28.7900    2.9850   17.1270 C.2   195  ARG195      0.2260
    148  O         28.8560    1.9100   16.5220 O.2   195  ARG195     -0.2867
    149  CB        29.5710    2.8440   19.5240 C.3   195  ARG195      0.0307
    150  CG        30.8220    2.8760   20.4080 C.3   195  ARG195      0.0489
    151  CD        30.6000    2.3950   21.8360 C.3   195  ARG195      0.2205
    152  NE        29.6540    3.2390   22.5600 N.pl3 195  ARG195     -0.0865
    153  CZ        29.6220    3.3660   23.8860 C.cat 195  ARG195      0.5346
    154  NH1       30.4910    2.7010   24.6410 N.pl3 195  ARG195      0.1354
    155  NH2       28.7240    4.1600   24.4600 N.pl3 195  ARG195      0.1354
@<TRIPOS>BOND
     1   148   147    2
     2   147   146    1
     3   146   145    1
     4   146   149    1
     5   149   150    1
     6   150   151    1
     7   142   141    2
     8   141   140    1
     9   151   152    1
    10    67    68    2
    11    67    66    1
    12   139   140    1
    13   140   143    1
    14   152   153    2
    15    66    65    1
    16    66    69    1
    17    73    71   ar
    18    73    75   ar
    19    71    70   ar
    20    75    74   ar
    21    76    77    1
    22    70    69    1
    23    70    72   ar
    24   153   155    1
    25   153   154    1
    26   143   144    1
    27   133   132    2
    28    74    72   ar
    29    93    94   ar
    30    93    91   ar
    31    94    92   ar
    32   132   131    1
    33    91    89   ar
    34   129   128    2
    35    77    80    1
    36    77    78    1
    37    58    57    2
    38    92    90   ar
    39    80    81    1
    40    84    85    1
    41    78    79    2
    42   128   127    1
    43   128   130   am
    44    89    90   ar
    45    89    88    1
    46   131   130    1
    47   131   134    1
    48    57    56    1
    49   127   126    1
    50    85    88    1
    51    85    86    1
    52    81    83    1
    53    81    82    1
    54    59    56    1
    55    59    60    1
    56   134   135    1
    57     1     2    1
    58    56    55    1
    59    62    60   ar
    60    62    64   ar
    61    60    61   ar
    62     5     2    1
    63     5     6    1
    64    86    87    2
    65     2     3    1
    66    55    46   am
    67   135   136    1
    68    64    63   ar
    69   118   117    2
    70   110   109    2
    71   113   112    1
    72     8     6   am
    73    47    46    2
    74     6     7    2
    75    61    63   ar
    76   136   137    1
    77    46    45    1
    78   117   116    1
    79     3     4    2
    80   109   108    1
    81   109   115   am
    82   108   107    1
    83   108   111    1
    84    39    38    2
    85    42    40    1
    86   137   138    1
    87   112   111    1
    88   112   114    1
    89   116   115    1
    90   116   119    1
    91    38    37    1
    92    45    44    1
    93    45    48    1
    94    95    96    1
    95   104   102   ar
    96   104   105   ar
    97   102   100   ar
    98    40    37    1
    99    40    41    1
   100    48    49    1
   101    37    36    1
   102   119   120    1
   103   120   121    1
   104   106   105    1
   105   105   103   ar
   106    96    99    1
   107    96    97    1
   108   100    99    1
   109   100   101   ar
   110    41    43    1
   111   122   121    1
   112   122   123    2
   113    97    98    2
   114    49    50    1
   115   103   101   ar
   116   125   123    1
   117   123   124    1
   118    50    51    1
   119    15    14    1
   120    14    13    1
   121    14    16    1
   122    51    52    2
   123     9    10    1
   124    13    10    1
   125    53    52    1
   126    35    33    1
   127    52    54    1
   128    10    11    1
   129    12    11    2
   130    32    33    1
   131    32    29    1
   132    33    34    1
   133    28    29    1
   134    28    19   am
   135    18    21    1
   136    18    17    1
   137    18    19    1
   138    21    22    1
   139    29    30    1
   140    31    30    2
   141    19    20    2
   142    27    25    1
   143    24    25    2
   144    24    23    1
   145    22    23    1
   146    25    26    1
