@<TRIPOS>MOLECULE
tmp/2xvzA00.pdb
 93 91 0 0 0
SMALL
GASTEIGER

@<TRIPOS>ATOM
      1  N          1.0800   39.3090    6.4410 N.3    85  PRO85      -0.2116
      2  CA         0.8700   40.7130    6.0040 C.3    85  PRO85       0.1372
      3  C         -0.5910   40.9860    5.6540 C.2    85  PRO85       0.2244
      4  O         -0.9190   41.3160    4.5060 O.2    85  PRO85      -0.2868
      5  CB         1.7650   40.8360    4.7580 C.3    85  PRO85       0.0268
      6  CG         1.8760   39.3790    4.2420 C.3    85  PRO85       0.0207
      7  CD         1.6120   38.4450    5.3540 C.3    85  PRO85       0.0892
      8  N         -1.2720   44.4530    9.4730 N.3    89  PHE89      -0.1227
      9  CA         0.0410   44.8210    8.9710 C.3    89  PHE89       0.1736
     10  C         -0.0280   45.9450    7.8980 C.2    89  PHE89       0.2595
     11  O          0.7790   46.8740    7.9170 O.2    89  PHE89      -0.2718
     12  CB         0.7920   43.6160    8.4300 C.3    89  PHE89       0.0547
     13  CG         2.0170   43.9870    7.6640 C.ar   89  PHE89      -0.0202
     14  CD1        3.1860   44.3070    8.3280 C.ar   89  PHE89      -0.0042
     15  CD2        1.9770   44.0750    6.2990 C.ar   89  PHE89      -0.0042
     16  CE1        4.3290   44.6620    7.6390 C.ar   89  PHE89      -0.0003
     17  CE2        3.0980   44.3970    5.5760 C.ar   89  PHE89      -0.0003
     18  CZ         4.2900   44.7150    6.2540 C.ar   89  PHE89      -0.0000
     19  N         -0.9710   45.8540    6.9650 N.am   90  HIS90      -0.1975
     20  CA        -1.1530   46.9240    5.9770 C.3    90  HIS90       0.1656
     21  C         -1.4950   48.2810    6.6580 C.2    90  HIS90       0.2291
     22  O         -0.9710   49.3030    6.2530 O.2    90  HIS90      -0.2864
     23  CB        -2.1710   46.5450    4.8840 C.3    90  HIS90       0.0771
     24  CG        -1.5560   45.6970    3.8090 C.ar   90  HIS90       0.0820
     25  ND1       -1.3440   44.3270    3.9520 N.ar   90  HIS90      -0.2267
     26  CD2       -1.0540   46.0290    2.5960 C.ar   90  HIS90       0.1154
     27  CE1       -0.7620   43.8610    2.8590 C.ar   90  HIS90       0.1986
     28  NE2       -0.5730   44.8690    2.0200 N.ar   90  HIS90      -0.2212
     29  N          1.5200   49.8590    7.9560 N.3    93  LEU93      -0.1231
     30  CA         2.3620   50.3900    6.8870 C.3    93  LEU93       0.1693
     31  C          1.8330   51.7730    6.4680 C.2    93  LEU93       0.2591
     32  O          2.5920   52.6710    6.1520 O.2    93  LEU93      -0.2718
     33  CB         2.2190   49.4470    5.7090 C.3    93  LEU93       0.0284
     34  CG         3.2110   48.9270    4.6880 C.3    93  LEU93       0.0019
     35  CD1        4.5900   48.6900    5.2500 C.3    93  LEU93       0.0001
     36  CD2        2.6180   47.6120    4.1310 C.3    93  LEU93       0.0001
     37  N          0.5240   51.9210    6.4340 N.am   94  GLU94      -0.1979
     38  CA        -0.0760   53.1890    6.0810 C.3    94  GLU94       0.1602
     39  C          0.2530   54.2310    7.1550 C.2    94  GLU94       0.2287
     40  O          0.5990   55.3620    6.8420 O.2    94  GLU94      -0.2864
     41  CB        -1.5770   53.0090    6.0030 C.3    94  GLU94       0.0415
     42  CG        -2.1700   53.3980    4.7110 C.3    94  GLU94       0.1163
     43  CD        -3.7100   53.3140    4.7920 C.2    94  GLU94       0.3649
     44  OE1       -4.2360   52.1820    5.0650 O.co2  94  GLU94      -0.2457
     45  OE2       -4.3770   54.3860    4.6280 O.co2  94  GLU94      -0.2457
     46  N          8.9770   43.2500    7.8450 N.3   113  LEU113     -0.1245
     47  CA         8.0030   42.2480    7.3790 C.3   113  LEU113      0.1561
     48  C          7.4670   41.4100    8.5590 C.2   113  LEU113      0.2260
     49  O          8.1920   41.1850    9.5090 O.2   113  LEU113     -0.2867
     50  CB         8.6310   41.3530    6.2840 C.3   113  LEU113      0.0270
     51  CG         8.8310   42.0480    4.9210 C.3   113  LEU113      0.0019
     52  CD1        9.4710   41.1360    3.8920 C.3   113  LEU113      0.0001
     53  CD2        7.5050   42.5090    4.3820 C.3   113  LEU113      0.0001
     54  N          6.8780   36.4260    5.4080 N.3   117  GLY117     -0.1225
     55  CA         7.0770   37.4720    4.4350 C.3   117  GLY117      0.1811
     56  C          7.3180   36.8650    3.0790 C.2   117  GLY117      0.2280
     57  O          6.4060   36.6820    2.3040 O.2   117  GLY117     -0.2866
     58  N         -8.8510   39.1800    4.5500 N.3   152  HIS152     -0.1227
     59  CA        -7.8140   39.7980    3.6910 C.3   152  HIS152      0.1737
     60  C         -7.1450   38.7820    2.7510 C.2   152  HIS152      0.2438
     61  O         -7.0500   37.5950    3.0830 O.2   152  HIS152     -0.2733
     62  CB        -6.7290   40.4360    4.5720 C.3   152  HIS152      0.0758
     63  CG        -5.7590   41.3070    3.8240 C.ar  152  HIS152      0.0818
     64  ND1       -4.5930   40.8220    3.2570 N.ar  152  HIS152     -0.2268
     65  CD2       -5.7970   42.6320    3.5200 C.ar  152  HIS152      0.1154
     66  CE1       -3.9540   41.8090    2.6390 C.ar  152  HIS152      0.1986
     67  NE2       -4.6500   42.9230    2.8110 N.ar  152  HIS152     -0.2212
     68  N         -6.6730   39.2230    1.5600 N.am  153  PRO153     -0.2718
     69  CA        -5.9660   38.2670    0.6680 C.3   153  PRO153      0.1535
     70  C         -4.7320   37.5590    1.2980 C.2   153  PRO153      0.2598
     71  O         -4.3830   36.4530    0.8680 O.2   153  PRO153     -0.2715
     72  CB        -5.5160   39.1420   -0.4730 C.3   153  PRO153      0.0310
     73  CG        -6.5070   40.2730   -0.5000 C.3   153  PRO153      0.0237
     74  CD        -7.1170   40.4220    0.8300 C.3   153  PRO153      0.0939
     75  N         -4.0900   38.1650    2.3110 N.am  154  ALA154     -0.1978
     76  CA        -2.8950   37.5330    2.9160 C.3   154  ALA154      0.1597
     77  C         -3.2410   36.1930    3.6470 C.2   154  ALA154      0.2287
     78  O         -2.3530   35.4680    4.0740 O.2   154  ALA154     -0.2864
     79  CB        -2.2000   38.4790    3.8460 C.3   154  ALA154      0.0319
     80  N         -3.9610   33.6670    2.2430 N.3   156  ILE156     -0.1231
     81  CA        -3.3220   32.6840    1.3770 C.3   156  ILE156      0.1692
     82  C         -1.9900   32.1920    1.9990 C.2   156  ILE156      0.2592
     83  O         -1.4970   31.1510    1.5960 O.2   156  ILE156     -0.2718
     84  CB        -3.1150   33.2340   -0.0570 C.3   156  ILE156      0.0266
     85  CG1       -2.6980   32.1270   -1.0470 C.3   156  ILE156      0.0019
     86  CG2       -2.0210   34.3240   -0.0510 C.3   156  ILE156      0.0020
     87  CD1       -3.7990   31.2300   -1.5500 C.3   156  ILE156      0.0001
     88  N         -1.4630   32.9160    3.0160 N.am  157  CYS157     -0.1970
     89  CA        -0.2580   32.4910    3.7240 C.3   157  CYS157      0.1712
     90  C         -0.4420   31.2200    4.5190 C.2   157  CYS157      0.2296
     91  O          0.5270   30.4920    4.7560 O.2   157  CYS157     -0.2864
     92  CB         0.1790   33.5400    4.6990 C.3   157  CYS157      0.0983
     93  SG         0.8200   34.9990    3.8910 S.3   157  CYS157     -0.0798
@<TRIPOS>BOND
     1    87    85    1
     2    85    84    1
     3    73    72    1
     4    73    74    1
     5    72    69    1
     6    84    86    1
     7    84    81    1
     8    69    70    1
     9    69    68    1
    10    74    68    1
    11    71    70    2
    12    70    75   am
    13    81    82    1
    14    81    80    1
    15    68    60   am
    16    83    82    2
    17    82    88   am
    18    28    26   ar
    19    28    27   ar
    20    57    56    2
    21    75    76    1
    22    26    24   ar
    23    66    67   ar
    24    66    64   ar
    25    60    61    2
    26    60    59    1
    27    67    65   ar
    28    27    25   ar
    29    76    77    1
    30    76    79    1
    31    88    89    1
    32    56    55    1
    33    64    63   ar
    34    65    63   ar
    35    77    78    2
    36    59    58    1
    37    59    62    1
    38    89    90    1
    39    89    92    1
    40    24    25   ar
    41    24    23    1
    42    63    62    1
    43    93    92    1
    44    52    51    1
    45    36    34    1
    46     6     5    1
    47     6     7    1
    48    53    51    1
    49    55    54    1
    50     4     3    2
    51    90    91    2
    52    45    43   ar
    53    34    35    1
    54    34    33    1
    55    42    43    1
    56    42    41    1
    57     5     2    1
    58    43    44   ar
    59    23    20    1
    60    51    50    1
    61     7     1    1
    62    17    18   ar
    63    17    15   ar
    64     3     2    1
    65    33    30    1
    66    20    21    1
    67    20    19    1
    68    41    38    1
    69     2     1    1
    70    38    37    1
    71    38    39    1
    72    32    31    2
    73    22    21    2
    74    18    16   ar
    75    50    47    1
    76    15    13   ar
    77    37    31   am
    78    31    30    1
    79    40    39    2
    80    30    29    1
    81    19    10   am
    82    47    46    1
    83    47    48    1
    84    16    14   ar
    85    13    14   ar
    86    13    12    1
    87    10    11    2
    88    10     9    1
    89    12     9    1
    90    48    49    2
    91     9     8    1
