@<TRIPOS>MOLECULE
tmp/2xw0B01.pdb
 177 168 0 0 0
SMALL
GASTEIGER

@<TRIPOS>ATOM
      1  N         47.0250   26.0130   50.6850 N.3   134  TYR134     -0.1241
      2  CA        46.0130   26.7390   49.9130 C.3   134  TYR134      0.1605
      3  C         46.3350   26.6910   48.4160 C.2   134  TYR134      0.2264
      4  O         47.0920   27.5070   47.8950 O.2   134  TYR134     -0.2867
      5  CB        45.9710   28.1770   50.4330 C.3   134  TYR134      0.0534
      6  CG        44.8890   29.0730   49.8800 C.ar  134  TYR134     -0.0201
      7  CD1       43.6020   28.5930   49.6550 C.ar  134  TYR134     -0.0009
      8  CD2       45.1330   30.4330   49.6750 C.ar  134  TYR134     -0.0009
      9  CE1       42.5780   29.4440   49.2470 C.ar  134  TYR134      0.0417
     10  CE2       44.1160   31.2950   49.2710 C.ar  134  TYR134      0.0417
     11  CZ        42.8400   30.7950   49.0610 C.ar  134  TYR134      0.1957
     12  OH        41.8190   31.6440   48.6990 O.3   134  TYR134     -0.2866
     13  N         49.1700   29.6640   57.9850 N.3   179  LYS179     -0.1245
     14  CA        47.9940   30.5240   57.9940 C.3   179  LYS179      0.1561
     15  C         46.7760   29.7490   57.5160 C.2   179  LYS179      0.2260
     16  O         45.6880   29.8630   58.0810 O.2   179  LYS179     -0.2867
     17  CB        48.2110   31.7320   57.0940 C.3   179  LYS179      0.0271
     18  CG        49.1950   32.7160   57.6440 C.3   179  LYS179      0.0035
     19  CD        49.2790   33.9460   56.7590 C.3   179  LYS179      0.0206
     20  CE        50.1030   35.0600   57.4210 C.3   179  LYS179      0.1093
     21  NZ        50.2930   36.2140   56.5040 N.3   179  LYS179     -0.1314
     22  N         45.2840   27.1790   59.9480 N.3   182  LEU182     -0.1231
     23  CA        44.4400   27.7910   60.9680 C.3   182  LEU182      0.1693
     24  C         43.0220   27.8900   60.4110 C.2   182  LEU182      0.2591
     25  O         42.0560   27.5360   61.0970 O.2   182  LEU182     -0.2718
     26  CB        44.9760   29.1790   61.3380 C.3   182  LEU182      0.0284
     27  CG        44.1970   30.0330   62.3450 C.3   182  LEU182      0.0019
     28  CD1       43.9040   29.2420   63.6130 C.3   182  LEU182      0.0001
     29  CD2       45.0150   31.2680   62.6710 C.3   182  LEU182      0.0001
     30  N         42.9080   28.3450   59.1550 N.am  183  LYS183     -0.1980
     31  CA        41.6140   28.5010   58.4670 C.3   183  LYS183      0.1596
     32  C         40.7990   27.2260   58.4540 C.2   183  LYS183      0.2287
     33  O         39.6180   27.2220   58.8090 O.2   183  LYS183     -0.2864
     34  CB        41.8000   28.9590   57.0030 C.3   183  LYS183      0.0298
     35  CG        42.6130   30.2570   56.7840 C.3   183  LYS183      0.0038
     36  CD        41.8160   31.3360   56.0320 C.3   183  LYS183      0.0206
     37  CE        42.7320   32.3740   55.3760 C.3   183  LYS183      0.1093
     38  NZ        43.7970   32.8800   56.2840 N.3   183  LYS183     -0.1314
     39  N         39.7900   26.2080   62.0040 N.3   186  SER186     -0.1217
     40  CA        38.6920   27.0570   62.4520 C.3   186  SER186      0.1889
     41  C         37.3530   26.5160   61.9610 C.2   186  SER186      0.2288
     42  O         36.4020   26.3940   62.7290 O.2   186  SER186     -0.2866
     43  CB        38.8630   28.4800   61.9230 C.3   186  SER186      0.2089
     44  OG        40.0580   29.0450   62.4020 O.3   186  SER186     -0.2183
     45  N         34.4840   31.2430   62.0250 N.3   195  PHE195     -0.1241
     46  CA        35.2440   31.6950   60.8670 C.3   195  PHE195      0.1605
     47  C         34.7330   33.0380   60.3770 C.2   195  PHE195      0.2264
     48  O         35.5100   33.9760   60.1910 O.2   195  PHE195     -0.2867
     49  CB        35.1430   30.6590   59.7420 C.3   195  PHE195      0.0534
     50  CG        35.7610   31.0970   58.4370 C.ar  195  PHE195     -0.0203
     51  CD1       35.0330   31.8680   57.5330 C.ar  195  PHE195     -0.0042
     52  CD2       37.0330   30.6730   58.0730 C.ar  195  PHE195     -0.0042
     53  CE1       35.5520   32.2060   56.2760 C.ar  195  PHE195     -0.0003
     54  CE2       37.5660   31.0010   56.8190 C.ar  195  PHE195     -0.0003
     55  CZ        36.8120   31.7720   55.9200 C.ar  195  PHE195     -0.0000
     56  N         35.8230   36.0560   62.6250 N.3   198  TRP198     -0.1227
     57  CA        37.2410   36.4030   62.4630 C.3   198  TRP198      0.1737
     58  C         37.3500   37.2050   61.1470 C.2   198  TRP198      0.2595
     59  O         37.9830   38.2450   61.0840 O.2   198  TRP198     -0.2718
     60  CB        38.0600   35.1120   62.3370 C.3   198  TRP198      0.0564
     61  CG        39.4970   35.1870   62.6920 C.ar  198  TRP198      0.0003
     62  CD1       40.4800   35.8520   62.0210 C.ar  198  TRP198      0.0946
     63  CD2       40.1440   34.4810   63.7690 C.ar  198  TRP198      0.0152
     64  NE1       41.7080   35.6040   62.6120 N.ar  198  TRP198     -0.2442
     65  CE2       41.5300   34.7750   63.6910 C.ar  198  TRP198      0.0810
     66  CE3       39.6830   33.6400   64.7980 C.ar  198  TRP198      0.0012
     67  CZ2       42.4670   34.2360   64.5960 C.ar  198  TRP198      0.0191
     68  CZ3       40.6070   33.1040   65.6920 C.ar  198  TRP198      0.0001
     69  CH2       41.9860   33.4140   65.5930 C.ar  198  TRP198      0.0015
     70  N         36.7150   36.7130   60.0970 N.am  199  ALA199     -0.1980
     71  CA        36.7550   37.4050   58.8140 C.3   199  ALA199      0.1597
     72  C         36.1450   38.7980   58.8950 C.2   199  ALA199      0.2287
     73  O         36.7610   39.7690   58.4340 O.2   199  ALA199     -0.2864
     74  CB        36.0360   36.5820   57.7490 C.3   199  ALA199      0.0319
     75  N         38.5400   41.1000   60.6410 N.3   202  ARG202     -0.1231
     76  CA        39.7530   41.3840   59.8940 C.3   202  ARG202      0.1694
     77  C         39.5020   42.2620   58.6710 C.2   202  ARG202      0.2591
     78  O         40.2700   43.1930   58.4040 O.2   202  ARG202     -0.2718
     79  CB        40.4270   40.0840   59.4490 C.3   202  ARG202      0.0321
     80  CG        41.7460   40.3180   58.8130 C.3   202  ARG202      0.0489
     81  CD        42.7230   40.8840   59.8060 C.3   202  ARG202      0.2205
     82  NE        43.9770   41.2970   59.1840 N.pl3 202  ARG202     -0.0865
     83  CZ        44.1580   42.4760   58.5960 C.cat 202  ARG202      0.5346
     84  NH1       43.1610   43.3510   58.5510 N.pl3 202  ARG202      0.1354
     85  NH2       45.3380   42.7920   58.0740 N.pl3 202  ARG202      0.1354
     86  N         38.4490   41.9600   57.9130 N.am  203  LEU203     -0.1980
     87  CA        38.1450   42.7460   56.7160 C.3   203  LEU203      0.1596
     88  C         37.6960   44.1500   57.0920 C.2   203  LEU203      0.2287
     89  O         37.9630   45.1110   56.3640 O.2   203  LEU203     -0.2864
     90  CB        37.0910   42.0430   55.8620 C.3   203  LEU203      0.0297
     91  CG        37.5810   40.7130   55.2760 C.3   203  LEU203      0.0022
     92  CD1       36.4860   40.0270   54.4880 C.3   203  LEU203      0.0001
     93  CD2       38.7770   40.9700   54.4000 C.3   203  LEU203      0.0001
     94  N         40.8100   46.1110   57.4540 N.3   206  ARG206     -0.1231
     95  CA        41.4290   46.3610   56.1580 C.3   206  ARG206      0.1694
     96  C         40.6430   47.3110   55.2560 C.2   206  ARG206      0.2592
     97  O         41.2150   48.1390   54.5360 O.2   206  ARG206     -0.2718
     98  CB        41.6240   45.0160   55.4600 C.3   206  ARG206      0.0321
     99  CG        42.3950   45.0450   54.1770 C.3   206  ARG206      0.0489
    100  CD        42.7560   43.6250   53.7960 C.3   206  ARG206      0.2205
    101  NE        43.7300   43.0720   54.7340 N.pl3 206  ARG206     -0.0865
    102  CZ        43.9990   41.7760   54.8510 C.cat 206  ARG206      0.5346
    103  NH1       43.3620   40.8940   54.0970 N.pl3 206  ARG206      0.1354
    104  NH2       44.9150   41.3550   55.7070 N.pl3 206  ARG206      0.1354
    105  N         39.3270   47.1770   55.2940 N.am  207  PHE207     -0.1976
    106  CA        38.4500   47.9960   54.4790 C.3   207  PHE207      0.1639
    107  C         37.5200   48.8210   55.3660 C.2   207  PHE207      0.2290
    108  O         36.3060   48.6760   55.2950 O.2   207  PHE207     -0.2864
    109  CB        37.6130   47.0890   53.5840 C.3   207  PHE207      0.0560
    110  CG        38.4230   46.1420   52.7320 C.ar  207  PHE207     -0.0200
    111  CD1       39.6530   46.5330   52.1970 C.ar  207  PHE207     -0.0042
    112  CD2       37.9070   44.8860   52.3920 C.ar  207  PHE207     -0.0042
    113  CE1       40.3600   45.6890   51.3280 C.ar  207  PHE207     -0.0003
    114  CE2       38.6020   44.0290   51.5210 C.ar  207  PHE207     -0.0003
    115  CZ        39.8330   44.4360   50.9870 C.ar  207  PHE207     -0.0000
    116  N         31.5980   40.1550   51.1290 N.3   218  LEU218     -0.1245
    117  CA        32.9160   39.5820   50.9360 C.3   218  LEU218      0.1561
    118  C         33.0850   38.3490   51.8240 C.2   218  LEU218      0.2260
    119  O         33.4960   37.2930   51.3420 O.2   218  LEU218     -0.2867
    120  CB        33.9860   40.6260   51.2410 C.3   218  LEU218      0.0270
    121  CG        33.9520   41.8400   50.3120 C.3   218  LEU218      0.0019
    122  CD1       35.0800   42.8030   50.6720 C.3   218  LEU218      0.0001
    123  CD2       34.1020   41.3730   48.8800 C.3   218  LEU218      0.0001
    124  N         34.1550   34.5920   50.6920 N.3   222  LEU222     -0.1245
    125  CA        35.4150   34.1210   51.2390 C.3   222  LEU222      0.1561
    126  C         35.2370   32.8600   52.0810 C.2   222  LEU222      0.2260
    127  O         36.1430   32.0270   52.1730 O.2   222  LEU222     -0.2867
    128  CB        36.0430   35.2480   52.0470 C.3   222  LEU222      0.0270
    129  CG        37.5420   35.1750   52.2830 C.3   222  LEU222      0.0019
    130  CD1       38.3090   34.9380   50.9870 C.3   222  LEU222      0.0001
    131  CD2       37.9500   36.4790   52.9200 C.3   222  LEU222      0.0001
    132  N         37.2090   29.1770   50.9880 N.3   226  HIS226     -0.1241
    133  CA        37.9510   28.4200   51.9760 C.3   226  HIS226      0.1621
    134  C         37.2740   27.1250   52.3920 C.2   226  HIS226      0.2264
    135  O         37.9520   26.1260   52.6330 O.2   226  HIS226     -0.2867
    136  CB        38.2670   29.3210   53.1560 C.3   226  HIS226      0.0745
    137  CG        39.3170   30.3390   52.8420 C.ar  226  HIS226      0.0817
    138  ND1       40.6310   29.9940   52.5910 N.ar  226  HIS226     -0.2268
    139  CD2       39.2470   31.6830   52.7040 C.ar  226  HIS226      0.1154
    140  CE1       41.3250   31.0820   52.3150 C.ar  226  HIS226      0.1986
    141  NE2       40.5080   32.1210   52.3760 N.ar  226  HIS226     -0.2212
    142  N         36.0200   36.1880   42.9020 N.3   244  LEU244     -0.1245
    143  CA        36.0230   37.1790   43.9680 C.3   244  LEU244      0.1561
    144  C         37.0920   38.2420   43.7640 C.2   244  LEU244      0.2260
    145  O         36.9510   39.3670   44.2360 O.2   244  LEU244     -0.2867
    146  CB        36.2030   36.5010   45.3320 C.3   244  LEU244      0.0270
    147  CG        36.1880   37.4720   46.5160 C.3   244  LEU244      0.0019
    148  CD1       35.4820   36.8440   47.6860 C.3   244  LEU244      0.0001
    149  CD2       37.6070   37.8680   46.8800 C.3   244  LEU244      0.0001
    150  N         35.9710   42.1560   43.5030 N.3   248  ILE248     -0.1245
    151  CA        36.6620   43.1840   44.2680 C.3   248  ILE248      0.1561
    152  C         37.2390   44.3270   43.4390 C.2   248  ILE248      0.2260
    153  O         37.0300   45.5010   43.7650 O.2   248  ILE248     -0.2867
    154  CB        37.7800   42.5600   45.1320 C.3   248  ILE248      0.0252
    155  CG1       37.1490   41.6250   46.1650 C.3   248  ILE248      0.0019
    156  CG2       38.5890   43.6480   45.8330 C.3   248  ILE248      0.0019
    157  CD1       38.1010   41.1500   47.2370 C.3   248  ILE248      0.0001
    158  N         45.9250   41.2090   46.5770 N.3   274  ILE274     -0.1231
    159  CA        44.7470   41.6280   47.3190 C.3   274  ILE274      0.1692
    160  C         44.8260   41.0470   48.7320 C.2   274  ILE274      0.2591
    161  O         44.5410   41.7320   49.7130 O.2   274  ILE274     -0.2718
    162  CB        43.4530   41.1160   46.6410 C.3   274  ILE274      0.0266
    163  CG1       43.3200   41.7190   45.2380 C.3   274  ILE274      0.0019
    164  CG2       42.2450   41.4580   47.5010 C.3   274  ILE274      0.0020
    165  CD1       42.0920   41.2620   44.4910 C.3   274  ILE274      0.0001
    166  N         45.2230   39.7810   48.8200 N.am  275  ALA275     -0.1980
    167  CA        45.3370   39.0680   50.0860 C.3   275  ALA275      0.1597
    168  C         46.2470   39.7130   51.1180 C.2   275  ALA275      0.2287
    169  O         46.0610   39.5100   52.3120 O.2   275  ALA275     -0.2864
    170  CB        45.7980   37.6310   49.8280 C.3   275  ALA275      0.0319
    171  N         42.7920   40.6930   65.9850 N.3   327  VAL327     -0.1245
    172  CA        41.4950   40.1040   65.7260 C.3   327  VAL327      0.1561
    173  C         40.9970   39.3470   66.9560 C.2   327  VAL327      0.2260
    174  O         39.8630   39.5570   67.4000 O.2   327  VAL327     -0.2867
    175  CB        41.5680   39.1280   64.5670 C.3   327  VAL327      0.0252
    176  CG1       40.1890   38.6020   64.2580 C.3   327  VAL327      0.0019
    177  CG2       42.2010   39.8000   63.3680 C.3   327  VAL327      0.0019
@<TRIPOS>BOND
     1   142   143    1
     2   152   153    2
     3   152   151    1
     4   150   151    1
     5   144   143    1
     6   144   145    2
     7   143   146    1
     8   151   154    1
     9   165   163    1
    10   154   156    1
    11   154   155    1
    12   163   162    1
    13   146   147    1
    14   155   157    1
    15   147   149    1
    16   147   148    1
    17   158   159    1
    18   162   159    1
    19   162   164    1
    20   159   160    1
    21     4     3    2
    22     3     2    1
    23    12    11    1
    24   160   166   am
    25   160   161    2
    26   166   167    1
    27   123   121    1
    28    11     9   ar
    29    11    10   ar
    30     9     7   ar
    31    10     8   ar
    32     7     6   ar
    33     8     6   ar
    34   170   167    1
    35     6     5    1
    36     2     5    1
    37     2     1    1
    38   167   168    1
    39   121   122    1
    40   121   120    1
    41   124   125    1
    42   117   116    1
    43   117   120    1
    44   117   118    1
    45   130   129    1
    46   115   113   ar
    47   115   114   ar
    48   132   133    1
    49   168   169    2
    50   125   128    1
    51   125   126    1
    52   113   111   ar
    53   119   118    2
    54   114   112   ar
    55   133   134    1
    56   133   136    1
    57   128   129    1
    58   126   127    2
    59   111   110   ar
    60   129   131    1
    61   140   141   ar
    62   140   138   ar
    63   141   139   ar
    64   134   135    2
    65   112   110   ar
    66   138   137   ar
    67   139   137   ar
    68   110   109    1
    69   137   136    1
    70   109   106    1
    71   100    99    1
    72   100   101    1
    73   103   102    1
    74    99    98    1
    75    93    91    1
    76   106   105    1
    77   106   107    1
    78    92    91    1
    79    97    96    2
    80   101   102    2
    81   102   104    1
    82    96   105   am
    83    96    95    1
    84    91    90    1
    85   108   107    2
    86    37    36    1
    87    37    38    1
    88    98    95    1
    89    90    87    1
    90    55    53   ar
    91    55    54   ar
    92    36    35    1
    93    95    94    1
    94    53    51   ar
    95    89    88    2
    96    21    20    1
    97    87    88    1
    98    87    86    1
    99    19    20    1
   100    19    18    1
   101    35    34    1
   102    54    52   ar
   103    34    31    1
   104    17    18    1
   105    17    14    1
   106    15    14    1
   107    15    16    2
   108    51    50   ar
   109    74    71    1
   110    86    77   am
   111    13    14    1
   112    52    50   ar
   113    85    83    1
   114    78    77    2
   115    73    72    2
   116    50    49    1
   117    32    31    1
   118    32    33    2
   119    31    30    1
   120    84    83    1
   121    83    82    2
   122    77    76    1
   123    80    79    1
   124    80    81    1
   125    71    72    1
   126    71    70    1
   127    30    24   am
   128    82    81    1
   129    79    76    1
   130    49    46    1
   131    76    75    1
   132    22    23    1
   133    70    58   am
   134    48    47    2
   135    47    46    1
   136    24    23    1
   137    24    25    2
   138    46    45    1
   139    23    26    1
   140    59    58    2
   141    58    57    1
   142    26    27    1
   143    43    44    1
   144    43    40    1
   145    41    40    1
   146    41    42    2
   147    39    40    1
   148    62    64   ar
   149    62    61   ar
   150    60    57    1
   151    60    61    1
   152    27    29    1
   153    27    28    1
   154    57    56    1
   155    64    65   ar
   156    61    63   ar
   157   177   175    1
   158    65    63   ar
   159    65    67   ar
   160    63    66   ar
   161   176   175    1
   162   175   172    1
   163    67    69   ar
   164    66    68   ar
   165    69    68   ar
   166   172   171    1
   167   172   173    1
   168   173   174    2
