@<TRIPOS>MOLECULE
tmp/2xw0B00.pdb
 172 159 0 0 0
SMALL
GASTEIGER

@<TRIPOS>ATOM
      1  N         51.7980   42.1570   78.0300 N.3   371  LEU371     -0.1231
      2  CA        52.4810   40.9000   77.7740 C.3   371  LEU371      0.1693
      3  C         53.4260   41.1180   76.6120 C.2   371  LEU371      0.2591
      4  O         54.6000   40.7540   76.6940 O.2   371  LEU371     -0.2718
      5  CB        51.4990   39.7900   77.4460 C.3   371  LEU371      0.0284
      6  CG        52.0130   38.3500   77.5390 C.3   371  LEU371      0.0019
      7  CD1       52.4040   38.0360   78.9460 C.3   371  LEU371      0.0001
      8  CD2       50.9090   37.4260   77.0700 C.3   371  LEU371      0.0001
      9  N         52.8840   41.7070   75.5420 N.am  372  ILE372     -0.1980
     10  CA        53.6610   41.9790   74.3560 C.3   372  ILE372      0.1595
     11  C         54.8420   42.8820   74.6930 C.2   372  ILE372      0.2287
     12  O         55.9740   42.6310   74.2890 O.2   372  ILE372     -0.2864
     13  CB        52.8130   42.7050   73.2530 C.3   372  ILE372      0.0276
     14  CG1       51.6090   41.8530   72.8070 C.3   372  ILE372      0.0022
     15  CG2       53.7080   43.0500   72.0540 C.3   372  ILE372      0.0022
     16  CD1       51.9320   40.6200   72.0700 C.3   372  ILE372      0.0001
     17  N         57.5410   40.9480   76.8260 N.3   375  ASN375     -0.1225
     18  CA        58.2220   39.9600   76.0240 C.3   375  ASN375      0.1785
     19  C         59.0410   40.4920   74.8620 C.2   375  ASN375      0.2597
     20  O         59.9580   39.8200   74.4080 O.2   375  ASN375     -0.2718
     21  CB        57.2170   38.9170   75.5640 C.3   375  ASN375      0.1169
     22  CG        56.8400   37.9670   76.6830 C.2   375  ASN375      0.2627
     23  OD1       57.6300   37.1060   77.0660 O.2   375  ASN375     -0.2716
     24  ND2       55.6450   38.1370   77.2360 N.am  375  ASN375     -0.0877
     25  N         58.7310   41.6820   74.3620 N.am  376  CYS376     -0.1970
     26  CA        59.5450   42.2230   73.2780 C.3   376  CYS376      0.1712
     27  C         60.8170   42.7730   73.9050 C.2   376  CYS376      0.2296
     28  O         61.9080   42.6570   73.3380 O.2   376  CYS376     -0.2864
     29  CB        58.8310   43.3400   72.5220 C.3   376  CYS376      0.0983
     30  SG        57.8690   42.7180   71.1150 S.3   376  CYS376     -0.0798
     31  N         62.1880   41.7100   76.6510 N.3   378  LEU378     -0.1245
     32  CA        62.9820   40.5260   76.9340 C.3   378  LEU378      0.1561
     33  C         63.6930   40.0250   75.6760 C.2   378  LEU378      0.2260
     34  O         64.8550   39.6170   75.7510 O.2   378  LEU378     -0.2867
     35  CB        62.0890   39.4170   77.4900 C.3   378  LEU378      0.0270
     36  CG        62.8260   38.1510   77.9340 C.3   378  LEU378      0.0019
     37  CD1       63.7180   38.4760   79.1100 C.3   378  LEU378      0.0001
     38  CD2       61.8350   37.0750   78.3310 C.3   378  LEU378      0.0001
     39  N         66.2590   33.3970   73.2920 N.3   387  PHE387     -0.1241
     40  CA        64.8330   33.5210   73.5350 C.3   387  PHE387      0.1605
     41  C         64.1550   32.1890   73.2800 C.2   387  PHE387      0.2264
     42  O         63.3590   31.7330   74.1040 O.2   387  PHE387     -0.2867
     43  CB        64.2310   34.5820   72.6280 C.3   387  PHE387      0.0534
     44  CG        62.8160   34.9450   72.9740 C.ar  387  PHE387     -0.0203
     45  CD1       62.5130   35.5430   74.1930 C.ar  387  PHE387     -0.0042
     46  CD2       61.7820   34.7220   72.0630 C.ar  387  PHE387     -0.0042
     47  CE1       61.2090   35.9220   74.5020 C.ar  387  PHE387     -0.0003
     48  CE2       60.4680   35.0990   72.3650 C.ar  387  PHE387     -0.0003
     49  CZ        60.1840   35.7050   73.5940 C.ar  387  PHE387     -0.0000
     50  N         64.6050   30.0030   76.1880 N.3   390  ALA390     -0.1231
     51  CA        63.7710   30.3210   77.3400 C.3   390  ALA390      0.1694
     52  C         62.3820   29.7320   77.1050 C.2   390  ALA390      0.2591
     53  O         61.7770   29.1560   78.0080 O.2   390  ALA390     -0.2718
     54  CB        63.6780   31.8310   77.5310 C.3   390  ALA390      0.0304
     55  N         61.8990   29.8520   75.8730 N.am  391  LEU391     -0.1980
     56  CA        60.5880   29.3380   75.5090 C.3   391  LEU391      0.1596
     57  C         60.5740   27.8270   75.6210 C.2   391  LEU391      0.2287
     58  O         59.5740   27.2310   76.0190 O.2   391  LEU391     -0.2864
     59  CB        60.2230   29.7580   74.0790 C.3   391  LEU391      0.0297
     60  CG        59.8420   31.2410   73.9350 C.3   391  LEU391      0.0022
     61  CD1       59.5800   31.6100   72.4750 C.3   391  LEU391      0.0001
     62  CD2       58.6010   31.4900   74.7520 C.3   391  LEU391      0.0001
     63  N         60.1780   27.0570   79.2000 N.3   394  ARG394     -0.1231
     64  CA        58.8230   27.4400   79.5950 C.3   394  ARG394      0.1694
     65  C         57.7530   26.4400   79.1560 C.2   394  ARG394      0.2592
     66  O         56.9760   25.9380   79.9720 O.2   394  ARG394     -0.2718
     67  CB        58.4960   28.8170   79.0340 C.3   394  ARG394      0.0321
     68  CG        59.2610   29.9190   79.7120 C.3   394  ARG394      0.0489
     69  CD        58.6710   30.1990   81.0810 C.3   394  ARG394      0.2205
     70  NE        57.4220   30.9320   80.9340 N.pl3 394  ARG394     -0.0865
     71  CZ        56.4100   30.9030   81.7930 C.cat 394  ARG394      0.5346
     72  NH1       56.4710   30.1640   82.8930 N.pl3 394  ARG394      0.1354
     73  NH2       55.3330   31.6320   81.5450 N.pl3 394  ARG394      0.1354
     74  N         57.7060   26.1390   77.8690 N.am  395  TYR395     -0.1976
     75  CA        56.7120   25.2100   77.3880 C.3   395  TYR395      0.1639
     76  C         56.8810   23.7710   77.8450 C.2   395  TYR395      0.2290
     77  O         55.8890   23.1040   78.1430 O.2   395  TYR395     -0.2864
     78  CB        56.6030   25.2900   75.8620 C.3   395  TYR395      0.0560
     79  CG        55.6380   26.3920   75.4770 C.ar  395  TYR395     -0.0198
     80  CD1       55.9910   27.7470   75.6210 C.ar  395  TYR395     -0.0009
     81  CD2       54.3180   26.0910   75.1250 C.ar  395  TYR395     -0.0009
     82  CE1       55.0490   28.7590   75.4400 C.ar  395  TYR395      0.0417
     83  CE2       53.3770   27.1030   74.9500 C.ar  395  TYR395      0.0417
     84  CZ        53.7440   28.4240   75.1140 C.ar  395  TYR395      0.1957
     85  OH        52.7760   29.3930   75.0110 O.3   395  TYR395     -0.2866
     86  N         55.3990   23.5790   81.0800 N.3   398  LYS398     -0.1245
     87  CA        53.9330   23.6970   81.0170 C.3   398  LYS398      0.1561
     88  C         53.2760   22.3640   80.6770 C.2   398  LYS398      0.2260
     89  O         52.3590   21.9230   81.3600 O.2   398  LYS398     -0.2867
     90  CB        53.4750   24.7100   79.9400 C.3   398  LYS398      0.0271
     91  CG        53.5580   26.2190   80.2510 C.3   398  LYS398      0.0035
     92  CD        54.0680   26.9890   78.9830 C.3   398  LYS398      0.0206
     93  CE        53.3680   28.3140   78.7140 C.3   398  LYS398      0.1093
     94  NZ        53.3910   29.2160   79.9000 N.3   398  LYS398     -0.1314
     95  N         57.7090   29.8880   67.8620 N.3   414  LEU414     -0.1245
     96  CA        57.2240   30.8820   68.8060 C.3   414  LEU414      0.1561
     97  C         58.2650   31.9740   68.9920 C.2   414  LEU414      0.2260
     98  O         57.9230   33.1520   69.0810 O.2   414  LEU414     -0.2867
     99  CB        56.8810   30.2400   70.1650 C.3   414  LEU414      0.0270
    100  CG        55.5710   29.4320   70.3260 C.3   414  LEU414      0.0019
    101  CD1       55.5990   28.6890   71.6630 C.3   414  LEU414      0.0001
    102  CD2       54.3650   30.3570   70.2550 C.3   414  LEU414      0.0001
    103  N         58.4370   35.0040   66.6210 N.3   417  VAL417     -0.1231
    104  CA        57.4140   36.0400   66.6820 C.3   417  VAL417      0.1692
    105  C         58.1400   37.2950   67.1010 C.2   417  VAL417      0.2592
    106  O         57.8390   38.3850   66.6330 O.2   417  VAL417     -0.2718
    107  CB        56.3200   35.7210   67.7400 C.3   417  VAL417      0.0266
    108  CG1       55.1780   36.7250   67.6310 C.3   417  VAL417      0.0020
    109  CG2       55.8000   34.3250   67.5350 C.3   417  VAL417      0.0020
    110  N         59.1140   37.1210   67.9870 N.am  418  GLY418     -0.1957
    111  CA        59.8810   38.2520   68.4660 C.3   418  GLY418      0.1869
    112  C         60.5780   39.0030   67.3470 C.2   418  GLY418      0.2309
    113  O         60.4370   40.2260   67.2270 O.2   418  GLY418     -0.2863
    114  N         57.8750   40.4630   64.8650 N.3   421  CYS421     -0.1221
    115  CA        56.9370   41.4580   65.3730 C.3   421  CYS421      0.1808
    116  C         57.4530   42.5830   66.2330 C.2   421  CYS421      0.2601
    117  O         56.9440   43.6910   66.1590 O.2   421  CYS421     -0.2717
    118  CB        55.8090   40.7790   66.1550 C.3   421  CYS421      0.0970
    119  SG        54.6830   39.7480   65.1730 S.3   421  CYS421     -0.0800
    120  N         58.4390   42.3080   67.0690 N.am  422  CYS422     -0.1970
    121  CA        58.9480   43.3400   67.9540 C.3   422  CYS422      0.1712
    122  C         59.5600   44.5640   67.2710 C.2   422  CYS422      0.2296
    123  O         59.5990   45.6520   67.8530 O.2   422  CYS422     -0.2864
    124  CB        59.9440   42.7240   68.9260 C.3   422  CYS422      0.0983
    125  SG        59.1580   41.5510   70.0700 S.3   422  CYS422     -0.0798
    126  N         51.8010   40.1860   66.6680 N.3   433  ALA433     -0.1245
    127  CA        52.0850   39.1900   67.6780 C.3   433  ALA433      0.1562
    128  C         50.9970   38.1680   67.9500 C.2   433  ALA433      0.2260
    129  O         51.2150   36.9610   67.7960 O.2   433  ALA433     -0.2867
    130  CB        52.4560   39.8820   68.9630 C.3   433  ALA433      0.0290
    131  N         50.8840   34.2990   67.0170 N.3   437  LEU437     -0.1245
    132  CA        50.8200   33.3180   68.0900 C.3   437  LEU437      0.1561
    133  C         49.6380   32.3450   67.8720 C.2   437  LEU437      0.2260
    134  O         49.7130   31.1750   68.2500 O.2   437  LEU437     -0.2867
    135  CB        50.6770   34.0240   69.4370 C.3   437  LEU437      0.0270
    136  CG        51.9500   34.7300   69.9170 C.3   437  LEU437      0.0019
    137  CD1       51.6570   35.7440   71.0320 C.3   437  LEU437      0.0001
    138  CD2       52.9230   33.6710   70.3910 C.3   437  LEU437      0.0001
    139  N         50.3590   28.3960   67.8120 N.3   441  LEU441     -0.1245
    140  CA        49.7100   27.5330   68.7930 C.3   441  LEU441      0.1561
    141  C         48.8040   26.5630   68.0590 C.2   441  LEU441      0.2260
    142  O         48.5680   25.4440   68.5300 O.2   441  LEU441     -0.2867
    143  CB        48.9030   28.3560   69.8190 C.3   441  LEU441      0.0270
    144  CG        49.8200   29.1050   70.8030 C.3   441  LEU441      0.0019
    145  CD1       49.0250   29.9060   71.8090 C.3   441  LEU441      0.0001
    146  CD2       50.7090   28.0760   71.5100 C.3   441  LEU441      0.0001
    147  N         45.7730   31.4110   73.1130 N.3   469  ARG469     -0.1245
    148  CA        46.9860   32.0650   73.5960 C.3   469  ARG469      0.1563
    149  C         46.9400   32.4230   75.0700 C.2   469  ARG469      0.2260
    150  O         47.9250   32.2680   75.7840 O.2   469  ARG469     -0.2867
    151  CB        47.2870   33.3030   72.7560 C.3   469  ARG469      0.0307
    152  CG        48.7000   33.8340   72.8690 C.3   469  ARG469      0.0489
    153  CD        48.9010   34.6020   74.1510 C.3   469  ARG469      0.2205
    154  NE        48.0070   35.7460   74.2070 N.pl3 469  ARG469     -0.0865
    155  CZ        47.7160   36.4130   75.3180 C.cat 469  ARG469      0.5346
    156  NH1       48.2560   36.0550   76.4830 N.pl3 469  ARG469      0.1354
    157  NH2       46.8570   37.4210   75.2720 N.pl3 469  ARG469      0.1354
    158  N         49.3650   30.7150   78.0240 N.3   473  SER473     -0.1217
    159  CA        50.1240   31.6600   78.8390 C.3   473  SER473      0.1889
    160  C         49.8480   31.4900   80.3210 C.2   473  SER473      0.2288
    161  O         50.7310   31.7270   81.1420 O.2   473  SER473     -0.2866
    162  CB        49.8080   33.1050   78.4710 C.3   473  SER473      0.2089
    163  OG        50.5640   33.5210   77.3590 O.3   473  SER473     -0.2183
    164  N         65.7120   27.7560   86.3690 N.3   525  LYS525     -0.1245
    165  CA        66.1480   28.3310   85.1030 C.3   525  LYS525      0.1561
    166  C         67.6480   28.6150   85.1050 C.2   525  LYS525      0.2260
    167  O         68.3410   28.3470   84.1210 O.2   525  LYS525     -0.2867
    168  CB        65.3810   29.6280   84.8250 C.3   525  LYS525      0.0271
    169  CG        63.8980   29.3320   84.5550 C.3   525  LYS525      0.0035
    170  CD        63.7290   28.7630   83.1440 C.3   525  LYS525      0.0206
    171  CE        62.4930   29.3920   82.4800 C.3   525  LYS525      0.1093
    172  NZ        61.3900   29.4870   83.4850 N.3   525  LYS525     -0.1314
@<TRIPOS>BOND
     1   114   115    1
     2   119   118    1
     3   115   118    1
     4   115   116    1
     5   117   116    2
     6   116   120   am
     7   103   104    1
     8   106   105    2
     9   126   127    1
    10   104   105    1
    11   104   107    1
    12   131   132    1
    13   120   121    1
    14   105   110   am
    15   113   112    2
    16   122   123    2
    17   122   121    1
    18   112   111    1
    19   109   107    1
    20   108   107    1
    21   127   128    1
    22   127   130    1
    23   129   128    2
    24   139   140    1
    25    95    96    1
    26   133   132    1
    27   133   134    2
    28   121   124    1
    29   110   111    1
    30   141   142    2
    31   141   140    1
    32   132   135    1
    33   140   143    1
    34    96    97    1
    35    96    99    1
    36   124   125    1
    37    97    98    2
    38   135   136    1
    39   143   144    1
    40   136   138    1
    41   136   137    1
    42   125    30    1
    43    99   100    1
    44   102   100    1
    45   100   101    1
    46   144   146    1
    47   144   145    1
    48    30    29    1
    49    15    13    1
    50    46    48   ar
    51    46    44   ar
    52    16    14    1
    53    48    49   ar
    54    61    60    1
    55    29    26    1
    56    43    44    1
    57    43    40    1
    58   151   152    1
    59   151   148    1
    60    14    13    1
    61   152   153    1
    62    44    45   ar
    63   147   148    1
    64    13    10    1
    65    26    27    1
    66    26    25    1
    67    41    40    1
    68    41    42    2
    69    39    40    1
    70    28    27    2
    71    49    47   ar
    72   148   149    1
    73    60    59    1
    74    60    62    1
    75    59    56    1
    76   153   154    1
    77    45    47   ar
    78   154   155    2
    79    12    11    2
    80    10    11    1
    81    10     9    1
    82    25    19   am
    83    20    19    2
    84    19    18    1
    85    83    84   ar
    86    83    81   ar
    87    85    84    1
    88   149   150    2
    89    84    82   ar
    90    81    79   ar
    91   157   155    1
    92   155   156    1
    93    82    80   ar
    94    79    80   ar
    95    79    78    1
    96    56    57    1
    97    56    55    1
    98     9     3   am
    99    21    18    1
   100    21    22    1
   101    57    58    2
   102    33    34    2
   103    33    32    1
   104    78    75    1
   105    55    52   am
   106    18    17    1
   107    50    51    1
   108     3     4    2
   109     3     2    1
   110    31    32    1
   111    22    23    2
   112    22    24   am
   113    32    35    1
   114     8     6    1
   115    52    51    1
   116    52    53    2
   117    51    54    1
   118   163   162    1
   119    75    76    1
   120    75    74    1
   121     5     6    1
   122     5     2    1
   123    35    36    1
   124     6     7    1
   125     2     1    1
   126    76    77    2
   127    74    65   am
   128    36    38    1
   129    36    37    1
   130   158   159    1
   131   162   159    1
   132    93    92    1
   133    93    94    1
   134   159   160    1
   135    92    91    1
   136    67    64    1
   137    67    68    1
   138    65    64    1
   139    65    66    2
   140    63    64    1
   141    68    69    1
   142    90    91    1
   143    90    87    1
   144   160   161    2
   145    88    87    1
   146    88    89    2
   147    70    69    1
   148    70    71    2
   149    87    86    1
   150    73    71    1
   151    71    72    1
   152   171   170    1
   153   171   172    1
   154   170   169    1
   155   167   166    2
   156   169   168    1
   157   168   165    1
   158   165   166    1
   159   165   164    1
