@<TRIPOS>MOLECULE
tmp/2xw1B00.pdb
 174 163 0 0 0
SMALL
GASTEIGER

@<TRIPOS>ATOM
      1  N         51.2080   42.1420   77.8880 N.3   371  LEU371     -0.1231
      2  CA        51.7920   40.8480   77.5970 C.3   371  LEU371      0.1693
      3  C         52.7860   41.0110   76.4590 C.2   371  LEU371      0.2591
      4  O         53.9120   40.5110   76.5350 O.2   371  LEU371     -0.2718
      5  CB        50.6950   39.8450   77.2300 C.3   371  LEU371      0.0284
      6  CG        51.1420   38.3940   77.3790 C.3   371  LEU371      0.0019
      7  CD1       51.5110   38.0840   78.8240 C.3   371  LEU371      0.0001
      8  CD2       50.0220   37.5010   76.9620 C.3   371  LEU371      0.0001
      9  N         52.3620   41.7170   75.4100 N.am  372  ILE372     -0.1980
     10  CA        53.2080   41.9810   74.2390 C.3   372  ILE372      0.1595
     11  C         54.3830   42.8920   74.6090 C.2   372  ILE372      0.2287
     12  O         55.5110   42.6780   74.1770 O.2   372  ILE372     -0.2864
     13  CB        52.4200   42.6970   73.1070 C.3   372  ILE372      0.0276
     14  CG1       51.2330   41.8430   72.6570 C.3   372  ILE372      0.0022
     15  CG2       53.3550   43.0180   71.9330 C.3   372  ILE372      0.0022
     16  CD1       51.6220   40.5640   71.9940 C.3   372  ILE372      0.0001
     17  N         57.0590   40.7440   76.7160 N.3   375  ASN375     -0.1225
     18  CA        57.8090   39.7740   75.9360 C.3   375  ASN375      0.1785
     19  C         58.6700   40.3140   74.8080 C.2   375  ASN375      0.2597
     20  O         59.6430   39.6750   74.4300 O.2   375  ASN375     -0.2718
     21  CB        56.8720   38.6940   75.4230 C.3   375  ASN375      0.1169
     22  CG        56.5080   37.6970   76.4970 C.2   375  ASN375      0.2627
     23  OD1       56.7030   36.4930   76.3300 O.2   375  ASN375     -0.2716
     24  ND2       55.9850   38.1900   77.6140 N.am  375  ASN375     -0.0877
     25  N         58.3170   41.4690   74.2570 N.am  376  CYS376     -0.1970
     26  CA        59.1400   42.0620   73.2080 C.3   376  CYS376      0.1712
     27  C         60.3880   42.6480   73.8570 C.2   376  CYS376      0.2296
     28  O         61.4940   42.5490   73.3220 O.2   376  CYS376     -0.2864
     29  CB        58.3930   43.1640   72.4710 C.3   376  CYS376      0.0983
     30  SG        57.4420   42.5280   71.0710 S.3   376  CYS376     -0.0798
     31  N         61.7230   41.6180   76.5880 N.3   378  LEU378     -0.1231
     32  CA        62.5280   40.4390   76.8670 C.3   378  LEU378      0.1693
     33  C         63.2710   39.9440   75.6150 C.2   378  LEU378      0.2592
     34  O         64.4440   39.5660   75.6770 O.2   378  LEU378     -0.2718
     35  CB        61.6310   39.3180   77.4110 C.3   378  LEU378      0.0284
     36  CG        62.3410   38.0160   77.7960 C.3   378  LEU378      0.0019
     37  CD1       63.2780   38.2760   78.9650 C.3   378  LEU378      0.0001
     38  CD2       61.3290   36.9580   78.1660 C.3   378  LEU378      0.0001
     39  N         62.5780   39.9440   74.4830 N.am  379  PHE379     -0.1976
     40  CA        63.1560   39.4890   73.2250 C.3   379  PHE379      0.1639
     41  C         64.3200   40.3790   72.7780 C.2   379  PHE379      0.2290
     42  O         65.3900   39.8870   72.4140 O.2   379  PHE379     -0.2864
     43  CB        62.0710   39.4730   72.1510 C.3   379  PHE379      0.0560
     44  CG        62.5840   39.2390   70.7630 C.ar  379  PHE379     -0.0200
     45  CD1       62.8370   37.9510   70.3020 C.ar  379  PHE379     -0.0042
     46  CD2       62.8170   40.3150   69.9130 C.ar  379  PHE379     -0.0042
     47  CE1       63.3130   37.7350   69.0120 C.ar  379  PHE379     -0.0003
     48  CE2       63.2940   40.1150   68.6230 C.ar  379  PHE379     -0.0003
     49  CZ        63.5430   38.8210   68.1680 C.ar  379  PHE379     -0.0000
     50  N         65.7210   33.3450   73.1450 N.3   387  PHE387     -0.1241
     51  CA        64.2980   33.4990   73.4060 C.3   387  PHE387      0.1605
     52  C         63.5790   32.1770   73.1240 C.2   387  PHE387      0.2264
     53  O         62.6670   31.7730   73.8510 O.2   387  PHE387     -0.2867
     54  CB        63.7170   34.6190   72.5490 C.3   387  PHE387      0.0534
     55  CG        62.3050   34.9590   72.8980 C.ar  387  PHE387     -0.0203
     56  CD1       61.9810   35.3950   74.1860 C.ar  387  PHE387     -0.0042
     57  CD2       61.2880   34.8540   71.9420 C.ar  387  PHE387     -0.0042
     58  CE1       60.6750   35.7240   74.5180 C.ar  387  PHE387     -0.0003
     59  CE2       59.9680   35.1840   72.2630 C.ar  387  PHE387     -0.0003
     60  CZ        59.6580   35.6220   73.5580 C.ar  387  PHE387     -0.0000
     61  N         64.0080   30.0250   76.0460 N.3   390  ALA390     -0.1231
     62  CA        63.1380   30.3750   77.1690 C.3   390  ALA390      0.1694
     63  C         61.7590   29.7770   76.9650 C.2   390  ALA390      0.2591
     64  O         61.2020   29.1810   77.8810 O.2   390  ALA390     -0.2718
     65  CB        63.0280   31.8690   77.3020 C.3   390  ALA390      0.0304
     66  N         61.2210   29.9270   75.7550 N.am  391  LEU391     -0.1980
     67  CA        59.9090   29.4030   75.4090 C.3   391  LEU391      0.1596
     68  C         59.8880   27.8840   75.4840 C.2   391  LEU391      0.2287
     69  O         58.8580   27.2760   75.7880 O.2   391  LEU391     -0.2864
     70  CB        59.5120   29.8510   73.9920 C.3   391  LEU391      0.0297
     71  CG        59.2240   31.3430   73.8040 C.3   391  LEU391      0.0022
     72  CD1       59.0640   31.6990   72.3450 C.3   391  LEU391      0.0001
     73  CD2       57.9600   31.6660   74.5480 C.3   391  LEU391      0.0001
     74  N         59.5120   27.1080   79.1380 N.3   394  ARG394     -0.1231
     75  CA        58.1770   27.4880   79.5650 C.3   394  ARG394      0.1694
     76  C         57.0670   26.5640   79.0700 C.2   394  ARG394      0.2592
     77  O         56.1970   26.1640   79.8450 O.2   394  ARG394     -0.2718
     78  CB        57.8860   28.9440   79.1820 C.3   394  ARG394      0.0321
     79  CG        58.4000   29.9370   80.2330 C.3   394  ARG394      0.0489
     80  CD        57.7000   31.3010   80.1920 C.3   394  ARG394      0.2205
     81  NE        56.2940   31.2330   80.6050 N.pl3 394  ARG394     -0.0865
     82  CZ        55.8720   30.7430   81.7750 C.cat 394  ARG394      0.5346
     83  NH1       56.7550   30.2780   82.6480 N.pl3 394  ARG394      0.1354
     84  NH2       54.5730   30.6990   82.0890 N.pl3 394  ARG394      0.1354
     85  N         57.1020   26.1960   77.7970 N.am  395  TYR395     -0.1976
     86  CA        56.0730   25.3270   77.2760 C.3   395  TYR395      0.1639
     87  C         56.1830   23.8570   77.7050 C.2   395  TYR395      0.2290
     88  O         55.1670   23.2070   77.9670 O.2   395  TYR395     -0.2864
     89  CB        55.9980   25.4800   75.7520 C.3   395  TYR395      0.0560
     90  CG        55.0180   26.5620   75.3690 C.ar  395  TYR395     -0.0198
     91  CD1       55.3280   27.9210   75.5390 C.ar  395  TYR395     -0.0009
     92  CD2       53.7280   26.2310   74.9680 C.ar  395  TYR395     -0.0009
     93  CE1       54.3670   28.8990   75.3310 C.ar  395  TYR395      0.0417
     94  CE2       52.7710   27.2070   74.7610 C.ar  395  TYR395      0.0417
     95  CZ        53.0920   28.5220   74.9500 C.ar  395  TYR395      0.1957
     96  OH        52.1170   29.4680   74.8370 O.3   395  TYR395     -0.2866
     97  N         54.5920   23.6260   80.9350 N.3   398  LYS398     -0.1245
     98  CA        53.1380   23.7510   80.9140 C.3   398  LYS398      0.1561
     99  C         52.5020   22.4380   80.5380 C.2   398  LYS398      0.2260
    100  O         51.5690   21.9830   81.1980 O.2   398  LYS398     -0.2867
    101  CB        52.6780   24.8080   79.8990 C.3   398  LYS398      0.0271
    102  CG        53.1240   26.2370   80.1600 C.3   398  LYS398      0.0035
    103  CD        53.2900   26.9580   78.8100 C.3   398  LYS398      0.0206
    104  CE        52.3490   28.1180   78.6320 C.3   398  LYS398      0.1093
    105  NZ        52.5090   29.1180   79.7190 N.3   398  LYS398     -0.1314
    106  N         57.2470   29.8760   67.7890 N.3   414  LEU414     -0.1245
    107  CA        56.7390   30.8780   68.7230 C.3   414  LEU414      0.1561
    108  C         57.8110   31.9200   68.8770 C.2   414  LEU414      0.2260
    109  O         57.5270   33.1050   69.0760 O.2   414  LEU414     -0.2867
    110  CB        56.4050   30.2610   70.1000 C.3   414  LEU414      0.0270
    111  CG        55.1120   29.4220   70.2600 C.3   414  LEU414      0.0019
    112  CD1       55.0590   28.7810   71.6450 C.3   414  LEU414      0.0001
    113  CD2       53.8840   30.2990   70.0530 C.3   414  LEU414      0.0001
    114  N         57.8940   35.0600   66.4870 N.3   417  VAL417     -0.1231
    115  CA        56.9470   36.1600   66.5950 C.3   417  VAL417      0.1692
    116  C         57.7560   37.3390   67.0570 C.2   417  VAL417      0.2592
    117  O         57.5170   38.4590   66.6460 O.2   417  VAL417     -0.2718
    118  CB        55.8400   35.9100   67.6560 C.3   417  VAL417      0.0266
    119  CG1       54.8120   37.0420   67.6150 C.3   417  VAL417      0.0020
    120  CG2       55.1620   34.5830   67.4010 C.3   417  VAL417      0.0020
    121  N         58.7200   37.0710   67.9290 N.am  418  GLY418     -0.1957
    122  CA        59.5600   38.1410   68.4250 C.3   418  GLY418      0.1869
    123  C         60.2130   38.8860   67.2700 C.2   418  GLY418      0.2309
    124  O         60.0630   40.1100   67.1450 O.2   418  GLY418     -0.2863
    125  N         57.5100   40.4600   64.8040 N.3   421  CYS421     -0.1221
    126  CA        56.6310   41.5120   65.3210 C.3   421  CYS421      0.1808
    127  C         57.2100   42.6210   66.1810 C.2   421  CYS421      0.2601
    128  O         56.9050   43.7920   65.9830 O.2   421  CYS421     -0.2717
    129  CB        55.4510   40.9010   66.0970 C.3   421  CYS421      0.0970
    130  SG        54.3390   39.8110   65.1650 S.3   421  CYS421     -0.0800
    131  N         58.0300   42.2870   67.1500 N.am  422  CYS422     -0.1970
    132  CA        58.5390   43.3380   68.0060 C.3   422  CYS422      0.1712
    133  C         59.0890   44.5900   67.3100 C.2   422  CYS422      0.2296
    134  O         59.0230   45.6870   67.8760 O.2   422  CYS422     -0.2864
    135  CB        59.5630   42.7410   68.9510 C.3   422  CYS422      0.0983
    136  SG        58.8030   41.4640   69.9960 S.3   422  CYS422     -0.0798
    137  N         51.3860   40.2540   66.5600 N.3   433  ALA433     -0.1245
    138  CA        51.6370   39.2620   67.5920 C.3   433  ALA433      0.1562
    139  C         50.5520   38.2400   67.8990 C.2   433  ALA433      0.2260
    140  O         50.7470   37.0320   67.7050 O.2   433  ALA433     -0.2867
    141  CB        52.0190   39.9710   68.8700 C.3   433  ALA433      0.0290
    142  N         50.3290   34.3230   66.9960 N.3   437  LEU437     -0.1245
    143  CA        50.2820   33.3120   68.0690 C.3   437  LEU437      0.1561
    144  C         49.1090   32.3340   67.7980 C.2   437  LEU437      0.2260
    145  O         49.2100   31.1160   68.0540 O.2   437  LEU437     -0.2867
    146  CB        50.1400   33.9970   69.4390 C.3   437  LEU437      0.0270
    147  CG        51.4240   34.7800   69.7980 C.3   437  LEU437      0.0019
    148  CD1       51.2050   35.7760   70.9300 C.3   437  LEU437      0.0001
    149  CD2       52.5250   33.7790   70.1720 C.3   437  LEU437      0.0001
    150  N         49.8520   28.4190   67.6240 N.3   441  LEU441     -0.1245
    151  CA        49.1480   27.5740   68.5900 C.3   441  LEU441      0.1561
    152  C         48.2160   26.5940   67.8910 C.2   441  LEU441      0.2260
    153  O         48.0080   25.4700   68.3600 O.2   441  LEU441     -0.2867
    154  CB        48.3730   28.4270   69.6210 C.3   441  LEU441      0.0270
    155  CG        49.3170   29.0550   70.6770 C.3   441  LEU441      0.0019
    156  CD1       48.5480   29.8910   71.6980 C.3   441  LEU441      0.0001
    157  CD2       50.0770   27.9310   71.3730 C.3   441  LEU441      0.0001
    158  N         45.0220   31.4510   73.1370 N.3   469  ARG469     -0.1245
    159  CA        46.2440   32.0780   73.6110 C.3   469  ARG469      0.1563
    160  C         46.2040   32.4010   75.0970 C.2   469  ARG469      0.2260
    161  O         47.1720   32.1770   75.8190 O.2   469  ARG469     -0.2867
    162  CB        46.5460   33.3250   72.7780 C.3   469  ARG469      0.0307
    163  CG        47.9890   33.7840   72.8210 C.3   469  ARG469      0.0489
    164  CD        48.2400   34.6000   74.0820 C.3   469  ARG469      0.2205
    165  NE        47.3320   35.7370   74.1410 N.pl3 469  ARG469     -0.0865
    166  CZ        47.0590   36.4430   75.2350 C.cat 469  ARG469      0.5346
    167  NH1       47.6230   36.1360   76.4020 N.pl3 469  ARG469      0.1354
    168  NH2       46.2230   37.4700   75.1610 N.pl3 469  ARG469      0.1354
    169  N         48.6000   30.7070   77.9710 N.3   473  SER473     -0.1217
    170  CA        49.3550   31.6460   78.7800 C.3   473  SER473      0.1889
    171  C         49.1080   31.4810   80.2840 C.2   473  SER473      0.2288
    172  O         50.0040   31.7290   81.0980 O.2   473  SER473     -0.2866
    173  CB        49.0190   33.0820   78.3570 C.3   473  SER473      0.2089
    174  OG        50.1330   33.7040   77.7230 O.3   473  SER473     -0.2183
@<TRIPOS>BOND
     1   125   126    1
     2   130   129    1
     3   126   129    1
     4   126   127    1
     5   128   127    2
     6   127   131   am
     7   114   115    1
     8   137   138    1
     9   115   116    1
    10   115   118    1
    11   117   116    2
    12   142   143    1
    13   116   121   am
    14   124   123    2
    15   131   132    1
    16   123   122    1
    17   133   134    2
    18   133   132    1
    19   120   118    1
    20   138   139    1
    21   138   141    1
    22   119   118    1
    23   150   151    1
    24   140   139    2
    25   106   107    1
    26   144   145    2
    27   144   143    1
    28   152   153    2
    29   152   151    1
    30   121   122    1
    31   132   135    1
    32   143   146    1
    33    49    48   ar
    34    49    47   ar
    35   151   154    1
    36    48    46   ar
    37   107   108    1
    38   107   110    1
    39   108   109    2
    40   135   136    1
    41    47    45   ar
    42   146   147    1
    43   154   155    1
    44   147   149    1
    45   147   148    1
    46    46    44   ar
    47   136    30    1
    48   113   111    1
    49   110   111    1
    50   111   112    1
    51    45    44   ar
    52   155   157    1
    53   155   156    1
    54    44    43    1
    55    30    29    1
    56    15    13    1
    57    57    59   ar
    58    57    55   ar
    59    16    14    1
    60    43    40    1
    61    59    60   ar
    62    72    71    1
    63    42    41    2
    64    29    26    1
    65    54    55    1
    66    54    51    1
    67    14    13    1
    68    41    40    1
    69   162   163    1
    70   162   159    1
    71   163   164    1
    72    55    56   ar
    73    13    10    1
    74    52    51    1
    75    52    53    2
    76   158   159    1
    77    50    51    1
    78    26    27    1
    79    26    25    1
    80    40    39    1
    81    28    27    2
    82    60    58   ar
    83   159   160    1
    84    71    70    1
    85    71    73    1
    86    70    67    1
    87   164   165    1
    88   165   166    2
    89    12    11    2
    90    56    58   ar
    91    10    11    1
    92    10     9    1
    93    25    19   am
    94    20    19    2
    95    39    33   am
    96    94    95   ar
    97    94    92   ar
    98    19    18    1
    99    96    95    1
   100    95    93   ar
   101    92    90   ar
   102   160   161    2
   103   168   166    1
   104   166   167    1
   105    93    91   ar
   106    90    91   ar
   107    90    89    1
   108    67    68    1
   109    67    66    1
   110     9     3   am
   111    21    18    1
   112    21    22    1
   113    68    69    2
   114    33    34    2
   115    33    32    1
   116    89    86    1
   117    66    63   am
   118    18    17    1
   119    61    62    1
   120    23    22    2
   121     3     4    2
   122     3     2    1
   123    22    24   am
   124    31    32    1
   125    32    35    1
   126     8     6    1
   127    63    62    1
   128    63    64    2
   129    62    65    1
   130     5     6    1
   131     5     2    1
   132    86    87    1
   133    86    85    1
   134     6     7    1
   135    35    36    1
   136     2     1    1
   137    87    88    2
   138   174   173    1
   139    36    38    1
   140    36    37    1
   141    85    76   am
   142   169   170    1
   143   173   170    1
   144   104   103    1
   145   104   105    1
   146   170   171    1
   147   103   102    1
   148    76    75    1
   149    76    77    2
   150    74    75    1
   151    78    75    1
   152    78    79    1
   153   101   102    1
   154   101    98    1
   155    80    79    1
   156    80    81    1
   157   171   172    2
   158    99    98    1
   159    99   100    2
   160    81    82    2
   161    98    97    1
   162    82    84    1
   163    82    83    1
