@<TRIPOS>MOLECULE
tmp/2xw7A00.pdb
 129 125 0 0 0
SMALL
GASTEIGER

@<TRIPOS>ATOM
      1  N          8.5950  -17.0080   18.8460 N.3     9  TYR9       -0.1227
      2  CA         7.3510  -16.5630   19.4580 C.3     9  TYR9        0.1736
      3  C          6.5630  -17.8660   19.6500 C.2     9  TYR9        0.2596
      4  O          6.2920  -18.5810   18.6480 O.2     9  TYR9       -0.2718
      5  CB         6.6410  -15.5980   18.5050 C.3     9  TYR9        0.0548
      6  CG         5.1850  -15.1980   18.8020 C.ar    9  TYR9       -0.0200
      7  CD1        4.1120  -15.9070   18.2450 C.ar    9  TYR9       -0.0009
      8  CD2        4.8890  -13.9510   19.4360 C.ar    9  TYR9       -0.0009
      9  CE1        2.7420  -15.4790   18.4100 C.ar    9  TYR9        0.0417
     10  CE2        3.5110  -13.4970   19.6160 C.ar    9  TYR9        0.0417
     11  CZ         2.4480  -14.3160   19.1310 C.ar    9  TYR9        0.1957
     12  OH         1.1240  -13.8960   19.2660 O.3     9  TYR9       -0.2866
     13  N          6.1900  -18.1710   20.8910 N.am   10  THR10      -0.1939
     14  CA         5.5190  -19.4580   21.2220 C.3    10  THR10       0.2028
     15  C          4.6330  -19.2810   22.4850 C.2    10  THR10       0.2642
     16  O          4.8810  -18.3360   23.2860 O.2    10  THR10      -0.2714
     17  CB         6.5840  -20.5520   21.5420 C.3    10  THR10       0.1808
     18  OG1        5.9030  -21.7920   21.7770 O.3    10  THR10      -0.2208
     19  CG2        7.4600  -20.1240   22.8590 C.3    10  THR10       0.0379
     20  N          3.6500  -20.1380   22.6780 N.am   11  ALA11      -0.1977
     21  CA         2.8960  -20.2620   23.9340 C.3    11  ALA11       0.1597
     22  C          3.6200  -21.3030   24.7790 C.2    11  ALA11       0.2287
     23  O          4.3730  -22.1170   24.2490 O.2    11  ALA11      -0.2864
     24  CB         1.4450  -20.7660   23.6220 C.3    11  ALA11       0.0319
     25  N         -4.0160  -25.5690   25.9850 N.3    28  LEU28      -0.1231
     26  CA        -3.8690  -24.2620   25.3190 C.3    28  LEU28       0.1693
     27  C         -5.1520  -23.7950   24.5630 C.2    28  LEU28       0.2592
     28  O         -5.4260  -22.6030   24.4720 O.2    28  LEU28      -0.2718
     29  CB        -2.6870  -24.3430   24.3290 C.3    28  LEU28       0.0284
     30  CG        -2.1160  -23.1150   23.6390 C.3    28  LEU28       0.0019
     31  CD1       -1.8530  -21.9610   24.6820 C.3    28  LEU28       0.0001
     32  CD2       -0.8440  -23.4360   22.7820 C.3    28  LEU28       0.0001
     33  N         -5.9580  -24.7120   24.0410 N.am   29  THR29      -0.1953
     34  CA        -6.8580  -24.3040   22.9330 C.3    29  THR29       0.1897
     35  C         -8.1650  -23.5380   23.2700 C.2    29  THR29       0.2313
     36  O         -8.6540  -22.7690   22.4220 O.2    29  THR29      -0.2863
     37  CB        -7.1240  -25.4730   21.9440 C.3    29  THR29       0.1794
     38  OG1       -7.2860  -26.6840   22.6990 O.3    29  THR29      -0.2208
     39  CG2       -5.9720  -25.6160   20.9330 C.3    29  THR29       0.0378
     40  N         -8.5710  -21.1700   25.7330 N.3    31  ARG31      -0.1245
     41  CA        -8.2670  -20.0230   26.6240 C.3    31  ARG31       0.1563
     42  C         -8.7020  -18.6760   25.9620 C.2    31  ARG31       0.2260
     43  O         -8.6990  -18.5760   24.7540 O.2    31  ARG31      -0.2867
     44  CB        -6.7770  -19.9930   26.8410 C.3    31  ARG31       0.0307
     45  CG        -6.2300  -21.3430   27.3120 C.3    31  ARG31       0.0489
     46  CD        -6.3580  -21.4630   28.7590 C.3    31  ARG31       0.2205
     47  NE        -5.6850  -22.6630   29.2330 N.pl3  31  ARG31      -0.0865
     48  CZ        -5.8760  -23.1720   30.4490 C.cat  31  ARG31       0.5346
     49  NH1       -6.7140  -22.5720   31.2930 N.pl3  31  ARG31       0.1354
     50  NH2       -5.2520  -24.2840   30.8040 N.pl3  31  ARG31       0.1354
     51  N         -8.0590  -15.1570   24.5220 N.3    33  ILE33      -0.1245
     52  CA        -6.9050  -14.4360   23.9710 C.3    33  ILE33       0.1561
     53  C         -7.5030  -13.3170   23.1070 C.2    33  ILE33       0.2260
     54  O         -8.6190  -13.4400   22.5860 O.2    33  ILE33      -0.2867
     55  CB        -5.9860  -15.3940   23.1280 C.3    33  ILE33       0.0252
     56  CG1       -4.6350  -14.7850   22.6990 C.3    33  ILE33       0.0019
     57  CG2       -6.7240  -15.8530   21.8980 C.3    33  ILE33       0.0019
     58  CD1       -3.6410  -14.3140   23.7620 C.3    33  ILE33       0.0001
     59  N         -1.3920  -12.0090   18.1970 N.3    41  TYR41      -0.1241
     60  CA        -0.9750  -12.6390   16.9420 C.3    41  TYR41       0.1605
     61  C         -1.1650  -11.7070   15.7300 C.2    41  TYR41       0.2264
     62  O         -0.2900  -11.6900   14.8210 O.2    41  TYR41      -0.2867
     63  CB        -1.7380  -13.9360   16.7370 C.3    41  TYR41       0.0534
     64  CG        -1.4300  -14.6240   15.4220 C.ar   41  TYR41      -0.0201
     65  CD1       -0.2640  -15.4370   15.3100 C.ar   41  TYR41      -0.0009
     66  CD2       -2.2710  -14.4730   14.3090 C.ar   41  TYR41      -0.0009
     67  CE1        0.0420  -16.1000   14.1020 C.ar   41  TYR41       0.0417
     68  CE2       -1.9950  -15.1450   13.0780 C.ar   41  TYR41       0.0417
     69  CZ        -0.8130  -15.9720   13.0110 C.ar   41  TYR41       0.1957
     70  OH        -0.4460  -16.6230   11.8460 O.3    41  TYR41      -0.2866
     71  N          0.7420  -28.8450   12.9190 N.3    61  VAL61      -0.1245
     72  CA         0.0280  -27.9570   12.0180 C.3    61  VAL61       0.1561
     73  C         -0.8150  -28.6680   10.9350 C.2    61  VAL61       0.2260
     74  O         -1.9780  -28.2900   10.6640 O.2    61  VAL61      -0.2867
     75  CB         1.0170  -26.9260   11.3580 C.3    61  VAL61       0.0252
     76  CG1        0.3230  -26.1500   10.2060 C.3    61  VAL61       0.0019
     77  CG2        1.5310  -25.9520   12.4360 C.3    61  VAL61       0.0019
     78  N         -4.8110  -23.9330    9.9010 N.3    67  TRP67      -0.1241
     79  CA        -4.2070  -22.6460   10.1380 C.3    67  TRP67       0.1605
     80  C         -3.6300  -22.1830    8.8140 C.2    67  TRP67       0.2264
     81  O         -2.8160  -22.8460    8.1830 O.2    67  TRP67      -0.2867
     82  CB        -3.2000  -22.7560   11.3030 C.3    67  TRP67       0.0550
     83  CG        -2.3360  -21.5540   11.4130 C.ar   67  TRP67       0.0003
     84  CD1       -2.7340  -20.2190   11.3450 C.ar   67  TRP67       0.0946
     85  CD2       -0.9350  -21.5480   11.5840 C.ar   67  TRP67       0.0152
     86  NE1       -1.6420  -19.4020   11.4870 N.ar   67  TRP67      -0.2442
     87  CE2       -0.5250  -20.1790   11.6390 C.ar   67  TRP67       0.0810
     88  CE3        0.0180  -22.5510   11.7590 C.ar   67  TRP67       0.0012
     89  CZ2        0.8020  -19.7970   11.7900 C.ar   67  TRP67       0.0191
     90  CZ3        1.3860  -22.1490   11.9260 C.ar   67  TRP67       0.0001
     91  CH2        1.7460  -20.7830   11.9240 C.ar   67  TRP67       0.0015
     92  N         10.1760  -15.7850   11.6500 N.3   113  TRP113     -0.1241
     93  CA         9.5640  -16.3940   12.8450 C.3   113  TRP113      0.1605
     94  C          9.9660  -17.8440   13.0190 C.2   113  TRP113      0.2264
     95  O          9.6350  -18.7010   12.1870 O.2   113  TRP113     -0.2867
     96  CB         8.0620  -16.2960   12.7250 C.3   113  TRP113      0.0550
     97  CG         7.2320  -16.9730   13.8490 C.ar  113  TRP113      0.0003
     98  CD1        7.6260  -17.3040   15.1060 C.ar  113  TRP113      0.0946
     99  CD2        5.8620  -17.3230   13.7470 C.ar  113  TRP113      0.0152
    100  NE1        6.5770  -17.8970   15.8190 N.ar  113  TRP113     -0.2442
    101  CE2        5.4810  -17.9220   14.9910 C.ar  113  TRP113      0.0810
    102  CE3        4.9140  -17.2110   12.7150 C.ar  113  TRP113      0.0012
    103  CZ2        4.1790  -18.3920   15.2390 C.ar  113  TRP113      0.0191
    104  CZ3        3.6100  -17.7050   12.9440 C.ar  113  TRP113      0.0001
    105  CH2        3.2530  -18.2690   14.1890 C.ar  113  TRP113      0.0015
    106  N          8.8880  -20.8930   14.7180 N.3   115  VAL115     -0.1245
    107  CA         7.6310  -21.3140   15.2850 C.3   115  VAL115      0.1561
    108  C          7.8370  -22.2660   16.4920 C.2   115  VAL115      0.2260
    109  O          7.0450  -22.2330   17.4690 O.2   115  VAL115     -0.2867
    110  CB         6.7420  -21.9640   14.1460 C.3   115  VAL115      0.0252
    111  CG1        5.3110  -22.3170   14.6800 C.3   115  VAL115      0.0019
    112  CG2        6.5630  -20.9280   13.0020 C.3   115  VAL115      0.0019
    113  N          4.0310  -16.5150   25.4700 N.3   136  SER136     -0.1217
    114  CA         2.7210  -16.2540   26.0660 C.3   136  SER136      0.1889
    115  C          2.4030  -17.3980   27.0500 C.2   136  SER136      0.2288
    116  O          2.1610  -18.5360   26.5940 O.2   136  SER136     -0.2866
    117  CB         1.5990  -16.3260   25.0200 C.3   136  SER136      0.2089
    118  OG         1.8440  -15.2930   24.0710 O.3   136  SER136     -0.2183
    119  N         -3.5300  -14.9550   29.1540 N.3   166  PHE166     -0.1241
    120  CA        -2.1010  -15.0760   29.0480 C.3   166  PHE166      0.1605
    121  C         -1.2490  -13.9680   29.6260 C.2   166  PHE166      0.2264
    122  O         -1.6100  -12.7950   29.5910 O.2   166  PHE166     -0.2867
    123  CB        -1.7120  -15.2750   27.5740 C.3   166  PHE166      0.0534
    124  CG        -2.2780  -16.5380   26.9970 C.ar  166  PHE166     -0.0203
    125  CD1       -3.5850  -16.5870   26.5960 C.ar  166  PHE166     -0.0042
    126  CD2       -1.4490  -17.7080   26.8610 C.ar  166  PHE166     -0.0042
    127  CE1       -4.1460  -17.8120   26.0630 C.ar  166  PHE166     -0.0003
    128  CE2       -1.9960  -18.9170   26.3460 C.ar  166  PHE166     -0.0003
    129  CZ        -3.3330  -18.9580   25.9440 C.ar  166  PHE166     -0.0000
@<TRIPOS>BOND
     1    81    80    2
     2    80    79    1
     3    78    79    1
     4    79    82    1
     5    76    75    1
     6    74    73    2
     7    73    72    1
     8    82    83    1
     9    84    83   ar
    10    84    86   ar
    11    75    72    1
    12    75    77    1
    13    83    85   ar
    14    86    87   ar
    15    85    87   ar
    16    85    88   ar
    17    87    89   ar
    18    92    93    1
    19    88    90   ar
    20    89    91   ar
    21    70    69    1
    22    91    90   ar
    23    72    71    1
    24    95    94    2
    25   102   104   ar
    26   102    99   ar
    27    96    93    1
    28    96    97    1
    29    93    94    1
    30   104   105   ar
    31   112   110    1
    32    69    68   ar
    33    69    67   ar
    34    68    66   ar
    35    99    97   ar
    36    99   101   ar
    37    97    98   ar
    38    67    65   ar
    39   110   111    1
    40   110   107    1
    41   105   103   ar
    42    66    64   ar
    43   106   107    1
    44    62    61    2
    45   101   103   ar
    46   101   100   ar
    47    98   100   ar
    48   107   108    1
    49    65    64   ar
    50    64    63    1
    51    61    60    1
    52   108   109    2
    53    63    60    1
    54    60    59    1
    55     7     9   ar
    56     7     6   ar
    57     9    11   ar
    58     5     6    1
    59     5     2    1
    60     4     3    2
    61     6     8   ar
    62     1     2    1
    63    11    12    1
    64    11    10   ar
    65     8    10   ar
    66     2     3    1
    67     3    13   am
    68    13    14    1
    69    39    37    1
    70    14    17    1
    71    14    15    1
    72    17    18    1
    73    17    19    1
    74    57    55    1
    75    37    38    1
    76    37    34    1
    77    36    35    2
    78    15    20   am
    79    15    16    2
    80    54    53    2
    81    20    21    1
    82    56    55    1
    83    56    58    1
    84    32    30    1
    85    34    35    1
    86    34    33    1
    87    53    52    1
    88    55    52    1
    89    24    21    1
    90    30    29    1
    91    30    31    1
    92    21    22    1
    93    52    51    1
    94    33    27   am
    95   118   117    1
    96    23    22    2
    97    29    26    1
    98    28    27    2
    99    27    26    1
   100    43    42    2
   101   117   114    1
   102    26    25    1
   103   113   114    1
   104    40    41    1
   105   129   127   ar
   106   129   128   ar
   107    42    41    1
   108   127   125   ar
   109   114   115    1
   110   128   126   ar
   111   116   115    2
   112   125   124   ar
   113    41    44    1
   114    44    45    1
   115   126   124   ar
   116   124   123    1
   117    45    46    1
   118   123   120    1
   119    46    47    1
   120   120   119    1
   121   120   121    1
   122    47    48    2
   123   122   121    2
   124    48    50    1
   125    48    49    1
