@<TRIPOS>MOLECULE
tmp/2xwdA01.pdb
 152 147 0 0 0
SMALL
GASTEIGER

@<TRIPOS>ATOM
      1  N        -40.7340  -12.8720   -5.3810 N.3   123  ASP123     -0.1225
      2  CA       -40.2160  -11.5870   -4.9460 C.3   123  ASP123      0.1805
      3  C        -39.4010  -10.9300   -6.0460 C.2   123  ASP123      0.2597
      4  O        -39.5020   -9.7230   -6.2320 O.2   123  ASP123     -0.2718
      5  CB       -39.4460  -11.6940   -3.6490 C.3   123  ASP123      0.1424
      6  CG       -38.3720  -12.7600   -3.6960 C.2   123  ASP123      0.3668
      7  OD1      -38.6010  -13.8020   -4.3420 O.co2 123  ASP123     -0.2456
      8  OD2      -37.3010  -12.5260   -3.0740 O.co2 123  ASP123     -0.2456
      9  N        -38.6580  -11.7220   -6.8180 N.am  124  PHE124     -0.1976
     10  CA       -37.8940  -11.1820   -7.9400 C.3   124  PHE124      0.1639
     11  C        -38.7160  -10.9790   -9.2150 C.2   124  PHE124      0.2290
     12  O        -38.3640  -11.4890  -10.2980 O.2   124  PHE124     -0.2864
     13  CB       -36.6070  -11.9810   -8.1640 C.3   124  PHE124      0.0560
     14  CG       -35.5560  -11.6580   -7.1580 C.ar  124  PHE124     -0.0200
     15  CD1      -35.5320  -12.2980   -5.9130 C.ar  124  PHE124     -0.0042
     16  CD2      -34.6320  -10.6480   -7.3920 C.ar  124  PHE124     -0.0042
     17  CE1      -34.5850  -11.9600   -4.9490 C.ar  124  PHE124     -0.0003
     18  CE2      -33.6820  -10.3200   -6.4400 C.ar  124  PHE124     -0.0003
     19  CZ       -33.6550  -10.9810   -5.2200 C.ar  124  PHE124     -0.0000
     20  N        -44.3250  -20.2260   -6.4310 N.3   175  TRP175     -0.1241
     21  CA       -44.3410  -19.5930   -5.0990 C.3   175  TRP175      0.1605
     22  C        -45.7720  -19.5860   -4.5490 C.2   175  TRP175      0.2264
     23  O        -46.0170  -20.1250   -3.4860 O.2   175  TRP175     -0.2867
     24  CB       -43.7340  -18.1920   -5.1370 C.3   175  TRP175      0.0550
     25  CG       -42.2510  -18.1380   -5.0010 C.ar  175  TRP175      0.0003
     26  CD1      -41.5730  -17.4820   -4.0560 C.ar  175  TRP175      0.0946
     27  CD2      -41.2640  -18.7650   -5.8390 C.ar  175  TRP175      0.0152
     28  NE1      -40.2330  -17.6100   -4.2410 N.ar  175  TRP175     -0.2442
     29  CE2      -40.0150  -18.4200   -5.3250 C.ar  175  TRP175      0.0810
     30  CE3      -41.3250  -19.5580   -6.9670 C.ar  175  TRP175      0.0012
     31  CZ2      -38.8170  -18.8560   -5.8920 C.ar  175  TRP175      0.0191
     32  CZ3      -40.1490  -19.9910   -7.5300 C.ar  175  TRP175      0.0001
     33  CH2      -38.9020  -19.6430   -6.9940 C.ar  175  TRP175      0.0015
     34  N        -42.2940  -23.9330   -3.8630 N.3   230  ASN230     -0.1225
     35  CA       -41.1230  -23.2470   -3.2960 C.3   230  ASN230      0.1785
     36  C        -41.2760  -23.0220   -1.7950 C.2   230  ASN230      0.2597
     37  O        -42.1970  -22.3610   -1.3930 O.2   230  ASN230     -0.2718
     38  CB       -40.8280  -21.9090   -3.9880 C.3   230  ASN230      0.1169
     39  CG       -39.5800  -21.2350   -3.4350 C.2   230  ASN230      0.2627
     40  OD1      -38.4560  -21.7220   -3.6210 O.2   230  ASN230     -0.2716
     41  ND2      -39.7720  -20.1300   -2.7240 N.am  230  ASN230     -0.0877
     42  N        -40.3660  -23.5610   -0.9800 N.am  231  GLU231     -0.1979
     43  CA       -40.3280  -23.2760    0.4540 C.3   231  GLU231      0.1602
     44  C        -41.7190  -23.3390    1.0840 C.2   231  GLU231      0.2287
     45  O        -42.2320  -22.3470    1.5960 O.2   231  GLU231     -0.2864
     46  CB       -39.6520  -21.9280    0.7350 C.3   231  GLU231      0.0415
     47  CG       -38.1990  -21.9740    0.4210 C.3   231  GLU231      0.1163
     48  CD       -37.4420  -20.6740    0.7580 C.2   231  GLU231      0.3649
     49  OE1      -38.1470  -19.6540    0.9810 O.co2 231  GLU231     -0.2457
     50  OE2      -36.1510  -20.6830    0.7680 O.co2 231  GLU231     -0.2457
     51  N        -45.7000  -13.4660    6.3760 N.3   240  TYR240     -0.1241
     52  CA       -44.7050  -13.6980    5.3070 C.3   240  TYR240      0.1605
     53  C        -44.8220  -12.6750    4.1760 C.2   240  TYR240      0.2264
     54  O        -45.8740  -12.5610    3.5360 O.2   240  TYR240     -0.2867
     55  CB       -44.6860  -15.1320    4.7470 C.3   240  TYR240      0.0534
     56  CG       -43.3390  -15.4940    4.1150 C.ar  240  TYR240     -0.0201
     57  CD1      -42.2470  -15.8600    4.9150 C.ar  240  TYR240     -0.0009
     58  CD2      -43.1580  -15.4690    2.7120 C.ar  240  TYR240     -0.0009
     59  CE1      -40.9930  -16.1870    4.3290 C.ar  240  TYR240      0.0417
     60  CE2      -41.9190  -15.7950    2.1130 C.ar  240  TYR240      0.0417
     61  CZ       -40.8470  -16.1500    2.9290 C.ar  240  TYR240      0.1957
     62  OH       -39.6390  -16.4670    2.3710 O.3   240  TYR240     -0.2866
     63  N        -43.7650  -12.0730    1.0920 N.3   242  PHE242     -0.1241
     64  CA       -43.9090  -12.2140   -0.3370 C.3   242  PHE242      0.1605
     65  C        -44.6180  -13.4870   -0.7950 C.2   242  PHE242      0.2264
     66  O        -45.1380  -14.2140    0.0420 O.2   242  PHE242     -0.2867
     67  CB       -42.6020  -11.8960   -1.0730 C.3   242  PHE242      0.0534
     68  CG       -41.4770  -12.7910   -0.7570 C.ar  242  PHE242     -0.0203
     69  CD1      -41.2420  -13.9390   -1.5170 C.ar  242  PHE242     -0.0042
     70  CD2      -40.5920  -12.4710    0.2730 C.ar  242  PHE242     -0.0042
     71  CE1      -40.1470  -14.7630   -1.2230 C.ar  242  PHE242     -0.0003
     72  CE2      -39.5090  -13.2990    0.5880 C.ar  242  PHE242     -0.0003
     73  CZ       -39.2770  -14.4290   -0.1690 C.ar  242  PHE242     -0.0000
     74  N        -35.4220  -25.6850    3.3730 N.3   280  GLN280     -0.1245
     75  CA       -34.2010  -25.7730    4.1960 C.3   280  GLN280      0.1566
     76  C        -33.8790  -27.2120    4.5370 C.2   280  GLN280      0.2260
     77  O        -34.7700  -28.0210    4.7280 O.2   280  GLN280     -0.2867
     78  CB       -34.3440  -24.9630    5.5120 C.3   280  GLN280      0.0367
     79  CG       -34.9340  -23.5560    5.3770 C.3   280  GLN280      0.0905
     80  CD       -34.3000  -22.7740    4.2410 C.2   280  GLN280      0.2608
     81  OE1      -33.1110  -22.9490    3.9390 O.2   280  GLN280     -0.2717
     82  NE2      -35.0860  -21.9180    3.5890 N.am  280  GLN280     -0.0878
     83  N        -30.1480  -21.8030    3.0220 N.3   309  TYR309     -0.1227
     84  CA       -30.1370  -20.5790    3.8070 C.3   309  TYR309      0.1736
     85  C        -29.9650  -20.7820    5.3050 C.2   309  TYR309      0.2595
     86  O        -29.3220  -19.9630    5.9700 O.2   309  TYR309     -0.2718
     87  CB       -31.4080  -19.8240    3.5530 C.3   309  TYR309      0.0548
     88  CG       -31.5520  -19.3910    2.1330 C.ar  309  TYR309     -0.0200
     89  CD1      -30.7640  -18.3510    1.6250 C.ar  309  TYR309     -0.0009
     90  CD2      -32.5010  -19.9910    1.2910 C.ar  309  TYR309     -0.0009
     91  CE1      -30.9120  -17.9190    0.3170 C.ar  309  TYR309      0.0417
     92  CE2      -32.6470  -19.5750   -0.0410 C.ar  309  TYR309      0.0417
     93  CZ       -31.8450  -18.5330   -0.5150 C.ar  309  TYR309      0.1957
     94  OH       -31.9610  -18.0870   -1.8190 O.3   309  TYR309     -0.2866
     95  N        -30.5310  -21.8590    5.8440 N.am  310  LEU310     -0.1980
     96  CA       -30.3030  -22.1630    7.2620 C.3   310  LEU310      0.1596
     97  C        -29.2970  -23.3270    7.4910 C.2   310  LEU310      0.2287
     98  O        -29.4110  -24.0970    8.4550 O.2   310  LEU310     -0.2864
     99  CB       -31.6270  -22.3480    8.0220 C.3   310  LEU310      0.0297
    100  CG       -32.7110  -21.2920    7.7570 C.3   310  LEU310      0.0022
    101  CD1      -34.0030  -21.6510    8.4960 C.3   310  LEU310      0.0001
    102  CD2      -32.2480  -19.8600    8.1270 C.3   310  LEU310      0.0001
    103  N        -31.7300  -23.9220   -4.6620 N.3   336  GLU336     -0.1245
    104  CA       -31.6320  -22.4630   -4.4850 C.3   336  GLU336      0.1567
    105  C        -30.5590  -22.0080   -3.5130 C.2   336  GLU336      0.2260
    106  O        -30.4950  -22.4890   -2.3690 O.2   336  GLU336     -0.2867
    107  CB       -32.9600  -21.8800   -4.0190 C.3   336  GLU336      0.0388
    108  CG       -33.0610  -20.3360   -4.2660 C.3   336  GLU336      0.1160
    109  CD       -34.3740  -19.7340   -3.7580 C.2   336  GLU336      0.3649
    110  OE1      -35.4440  -20.0140   -4.3300 O.co2 336  GLU336     -0.2457
    111  OE2      -34.3330  -18.9830   -2.7670 O.co2 336  GLU336     -0.2457
    112  N        -28.3130  -18.0510   -2.5090 N.3   338  CYS338     -0.1235
    113  CA       -27.7660  -16.7320   -2.8450 C.3   338  CYS338      0.1677
    114  C        -27.1640  -16.1670   -1.5900 C.2   338  CYS338      0.2270
    115  O        -27.5780  -16.5470   -0.4910 O.2   338  CYS338     -0.2867
    116  CB       -28.8320  -15.7980   -3.4070 C.3   338  CYS338      0.0956
    117  SG       -30.1680  -15.3650   -2.2480 S.3   338  CYS338     -0.0801
    118  N        -28.6670  -12.1710    1.6860 N.3   341  SER341     -0.1217
    119  CA       -30.0490  -12.1030    2.1370 C.3   341  SER341      0.1889
    120  C        -30.2560  -11.6550    3.6060 C.2   341  SER341      0.2288
    121  O        -31.3290  -11.1490    3.9410 O.2   341  SER341     -0.2866
    122  CB       -30.7020  -13.4480    1.9600 C.3   341  SER341      0.2089
    123  OG       -30.1800  -14.3230    2.9220 O.3   341  SER341     -0.2183
    124  N        -29.5290  -19.0140   -7.4100 N.3   377  TRP377     -0.1241
    125  CA       -30.7370  -18.2040   -7.5820 C.3   377  TRP377      0.1605
    126  C        -30.5920  -17.3380   -8.8540 C.2   377  TRP377      0.2264
    127  O        -30.0520  -17.8230   -9.8310 O.2   377  TRP377     -0.2867
    128  CB       -31.0050  -17.4210   -6.2890 C.3   377  TRP377      0.0550
    129  CG       -32.3960  -16.8140   -6.0660 C.ar  377  TRP377      0.0003
    130  CD1      -32.6820  -15.7740   -5.2260 C.ar  377  TRP377      0.0946
    131  CD2      -33.6630  -17.1850   -6.6830 C.ar  377  TRP377      0.0152
    132  NE1      -34.0220  -15.4550   -5.2910 N.ar  377  TRP377     -0.2442
    133  CE2      -34.6510  -16.3120   -6.1600 C.ar  377  TRP377      0.0810
    134  CE3      -34.0490  -18.1620   -7.6030 C.ar  377  TRP377      0.0012
    135  CZ2      -36.0170  -16.3900   -6.5340 C.ar  377  TRP377      0.0191
    136  CZ3      -35.3900  -18.2480   -7.9780 C.ar  377  TRP377      0.0001
    137  CH2      -36.3660  -17.3510   -7.4460 C.ar  377  TRP377      0.0015
    138  N        -36.3860   -7.2010   -1.3700 N.3   392  ASN392     -0.1240
    139  CA       -35.6610   -8.3510   -0.8290 C.3   392  ASN392      0.1653
    140  C        -34.3300   -8.6200   -1.5590 C.2   392  ASN392      0.2266
    141  O        -34.0600   -9.7640   -1.9540 O.2   392  ASN392     -0.2867
    142  CB       -36.5380   -9.6030   -0.8760 C.3   392  ASN392      0.1155
    143  CG       -35.9600  -10.7550   -0.0300 C.2   392  ASN392      0.2627
    144  OD1      -35.1680  -10.4850    0.8460 O.2   392  ASN392     -0.2716
    145  ND2      -36.3390  -12.0290   -0.3110 N.am  392  ASN392     -0.0877
    146  N        -30.5840   -9.1440   -3.0430 N.3   394  VAL394     -0.1245
    147  CA       -29.5450  -10.1320   -2.7140 C.3   394  VAL394      0.1561
    148  C        -28.4200   -9.9540   -3.7450 C.2   394  VAL394      0.2260
    149  O        -28.4820   -9.0550   -4.5630 O.2   394  VAL394     -0.2867
    150  CB       -30.1090  -11.6130   -2.6360 C.3   394  VAL394      0.0252
    151  CG1      -31.2330  -11.7200   -1.6300 C.3   394  VAL394      0.0019
    152  CG2      -30.6060  -12.1380   -3.9990 C.3   394  VAL394      0.0019
@<TRIPOS>BOND
     1    12    11    2
     2   127   126    2
     3    11    10    1
     4   126   125    1
     5    13    10    1
     6    13    14    1
     7   136   134   ar
     8   136   137   ar
     9    10     9    1
    10   134   131   ar
    11   125   124    1
    12   125   128    1
    13    32    33   ar
    14    32    30   ar
    15   137   135   ar
    16    16    14   ar
    17    16    18   ar
    18    14    15   ar
    19    33    31   ar
    20    30    27   ar
    21     9     3   am
    22   131   133   ar
    23   131   129   ar
    24   135   133   ar
    25    18    19   ar
    26    20    21    1
    27   128   129    1
    28     4     3    2
    29   133   132   ar
    30   129   130   ar
    31     3     2    1
    32    15    17   ar
    33    31    29   ar
    34    27    29   ar
    35    27    25   ar
    36     1     2    1
    37    29    28   ar
    38   132   130   ar
    39    19    17   ar
    40    24    21    1
    41    24    25    1
    42    21    22    1
    43    25    26   ar
    44     2     5    1
    45   103   104    1
    46   149   148    2
    47    22    23    2
    48   104   107    1
    49   104   105    1
    50     7     6   ar
    51   110   109   ar
    52   108   107    1
    53   108   109    1
    54    28    26   ar
    55   152   150    1
    56    38    39    1
    57    38    35    1
    58    34    35    1
    59   109   111   ar
    60   148   147    1
    61     6     5    1
    62     6     8   ar
    63    40    39    2
    64   105   106    2
    65    39    41   am
    66   116   113    1
    67   116   117    1
    68    35    36    1
    69   146   147    1
    70   113   112    1
    71   113   114    1
    72   147   150    1
    73   150   151    1
    74   141   140    2
    75    94    93    1
    76    36    37    2
    77    36    42   am
    78   114   115    2
    79   140   139    1
    80    69    71   ar
    81    69    68   ar
    82   138   139    1
    83    71    73   ar
    84    67    68    1
    85    67    64    1
    86    42    43    1
    87   142   139    1
    88   142   143    1
    89    65    64    1
    90    65    66    2
    91    68    70   ar
    92    93    92   ar
    93    93    91   ar
    94    64    63    1
    95   145   143   am
    96    73    72   ar
    97    92    90   ar
    98   143   144    2
    99    70    72   ar
   100    91    89   ar
   101    47    46    1
   102    47    48    1
   103    43    46    1
   104    43    44    1
   105    48    50   ar
   106    48    49   ar
   107    44    45    2
   108    90    88   ar
   109    89    88   ar
   110   118   119    1
   111   122   119    1
   112   122   123    1
   113    60    58   ar
   114    60    61   ar
   115    88    87    1
   116   119   120    1
   117    62    61    1
   118    58    56   ar
   119    61    59   ar
   120    83    84    1
   121    74    75    1
   122    54    53    2
   123    87    84    1
   124    82    80   am
   125   120   121    2
   126    84    85    1
   127    81    80    2
   128    56    55    1
   129    56    57   ar
   130    53    52    1
   131    75    76    1
   132    75    78    1
   133    80    79    1
   134    59    57   ar
   135    76    77    2
   136    55    52    1
   137    85    95   am
   138    85    86    2
   139    52    51    1
   140    79    78    1
   141    95    96    1
   142    96    97    1
   143    96    99    1
   144    97    98    2
   145   100    99    1
   146   100   102    1
   147   100   101    1
