@<TRIPOS>MOLECULE
tmp/2xweA01.pdb
 169 163 0 0 0
SMALL
GASTEIGER

@<TRIPOS>ATOM
      1  N        -40.7280  -13.0590   -5.1000 N.3   126  ASP126     -0.1225
      2  CA       -40.2620  -11.7580   -4.6020 C.3   126  ASP126      0.1805
      3  C        -39.3800  -11.0930   -5.6710 C.2   126  ASP126      0.2597
      4  O        -39.4260   -9.8820   -5.8060 O.2   126  ASP126     -0.2718
      5  CB       -39.4990  -11.9020   -3.2900 C.3   126  ASP126      0.1424
      6  CG       -38.3480  -12.8940   -3.4230 C.2   126  ASP126      0.3668
      7  OD1      -38.5260  -13.9370   -4.1030 O.co2 126  ASP126     -0.2456
      8  OD2      -37.2870  -12.6370   -2.8360 O.co2 126  ASP126     -0.2456
      9  N        -38.6370  -11.8810   -6.4650 N.am  127  PHE127     -0.1976
     10  CA       -37.8610  -11.3180   -7.6040 C.3   127  PHE127      0.1639
     11  C        -38.6530  -11.0830   -8.8780 C.2   127  PHE127      0.2290
     12  O        -38.2660  -11.5200   -9.9740 O.2   127  PHE127     -0.2864
     13  CB       -36.5570  -12.0980   -7.8370 C.3   127  PHE127      0.0560
     14  CG       -35.5020  -11.7260   -6.8810 C.ar  127  PHE127     -0.0200
     15  CD1      -34.6920  -10.6170   -7.1170 C.ar  127  PHE127     -0.0042
     16  CD2      -35.3230  -12.4430   -5.6950 C.ar  127  PHE127     -0.0042
     17  CE1      -33.7520  -10.2030   -6.1740 C.ar  127  PHE127     -0.0003
     18  CE2      -34.3240  -12.0580   -4.7720 C.ar  127  PHE127     -0.0003
     19  CZ       -33.5500  -10.9320   -5.0360 C.ar  127  PHE127     -0.0000
     20  N        -44.3710  -20.3040   -6.2950 N.3   178  TRP178     -0.1241
     21  CA       -44.3660  -19.5990   -4.9860 C.3   178  TRP178      0.1605
     22  C        -45.7880  -19.5370   -4.4520 C.2   178  TRP178      0.2264
     23  O        -46.0300  -19.9340   -3.2950 O.2   178  TRP178     -0.2867
     24  CB       -43.7600  -18.1830   -5.1220 C.3   178  TRP178      0.0550
     25  CG       -42.2500  -18.1430   -4.9540 C.ar  178  TRP178      0.0003
     26  CD1      -41.5580  -17.4910   -3.9710 C.ar  178  TRP178      0.0946
     27  CD2      -41.2480  -18.8450   -5.7420 C.ar  178  TRP178      0.0152
     28  NE1      -40.2090  -17.7020   -4.1080 N.ar  178  TRP178     -0.2442
     29  CE2      -39.9790  -18.5060   -5.1920 C.ar  178  TRP178      0.0810
     30  CE3      -41.2940  -19.6290   -6.9060 C.ar  178  TRP178      0.0012
     31  CZ2      -38.7580  -18.9940   -5.7230 C.ar  178  TRP178      0.0191
     32  CZ3      -40.0800  -20.1010   -7.4550 C.ar  178  TRP178      0.0001
     33  CH2      -38.8220  -19.7610   -6.8700 C.ar  178  TRP178      0.0015
     34  N        -42.3210  -24.0740   -3.6920 N.3   233  ASN233     -0.1225
     35  CA       -41.0990  -23.4050   -3.1450 C.3   233  ASN233      0.1785
     36  C        -41.2910  -23.0940   -1.6540 C.2   233  ASN233      0.2597
     37  O        -42.2780  -22.4400   -1.3070 O.2   233  ASN233     -0.2718
     38  CB       -40.8140  -22.1070   -3.8420 C.3   233  ASN233      0.1169
     39  CG       -39.5850  -21.4370   -3.2760 C.2   233  ASN233      0.2627
     40  OD1      -38.5070  -21.9180   -3.4950 O.2   233  ASN233     -0.2716
     41  ND2      -39.7540  -20.3400   -2.5080 N.am  233  ASN233     -0.0877
     42  N        -40.3650  -23.5340   -0.8210 N.am  234  GLU234     -0.1979
     43  CA       -40.3700  -23.2550    0.6190 C.3   234  GLU234      0.1602
     44  C        -41.7590  -23.3400    1.2350 C.2   234  GLU234      0.2287
     45  O        -42.3730  -22.3110    1.6380 O.2   234  GLU234     -0.2864
     46  CB       -39.7360  -21.8810    0.9230 C.3   234  GLU234      0.0415
     47  CG       -38.3090  -21.8780    0.4580 C.3   234  GLU234      0.1163
     48  CD       -37.4460  -20.7690    1.0580 C.2   234  GLU234      0.3649
     49  OE1      -38.0420  -19.7320    1.4800 O.co2 234  GLU234     -0.2457
     50  OE2      -36.1880  -20.9640    1.0940 O.co2 234  GLU234     -0.2457
     51  N        -45.9550  -19.2380    8.2770 N.3   240  LEU240     -0.1245
     52  CA       -45.3190  -18.2070    9.0640 C.3   240  LEU240      0.1561
     53  C        -46.1410  -16.9620    8.9110 C.2   240  LEU240      0.2260
     54  O        -46.2640  -16.3850    7.8320 O.2   240  LEU240     -0.2867
     55  CB       -43.8730  -17.9140    8.6080 C.3   240  LEU240      0.0270
     56  CG       -43.1550  -16.9070    9.5430 C.3   240  LEU240      0.0019
     57  CD1      -43.2020  -17.2910   11.0490 C.3   240  LEU240      0.0001
     58  CD2      -41.7020  -16.6430    9.1730 C.3   240  LEU240      0.0001
     59  N        -45.7330  -13.5740    6.6180 N.3   243  TYR243     -0.1241
     60  CA       -44.7530  -13.8660    5.5690 C.3   243  TYR243      0.1605
     61  C        -44.9310  -12.8920    4.3890 C.2   243  TYR243      0.2264
     62  O        -46.0100  -12.7820    3.8110 O.2   243  TYR243     -0.2867
     63  CB       -44.7860  -15.3330    5.1190 C.3   243  TYR243      0.0534
     64  CG       -43.4810  -15.6860    4.4370 C.ar  243  TYR243     -0.0201
     65  CD1      -42.3670  -16.0740    5.1970 C.ar  243  TYR243     -0.0009
     66  CD2      -43.3200  -15.5160    3.0530 C.ar  243  TYR243     -0.0009
     67  CE1      -41.1430  -16.3150    4.6020 C.ar  243  TYR243      0.0417
     68  CE2      -42.1170  -15.7870    2.4370 C.ar  243  TYR243      0.0417
     69  CZ       -41.0330  -16.1750    3.2160 C.ar  243  TYR243      0.1957
     70  OH       -39.8590  -16.4850    2.6320 O.3   243  TYR243     -0.2866
     71  N        -43.9450  -12.1630    1.1730 N.3   245  PHE245     -0.1241
     72  CA       -44.0470  -12.1890   -0.2930 C.3   245  PHE245      0.1605
     73  C        -44.6660  -13.4780   -0.6690 C.2   245  PHE245      0.2264
     74  O        -45.0680  -14.2210    0.2260 O.2   245  PHE245     -0.2867
     75  CB       -42.7060  -11.9250   -0.9750 C.3   245  PHE245      0.0534
     76  CG       -41.5980  -12.8800   -0.6020 C.ar  245  PHE245     -0.0203
     77  CD1      -41.4520  -14.1260   -1.2540 C.ar  245  PHE245     -0.0042
     78  CD2      -40.6260  -12.5090    0.3320 C.ar  245  PHE245     -0.0042
     79  CE1      -40.3900  -14.9780   -0.9540 C.ar  245  PHE245     -0.0003
     80  CE2      -39.5270  -13.3750    0.6580 C.ar  245  PHE245     -0.0003
     81  CZ       -39.4130  -14.6050    0.0150 C.ar  245  PHE245     -0.0000
     82  N        -35.4410  -25.7530    3.6780 N.3   283  GLN283     -0.1245
     83  CA       -34.1940  -25.7950    4.4990 C.3   283  GLN283      0.1566
     84  C        -33.8660  -27.2390    4.7850 C.2   283  GLN283      0.2260
     85  O        -34.7810  -28.0500    5.0170 O.2   283  GLN283     -0.2867
     86  CB       -34.4040  -25.0460    5.8360 C.3   283  GLN283      0.0367
     87  CG       -34.9930  -23.6030    5.6950 C.3   283  GLN283      0.0905
     88  CD       -34.3430  -22.8170    4.5810 C.2   283  GLN283      0.2608
     89  OE1      -33.1210  -22.7850    4.4580 O.2   283  GLN283     -0.2717
     90  NE2      -35.1630  -22.1960    3.7370 N.am  283  GLN283     -0.0878
     91  N        -30.2150  -21.9650    3.3590 N.3   312  TYR312     -0.1227
     92  CA       -30.1910  -20.7260    4.1240 C.3   312  TYR312      0.1736
     93  C        -30.0200  -20.9550    5.5980 C.2   312  TYR312      0.2595
     94  O        -29.3210  -20.1620    6.2710 O.2   312  TYR312     -0.2718
     95  CB       -31.4560  -19.9250    3.8800 C.3   312  TYR312      0.0548
     96  CG       -31.5610  -19.4670    2.4610 C.ar  312  TYR312     -0.0200
     97  CD1      -30.8000  -18.3830    1.9780 C.ar  312  TYR312     -0.0009
     98  CD2      -32.4580  -20.0950    1.5860 C.ar  312  TYR312     -0.0009
     99  CE1      -30.9170  -17.9670    0.5920 C.ar  312  TYR312      0.0417
    100  CE2      -32.5670  -19.7130    0.2470 C.ar  312  TYR312      0.0417
    101  CZ       -31.8080  -18.6440   -0.2470 C.ar  312  TYR312      0.1957
    102  OH       -31.9560  -18.3210   -1.5920 O.3   312  TYR312     -0.2866
    103  N        -30.6270  -22.0140    6.1300 N.am  313  LEU313     -0.1980
    104  CA       -30.3560  -22.2930    7.5230 C.3   313  LEU313      0.1596
    105  C        -29.3100  -23.3810    7.7480 C.2   313  LEU313      0.2287
    106  O        -29.3740  -24.1120    8.7600 O.2   313  LEU313     -0.2864
    107  CB       -31.6610  -22.5070    8.3220 C.3   313  LEU313      0.0297
    108  CG       -32.6330  -21.3140    8.1080 C.3   313  LEU313      0.0022
    109  CD1      -34.0430  -21.5620    8.6700 C.3   313  LEU313      0.0001
    110  CD2      -32.0600  -19.9970    8.6810 C.3   313  LEU313      0.0001
    111  N        -31.6070  -23.9770   -4.5440 N.3   339  GLU339     -0.1245
    112  CA       -31.6350  -22.5050   -4.4050 C.3   339  GLU339      0.1567
    113  C        -30.6400  -22.0270   -3.3700 C.2   339  GLU339      0.2260
    114  O        -30.6310  -22.5250   -2.2390 O.2   339  GLU339     -0.2867
    115  CB       -33.0490  -21.9250   -4.0620 C.3   339  GLU339      0.0388
    116  CG       -33.1390  -20.3260   -4.2090 C.3   339  GLU339      0.1160
    117  CD       -34.3510  -19.7130   -3.4560 C.2   339  GLU339      0.3649
    118  OE1      -35.5230  -19.9750   -3.8510 O.co2 339  GLU339     -0.2457
    119  OE2      -34.1230  -19.0150   -2.4200 O.co2 339  GLU339     -0.2457
    120  N        -28.4060  -18.1030   -2.3840 N.3   341  CYS341     -0.1235
    121  CA       -27.7520  -16.7890   -2.6430 C.3   341  CYS341      0.1677
    122  C        -27.2210  -16.2800   -1.3260 C.2   341  CYS341      0.2270
    123  O        -27.6710  -16.7410   -0.2760 O.2   341  CYS341     -0.2867
    124  CB       -28.7030  -15.7350   -3.2040 C.3   341  CYS341      0.0956
    125  SG       -30.1200  -15.4360   -2.1020 S.3   341  CYS341     -0.0801
    126  N        -28.5960  -12.1320    1.8410 N.3   344  SER344     -0.1202
    127  CA       -30.0090  -11.9800    2.1760 C.3   344  SER344      0.2020
    128  C        -30.2740  -11.6630    3.6640 C.2   344  SER344      0.2618
    129  O        -31.4340  -11.3660    4.0350 O.2   344  SER344     -0.2717
    130  CB       -30.7850  -13.2390    1.8360 C.3   344  SER344      0.2103
    131  OG       -30.6730  -14.1590    2.9070 O.3   344  SER344     -0.2182
    132  N        -29.2650  -11.7450    4.5330 N.am  345  LYS345     -0.1979
    133  CA       -29.5390  -11.4200    5.9300 C.3   345  LYS345      0.1596
    134  C        -29.7280   -9.9420    6.1630 C.2   345  LYS345      0.2287
    135  O        -29.0210   -9.1250    5.5840 O.2   345  LYS345     -0.2864
    136  CB       -28.5280  -12.0740    6.8840 C.3   345  LYS345      0.0298
    137  CG       -28.8390  -13.5520    6.9110 C.3   345  LYS345      0.0038
    138  CD       -27.7290  -14.3600    7.5320 C.3   345  LYS345      0.0206
    139  CE       -28.1870  -15.8100    7.7000 C.3   345  LYS345      0.1093
    140  NZ       -28.6160  -16.4180    6.4520 N.3   345  LYS345     -0.1314
    141  N        -29.4440  -18.9800   -7.2510 N.3   380  TRP380     -0.1241
    142  CA       -30.7220  -18.2930   -7.3930 C.3   380  TRP380      0.1605
    143  C        -30.5760  -17.3360   -8.6200 C.2   380  TRP380      0.2264
    144  O        -30.0730  -17.7680   -9.6840 O.2   380  TRP380     -0.2867
    145  CB       -31.0990  -17.6730   -6.0120 C.3   380  TRP380      0.0550
    146  CG       -32.3900  -16.9990   -5.8240 C.ar  380  TRP380      0.0003
    147  CD1      -32.6150  -15.9390   -4.9570 C.ar  380  TRP380      0.0946
    148  CD2      -33.6800  -17.2760   -6.4520 C.ar  380  TRP380      0.0152
    149  NE1      -33.9300  -15.5770   -4.9960 N.ar  380  TRP380     -0.2442
    150  CE2      -34.6070  -16.3520   -5.9050 C.ar  380  TRP380      0.0810
    151  CE3      -34.1210  -18.1840   -7.4340 C.ar  380  TRP380      0.0012
    152  CZ2      -35.9750  -16.3120   -6.2900 C.ar  380  TRP380      0.0191
    153  CZ3      -35.4570  -18.1800   -7.8070 C.ar  380  TRP380      0.0001
    154  CH2      -36.3930  -17.2120   -7.2340 C.ar  380  TRP380      0.0015
    155  N        -36.3870   -7.5170   -1.0480 N.3   395  ASN395     -0.1240
    156  CA       -35.6400   -8.6350   -0.4560 C.3   395  ASN395      0.1653
    157  C        -34.3740   -8.8600   -1.3330 C.2   395  ASN395      0.2266
    158  O        -34.1410   -9.9580   -1.8350 O.2   395  ASN395     -0.2867
    159  CB       -36.5650   -9.8220   -0.3990 C.3   395  ASN395      0.1155
    160  CG       -36.0230  -10.9640    0.4430 C.2   395  ASN395      0.2627
    161  OD1      -35.5360  -10.7770    1.5490 O.2   395  ASN395     -0.2716
    162  ND2      -36.1570  -12.1650   -0.0750 N.am  395  ASN395     -0.0877
    163  N        -30.5390   -9.3300   -2.7510 N.3   397  VAL397     -0.1245
    164  CA       -29.5170  -10.3210   -2.4350 C.3   397  VAL397      0.1561
    165  C        -28.4200  -10.1390   -3.4470 C.2   397  VAL397      0.2260
    166  O        -28.4940   -9.2400   -4.2440 O.2   397  VAL397     -0.2867
    167  CB       -30.0560  -11.8090   -2.4530 C.3   397  VAL397      0.0252
    168  CG1      -31.1660  -12.0250   -1.3550 C.3   397  VAL397      0.0019
    169  CG2      -30.5430  -12.1960   -3.8510 C.3   397  VAL397      0.0019
@<TRIPOS>BOND
     1    12    11    2
     2   144   143    2
     3    11    10    1
     4   143   142    1
     5    13    10    1
     6    13    14    1
     7   153   151   ar
     8   153   154   ar
     9    10     9    1
    10    32    30   ar
    11    32    33   ar
    12   151   148   ar
    13   142   141    1
    14   142   145    1
    15   154   152   ar
    16    15    14   ar
    17    15    17   ar
    18    30    27   ar
    19    14    16   ar
    20    33    31   ar
    21     9     3   am
    22   148   150   ar
    23   148   146   ar
    24    20    21    1
    25   152   150   ar
    26    17    19   ar
    27   145   146    1
    28   150   149   ar
    29   146   147   ar
    30     4     3    2
    31    27    29   ar
    32    27    25   ar
    33    31    29   ar
    34    16    18   ar
    35     3     2    1
    36    29    28   ar
    37    24    21    1
    38    24    25    1
    39     1     2    1
    40    19    18   ar
    41   149   147   ar
    42    21    22    1
    43    25    26   ar
    44     2     5    1
    45   111   112    1
    46    22    23    2
    47   112   115    1
    48   112   113    1
    49   166   165    2
    50   116   115    1
    51   116   117    1
    52    28    26   ar
    53     7     6   ar
    54   118   117   ar
    55   169   167    1
    56    38    39    1
    57    38    35    1
    58    34    35    1
    59    40    39    2
    60   117   119   ar
    61   165   164    1
    62     6     5    1
    63     6     8   ar
    64   113   114    2
    65    39    41   am
    66   124   121    1
    67   124   125    1
    68    35    36    1
    69   163   164    1
    70   121   120    1
    71   121   122    1
    72   167   164    1
    73   167   168    1
    74   158   157    2
    75    36    37    2
    76    36    42   am
    77   102   101    1
    78   157   156    1
    79   122   123    2
    80    77    79   ar
    81    77    76   ar
    82   155   156    1
    83    75    76    1
    84    75    72    1
    85    79    81   ar
    86    42    43    1
    87    73    72    1
    88    73    74    2
    89    76    78   ar
    90   156   159    1
    91   159   160    1
    92    72    71    1
    93   101   100   ar
    94   101    99   ar
    95   162   160   am
    96    81    80   ar
    97   100    98   ar
    98    78    80   ar
    99   160   161    2
   100    47    46    1
   101    47    48    1
   102    99    97   ar
   103    43    46    1
   104    43    44    1
   105    48    50   ar
   106    48    49   ar
   107    44    45    2
   108    98    96   ar
   109   130   127    1
   110   130   131    1
   111   126   127    1
   112    97    96   ar
   113   127   128    1
   114    68    66   ar
   115    68    69   ar
   116    96    95    1
   117    70    69    1
   118    66    64   ar
   119    69    67   ar
   120    91    92    1
   121   128   129    2
   122   128   132   am
   123    82    83    1
   124    90    88   am
   125    62    61    2
   126    95    92    1
   127    92    93    1
   128    61    60    1
   129    64    63    1
   130    64    65   ar
   131    89    88    2
   132    83    84    1
   133    83    86    1
   134   132   133    1
   135    88    87    1
   136    67    65   ar
   137    84    85    2
   138    63    60    1
   139    60    59    1
   140   135   134    2
   141    93   103   am
   142    93    94    2
   143    87    86    1
   144   133   134    1
   145   133   136    1
   146   103   104    1
   147   140   139    1
   148   136   137    1
   149   137   138    1
   150   104   105    1
   151   104   107    1
   152   138   139    1
   153   105   106    2
   154    54    53    2
   155   108   107    1
   156   108   109    1
   157   108   110    1
   158    51    52    1
   159    55    52    1
   160    55    56    1
   161    53    52    1
   162    58    56    1
   163    56    57    1
