@<TRIPOS>MOLECULE
tmp/2xweB02.pdb
 152 147 0 0 0
SMALL
GASTEIGER

@<TRIPOS>ATOM
      1  N        -28.0950   -8.0230   23.4680 N.3   128  ASP128     -0.1225
      2  CA       -28.5760   -6.9140   22.6000 C.3   128  ASP128      0.1805
      3  C        -29.4640   -5.9710   23.3910 C.2   128  ASP128      0.2597
      4  O        -29.4900   -4.7700   23.1160 O.2   128  ASP128     -0.2718
      5  CB       -29.3280   -7.4480   21.3910 C.3   128  ASP128      0.1424
      6  CG       -30.4120   -8.4260   21.7720 C.2   128  ASP128      0.3668
      7  OD1      -30.2630   -9.1530   22.7910 O.co2 128  ASP128     -0.2456
      8  OD2      -31.4340   -8.4460   21.0690 O.co2 128  ASP128     -0.2456
      9  N        -30.1540   -6.4970   24.4010 N.am  129  PHE129     -0.1976
     10  CA       -30.9040   -5.6120   25.2960 C.3   129  PHE129      0.1639
     11  C        -30.0640   -4.9340   26.3930 C.2   129  PHE129      0.2290
     12  O        -30.4430   -4.8800   27.5620 O.2   129  PHE129     -0.2864
     13  CB       -32.1800   -6.2620   25.7680 C.3   129  PHE129      0.0560
     14  CG       -33.2420   -6.2500   24.6990 C.ar  129  PHE129     -0.0200
     15  CD1      -34.0680   -5.1710   24.5490 C.ar  129  PHE129     -0.0042
     16  CD2      -33.3420   -7.2990   23.7890 C.ar  129  PHE129     -0.0042
     17  CE1      -34.9980   -5.1520   23.5520 C.ar  129  PHE129     -0.0003
     18  CE2      -34.2760   -7.2870   22.8070 C.ar  129  PHE129     -0.0003
     19  CZ       -35.1070   -6.1960   22.6860 C.ar  129  PHE129     -0.0000
     20  N        -24.3560  -14.5150   26.9960 N.3   180  TRP180     -0.1241
     21  CA       -24.4580  -14.3570   25.5230 C.3   180  TRP180      0.1605
     22  C        -23.0490  -14.5130   24.9060 C.2   180  TRP180      0.2264
     23  O        -22.8020  -15.3640   24.0350 O.2   180  TRP180     -0.2867
     24  CB       -25.0520  -12.9620   25.1710 C.3   180  TRP180      0.0550
     25  CG       -26.5210  -12.9390   24.9730 C.ar  180  TRP180      0.0003
     26  CD1      -27.1850  -12.5860   23.8230 C.ar  180  TRP180      0.0946
     27  CD2      -27.5630  -13.2940   25.9430 C.ar  180  TRP180      0.0152
     28  NE1      -28.5550  -12.6840   24.0030 N.ar  180  TRP180     -0.2442
     29  CE2      -28.8240  -13.1290   25.2770 C.ar  180  TRP180      0.0810
     30  CE3      -27.5520  -13.7520   27.2960 C.ar  180  TRP180      0.0012
     31  CZ2      -30.0740  -13.4210   25.9130 C.ar  180  TRP180      0.0191
     32  CZ3      -28.8240  -14.0510   27.9490 C.ar  180  TRP180      0.0001
     33  CH2      -30.0560  -13.8600   27.2500 C.ar  180  TRP180      0.0015
     34  N        -26.4340  -18.9370   25.7860 N.3   235  ASN235     -0.1225
     35  CA       -27.6200  -18.5540   25.1130 C.3   235  ASN235      0.1785
     36  C        -27.4690  -18.8200   23.5750 C.2   235  ASN235      0.2597
     37  O        -26.4510  -18.4810   22.9910 O.2   235  ASN235     -0.2718
     38  CB       -27.9140  -17.1140   25.3960 C.3   235  ASN235      0.1169
     39  CG       -29.0980  -16.6190   24.5610 C.2   235  ASN235      0.2627
     40  OD1      -30.2580  -16.9130   24.9010 O.2   235  ASN235     -0.2716
     41  ND2      -28.8070  -15.8940   23.4540 N.am  235  ASN235     -0.0877
     42  N        -28.4310  -19.5020   22.9600 N.am  236  GLU236     -0.1979
     43  CA       -28.3950  -19.8110   21.4930 C.3   236  GLU236      0.1602
     44  C        -26.9870  -20.0090   21.0040 C.2   236  GLU236      0.2287
     45  O        -26.4770  -19.1900   20.2450 O.2   236  GLU236     -0.2864
     46  CB       -29.0990  -18.7150   20.6510 C.3   236  GLU236      0.0415
     47  CG       -30.4840  -18.3410   21.2510 C.3   236  GLU236      0.1163
     48  CD       -31.3200  -17.3660   20.3990 C.2   236  GLU236      0.3649
     49  OE1      -30.6890  -16.5260   19.7410 O.co2 236  GLU236     -0.2457
     50  OE2      -32.5840  -17.4240   20.4340 O.co2 236  GLU236     -0.2457
     51  N        -23.2310  -12.6000   12.4730 N.3   245  TYR245     -0.1241
     52  CA       -24.1590  -12.4980   13.6310 C.3   245  TYR245      0.1605
     53  C        -24.0000  -11.1840   14.3510 C.2   245  TYR245      0.2264
     54  O        -22.9070  -10.8320   14.7360 O.2   245  TYR245     -0.2867
     55  CB       -24.0900  -13.6800   14.5970 C.3   245  TYR245      0.0534
     56  CG       -25.3850  -13.7680   15.3880 C.ar  245  TYR245     -0.0201
     57  CD1      -26.5270  -14.3380   14.8160 C.ar  245  TYR245     -0.0009
     58  CD2      -25.4920  -13.2130   16.6670 C.ar  245  TYR245     -0.0009
     59  CE1      -27.7660  -14.4200   15.5170 C.ar  245  TYR245      0.0417
     60  CE2      -26.7570  -13.2670   17.4080 C.ar  245  TYR245      0.0417
     61  CZ       -27.8710  -13.8780   16.8050 C.ar  245  TYR245      0.1957
     62  OH       -29.0580  -13.9570   17.4550 O.3   245  TYR245     -0.2866
     63  N        -25.0110   -9.4420   17.1510 N.3   247  PHE247     -0.1241
     64  CA       -24.8330   -9.0650   18.5360 C.3   247  PHE247      0.1605
     65  C        -24.1820  -10.1530   19.3690 C.2   247  PHE247      0.2264
     66  O        -23.7880  -11.1840   18.8070 O.2   247  PHE247     -0.2867
     67  CB       -26.1140   -8.5240   19.1310 C.3   247  PHE247      0.0534
     68  CG       -27.2800   -9.4980   19.1430 C.ar  247  PHE247     -0.0203
     69  CD1      -27.4800  -10.3770   20.2320 C.ar  247  PHE247     -0.0042
     70  CD2      -28.2270   -9.4520   18.1400 C.ar  247  PHE247     -0.0042
     71  CE1      -28.5800  -11.2030   20.2660 C.ar  247  PHE247     -0.0003
     72  CE2      -29.3370  -10.2830   18.1610 C.ar  247  PHE247     -0.0003
     73  CZ       -29.5330  -11.1710   19.1920 C.ar  247  PHE247     -0.0000
     74  N        -33.3650  -22.9860   19.5390 N.3   285  GLN285     -0.1245
     75  CA       -34.6000  -23.3570   18.8330 C.3   285  GLN285      0.1566
     76  C        -34.8700  -24.8120   18.9840 C.2   285  GLN285      0.2260
     77  O        -33.9280  -25.6570   18.9310 O.2   285  GLN285     -0.2867
     78  CB       -34.4990  -23.0260   17.3330 C.3   285  GLN285      0.0367
     79  CG       -33.7640  -21.7250   17.0740 C.3   285  GLN285      0.0905
     80  CD       -34.4980  -20.5310   17.7200 C.2   285  GLN285      0.2608
     81  OE1      -35.7390  -20.5490   17.8530 O.2   285  GLN285     -0.2717
     82  NE2      -33.7410  -19.5000   18.1290 N.am  285  GLN285     -0.0878
     83  N        -38.5790  -19.2890   18.5640 N.3   314  TYR314     -0.1227
     84  CA       -38.6350  -18.3850   17.3810 C.3   314  TYR314      0.1736
     85  C        -38.8660  -19.0850   16.0800 C.2   314  TYR314      0.2595
     86  O        -39.4630  -18.5130   15.1800 O.2   314  TYR314     -0.2718
     87  CB       -37.3680  -17.5120   17.2850 C.3   314  TYR314      0.0548
     88  CG       -37.2190  -16.6490   18.5230 C.ar  314  TYR314     -0.0200
     89  CD1      -38.0000  -15.4910   18.6900 C.ar  314  TYR314     -0.0009
     90  CD2      -36.3230  -17.0130   19.5470 C.ar  314  TYR314     -0.0009
     91  CE1      -37.8940  -14.7180   19.8570 C.ar  314  TYR314      0.0417
     92  CE2      -36.1750  -16.2110   20.7300 C.ar  314  TYR314      0.0417
     93  CZ       -36.9720  -15.0930   20.8740 C.ar  314  TYR314      0.1957
     94  OH       -36.8670  -14.3380   22.0230 O.3   314  TYR314     -0.2866
     95  N        -38.3680  -20.3020   15.9470 N.am  315  LEU315     -0.1980
     96  CA       -38.6200  -21.0400   14.7490 C.3   315  LEU315      0.1596
     97  C        -39.5100  -22.2320   15.0340 C.2   315  LEU315      0.2287
     98  O        -39.3290  -23.2950   14.4860 O.2   315  LEU315     -0.2864
     99  CB       -37.3140  -21.4260   14.1190 C.3   315  LEU315      0.0297
    100  CG       -36.3220  -20.2880   13.8430 C.3   315  LEU315      0.0022
    101  CD1      -35.0560  -20.9510   13.2990 C.3   315  LEU315      0.0001
    102  CD2      -36.8050  -19.1660   12.8820 C.3   315  LEU315      0.0001
    103  N        -37.0930  -18.6720   26.5360 N.3   341  GLU341     -0.1245
    104  CA       -37.1340  -17.3000   25.9660 C.3   341  GLU341      0.1567
    105  C        -38.1550  -17.1960   24.8970 C.2   341  GLU341      0.2260
    106  O        -38.1790  -18.0360   24.0150 O.2   341  GLU341     -0.2867
    107  CB       -35.7750  -16.8240   25.4070 C.3   341  GLU341      0.0388
    108  CG       -35.7350  -15.3320   25.0520 C.3   341  GLU341      0.1160
    109  CD       -34.4290  -14.9280   24.3290 C.2   341  GLU341      0.3649
    110  OE1      -33.3060  -15.1210   24.8860 O.co2 341  GLU341     -0.2457
    111  OE2      -34.5290  -14.4590   23.1530 O.co2 341  GLU341     -0.2457
    112  N        -40.3730  -13.7490   22.6830 N.3   343  CYS343     -0.1235
    113  CA       -40.9220  -12.4340   22.5440 C.3   343  CYS343      0.1677
    114  C        -41.4780  -12.3090   21.1060 C.2   343  CYS343      0.2270
    115  O        -41.1280  -13.0990   20.2510 O.2   343  CYS343     -0.2867
    116  CB       -39.8550  -11.3710   22.8170 C.3   343  CYS343      0.0956
    117  SG       -38.6020  -11.3340   21.5700 S.3   343  CYS343     -0.0801
    118  N        -40.0410   -9.5340   16.6790 N.3   346  SER346     -0.1217
    119  CA       -38.6250   -9.7910   16.3160 C.3   346  SER346      0.1889
    120  C        -38.4120   -9.8190   14.8160 C.2   346  SER346      0.2288
    121  O        -37.2990   -9.5280   14.3530 O.2   346  SER346     -0.2866
    122  CB       -38.1610  -11.1870   16.7980 C.3   346  SER346      0.2089
    123  OG       -39.3060  -11.9680   17.2610 O.3   346  SER346     -0.2183
    124  N        -39.1550  -13.0340   27.6560 N.3   382  TRP382     -0.1241
    125  CA       -37.9320  -12.2480   27.4940 C.3   382  TRP382      0.1605
    126  C        -38.0730  -10.9350   28.3530 C.2   382  TRP382      0.2264
    127  O        -38.5490  -11.0560   29.5020 O.2   382  TRP382     -0.2867
    128  CB       -37.6770  -12.0620   25.9720 C.3   382  TRP382      0.0550
    129  CG       -36.3060  -11.5050   25.5190 C.ar  382  TRP382      0.0003
    130  CD1      -36.0630  -10.8200   24.3640 C.ar  382  TRP382      0.0946
    131  CD2      -35.0420  -11.5740   26.2120 C.ar  382  TRP382      0.0152
    132  NE1      -34.7540  -10.4520   24.2930 N.ar  382  TRP382     -0.2442
    133  CE2      -34.0940  -10.9070   25.4040 C.ar  382  TRP382      0.0810
    134  CE3      -34.6170  -12.1630   27.4170 C.ar  382  TRP382      0.0012
    135  CZ2      -32.7550  -10.7820   25.7580 C.ar  382  TRP382      0.0191
    136  CZ3      -33.3000  -12.0370   27.7720 C.ar  382  TRP382      0.0001
    137  CH2      -32.3670  -11.3530   26.9350 C.ar  382  TRP382      0.0015
    138  N        -32.4150   -3.9970   17.7460 N.3   397  ASN397     -0.1240
    139  CA       -33.1710   -5.2320   17.5640 C.3   397  ASN397      0.1653
    140  C        -34.4440   -5.1330   18.4380 C.2   397  ASN397      0.2266
    141  O        -34.6460   -5.9450   19.3420 O.2   397  ASN397     -0.2867
    142  CB       -32.2630   -6.3820   17.9910 C.3   397  ASN397      0.1155
    143  CG       -32.7500   -7.7300   17.5400 C.2   397  ASN397      0.2627
    144  OD1      -33.4310   -7.8660   16.5250 O.2   397  ASN397     -0.2716
    145  ND2      -32.3670   -8.7560   18.2740 N.am  397  ASN397     -0.0877
    146  N        -38.1370   -5.2100   20.1070 N.3   399  VAL399     -0.1245
    147  CA       -39.2180   -6.1760   20.1050 C.3   399  VAL399      0.1561
    148  C        -40.2920   -5.7320   21.0730 C.2   399  VAL399      0.2260
    149  O        -40.1760   -4.6490   21.6330 O.2   399  VAL399     -0.2867
    150  CB       -38.7790   -7.6120   20.4410 C.3   399  VAL399      0.0252
    151  CG1      -37.6570   -8.0740   19.5140 C.3   399  VAL399      0.0019
    152  CG2      -38.4450   -7.7450   21.9280 C.3   399  VAL399      0.0019
@<TRIPOS>BOND
     1    51    52    1
     2   102   100    1
     3   101   100    1
     4    52    53    1
     5    52    55    1
     6   100    99    1
     7    99    96    1
     8    53    54    2
     9   121   120    2
    10    98    97    2
    11    55    56    1
    12    96    97    1
    13    96    95    1
    14    57    56   ar
    15    57    59   ar
    16   120   119    1
    17    86    85    2
    18    56    58   ar
    19    59    61   ar
    20    95    85   am
    21    85    84    1
    22   119   118    1
    23   119   122    1
    24   144   143    2
    25    58    60   ar
    26   122   123    1
    27    61    60   ar
    28    61    62    1
    29    79    78    1
    30    79    80    1
    31    63    64    1
    32    87    84    1
    33    87    88    1
    34    78    75    1
    35    84    83    1
    36   143   142    1
    37   143   145   am
    38   139   138    1
    39   139   142    1
    40   139   140    1
    41    80    81    2
    42    80    82   am
    43    70    72   ar
    44    70    68   ar
    45    72    73   ar
    46   140   141    2
    47    88    89   ar
    48    88    90   ar
    49    64    67    1
    50    64    65    1
    51    89    91   ar
    52    66    65    2
    53    75    76    1
    54    75    74    1
    55    77    76    2
    56    67    68    1
    57    68    69   ar
    58    73    71   ar
    59   151   150    1
    60    90    92   ar
    61    49    48   ar
    62    91    93   ar
    63   147   146    1
    64   147   150    1
    65   147   148    1
    66    69    71   ar
    67    45    44    2
    68   115   114    2
    69    48    50   ar
    70    48    47    1
    71   150   152    1
    72    46    47    1
    73    46    43    1
    74    92    93   ar
    75    93    94    1
    76    44    43    1
    77     8     6   ar
    78   148   149    2
    79   114   113    1
    80     5     6    1
    81     5     2    1
    82    43    42    1
    83   117   116    1
    84     6     7   ar
    85   113   112    1
    86   113   116    1
    87     2     3    1
    88     2     1    1
    89    19    18   ar
    90    19    17   ar
    91    18    16   ar
    92    42    36   am
    93    37    36    2
    94     4     3    2
    95   111   109   ar
    96     3     9   am
    97    41    39   am
    98    17    15   ar
    99    36    35    1
   100    16    14   ar
   101    26    28   ar
   102    26    25   ar
   103    28    29   ar
   104   106   105    2
   105    23    22    2
   106   132   130   ar
   107   132   133   ar
   108   109   110   ar
   109   109   108    1
   110   130   129   ar
   111     9    10    1
   112    15    14   ar
   113    39    40    2
   114    39    38    1
   115    14    13    1
   116   105   104    1
   117    22    21    1
   118    25    24    1
   119    25    27   ar
   120   108   107    1
   121    35    38    1
   122    35    34    1
   123    24    21    1
   124    29    31   ar
   125    29    27   ar
   126    10    13    1
   127    10    11    1
   128   133   135   ar
   129   133   131   ar
   130   107   104    1
   131   129   128    1
   132   129   131   ar
   133    21    20    1
   134   135   137   ar
   135    31    33   ar
   136    27    30   ar
   137   104   103    1
   138   128   125    1
   139   131   134   ar
   140    11    12    2
   141   137   136   ar
   142    33    32   ar
   143    30    32   ar
   144   134   136   ar
   145   125   124    1
   146   125   126    1
   147   126   127    2
