@<TRIPOS>MOLECULE
tmp/2xwhA06.pdb
 97 93 0 0 0
SMALL
GASTEIGER

@<TRIPOS>ATOM
      1  N         67.8970   74.2350   18.4120 N.3   203  LEU203     -0.1245
      2  CA        68.6850   75.3370   17.8750 C.3   203  LEU203      0.1561
      3  C         69.7650   75.7690   18.8470 C.2   203  LEU203      0.2260
      4  O         70.8780   76.0840   18.4390 O.2   203  LEU203     -0.2867
      5  CB        67.8040   76.5390   17.5750 C.3   203  LEU203      0.0270
      6  CG        66.8580   76.3700   16.3960 C.3   203  LEU203      0.0019
      7  CD1       65.8710   77.5370   16.3560 C.3   203  LEU203      0.0001
      8  CD2       67.6660   76.2840   15.1170 C.3   203  LEU203      0.0001
      9  N         72.5310   73.0930   19.0870 N.3   206  TRP206     -0.1241
     10  CA        73.3360   73.1270   17.8710 C.3   206  TRP206      0.1605
     11  C         74.2970   74.3070   17.9220 C.2   206  TRP206      0.2264
     12  O         75.4850   74.1820   17.6070 O.2   206  TRP206     -0.2867
     13  CB        72.4250   73.2330   16.6380 C.3   206  TRP206      0.0550
     14  CG        73.1080   72.8670   15.3510 C.ar  206  TRP206      0.0003
     15  CD1       73.4940   73.7100   14.3550 C.ar  206  TRP206      0.0946
     16  CD2       73.4860   71.5490   14.9340 C.ar  206  TRP206      0.0152
     17  NE1       74.0850   73.0010   13.3340 N.ar  206  TRP206     -0.2442
     18  CE2       74.1050   71.6720   13.6720 C.ar  206  TRP206      0.0810
     19  CE3       73.3690   70.2800   15.5120 C.ar  206  TRP206      0.0012
     20  CZ2       74.5970   70.5710   12.9690 C.ar  206  TRP206      0.0191
     21  CZ3       73.8660   69.1830   14.8180 C.ar  206  TRP206      0.0001
     22  CH2       74.4690   69.3380   13.5540 C.ar  206  TRP206      0.0015
     23  N         74.0250   68.6330    9.5500 N.3   357  ASP357     -0.1225
     24  CA        73.0400   69.6290    9.1430 C.3   357  ASP357      0.1805
     25  C         71.7730   69.4360    9.9650 C.2   357  ASP357      0.2598
     26  O         71.1470   68.3730    9.9180 O.2   357  ASP357     -0.2718
     27  CB        72.7470   69.5120    7.6360 C.3   357  ASP357      0.1424
     28  CG        71.7260   70.5320    7.1460 C.2   357  ASP357      0.3668
     29  OD1       70.7350   70.8060    7.8570 O.co2 357  ASP357     -0.2456
     30  OD2       71.9030   71.0480    6.0250 O.co2 357  ASP357     -0.2456
     31  N         71.3970   70.4580   10.7310 N.am  358  LEU358     -0.1966
     32  CA        70.3460   70.2720   11.7270 C.3   358  LEU358      0.1728
     33  C         68.9890   69.9410   11.1070 C.2   358  LEU358      0.2616
     34  O         68.1700   69.2720   11.7460 O.2   358  LEU358     -0.2715
     35  CB        70.2300   71.4870   12.6570 C.3   358  LEU358      0.0311
     36  CG        69.1990   71.3510   13.7930 C.3   358  LEU358      0.0022
     37  CD1       69.5360   70.1980   14.7420 C.3   358  LEU358      0.0001
     38  CD2       69.0750   72.6540   14.5690 C.3   358  LEU358      0.0001
     39  N         68.7510   70.3900    9.8740 N.am  359  GLU359     -0.1977
     40  CA        67.4370   70.1820    9.2440 C.3   359  GLU359      0.1602
     41  C         67.1500   68.6950    9.0630 C.2   359  GLU359      0.2287
     42  O         65.9940   68.2700    9.0530 O.2   359  GLU359     -0.2864
     43  CB        67.3220   70.9200    7.8870 C.3   359  GLU359      0.0415
     44  CG        65.8650   70.9900    7.3850 C.3   359  GLU359      0.1163
     45  CD        65.6710   71.7190    6.0690 C.2   359  GLU359      0.3649
     46  OE1       66.6640   71.9520    5.3420 O.co2 359  GLU359     -0.2457
     47  OE2       64.4960   72.0440    5.7410 O.co2 359  GLU359     -0.2457
     48  N         63.6210   70.3380   12.7610 N.3   368  VAL368     -0.1231
     49  CA        63.5430   71.7770   12.6780 C.3   368  VAL368      0.1692
     50  C         63.7020   72.2180   11.2230 C.2   368  VAL368      0.2593
     51  O         64.5600   71.7060   10.4990 O.2   368  VAL368     -0.2718
     52  CB        64.6720   72.4230   13.5190 C.3   368  VAL368      0.0266
     53  CG1       64.6580   73.9410   13.3610 C.3   368  VAL368      0.0020
     54  CG2       64.5290   72.0250   14.9840 C.3   368  VAL368      0.0020
     55  N         62.8750   73.1560   10.7790 N.am  369  SER369     -0.1938
     56  CA        63.1370   73.7790    9.4880 C.3   369  SER369      0.2055
     57  C         62.9180   75.2820    9.6240 C.2   369  SER369      0.2642
     58  O         62.6720   75.7790   10.7280 O.2   369  SER369     -0.2714
     59  CB        62.2710   73.1630    8.3810 C.3   369  SER369      0.2130
     60  OG        62.6860   73.5820    7.0730 O.3   369  SER369     -0.2179
     61  N         63.0140   76.0010    8.5100 N.am  370  VAL370     -0.1977
     62  CA        62.9670   77.4560    8.5550 C.3   370  VAL370      0.1596
     63  C         62.1260   77.9990    7.4180 C.2   370  VAL370      0.2287
     64  O         62.0760   77.4280    6.3240 O.2   370  VAL370     -0.2864
     65  CB        64.3950   78.0650    8.5100 C.3   370  VAL370      0.0276
     66  CG1       64.9980   77.9000    7.1350 C.3   370  VAL370      0.0022
     67  CG2       64.3690   79.5360    8.9230 C.3   370  VAL370      0.0022
     68  N         63.5290   85.4380    9.1750 N.3   378  ARG378     -0.1245
     69  CA        63.5900   83.9880    9.3240 C.3   378  ARG378      0.1563
     70  C         62.8360   83.5150   10.5680 C.2   378  ARG378      0.2260
     71  O         62.9580   84.1020   11.6440 O.2   378  ARG378     -0.2867
     72  CB        65.0550   83.5250    9.3750 C.3   378  ARG378      0.0307
     73  CG        65.7340   83.5680    8.0110 C.3   378  ARG378      0.0489
     74  CD        67.2360   83.3000    8.0950 C.3   378  ARG378      0.2205
     75  NE        67.6670   82.3420    7.0750 N.pl3 378  ARG378     -0.0865
     76  CZ        67.9900   82.6540    5.8200 C.cat 378  ARG378      0.5346
     77  NH1       67.9460   83.9120    5.3900 N.pl3 378  ARG378      0.1354
     78  NH2       68.3600   81.6940    4.9870 N.pl3 378  ARG378      0.1354
     79  N         61.8590   79.7660   12.5870 N.3   380  TYR380     -0.1241
     80  CA        62.0550   78.3180   12.6930 C.3   380  TYR380      0.1605
     81  C         60.7970   77.6540   13.2380 C.2   380  TYR380      0.2264
     82  O         60.0330   78.2680   13.9800 O.2   380  TYR380     -0.2867
     83  CB        63.2510   78.0220   13.5950 C.3   380  TYR380      0.0534
     84  CG        64.5350   78.6150   13.0300 C.ar  380  TYR380     -0.0201
     85  CD1       65.3080   77.8940   12.1250 C.ar  380  TYR380     -0.0009
     86  CD2       64.9430   79.8960   13.3650 C.ar  380  TYR380     -0.0009
     87  CE1       66.4690   78.4210   11.5890 C.ar  380  TYR380      0.0417
     88  CE2       66.1120   80.4410   12.8250 C.ar  380  TYR380      0.0417
     89  CZ        66.8640   79.6910   11.9370 C.ar  380  TYR380      0.1957
     90  OH        68.0220   80.2040   11.3960 O.3   380  TYR380     -0.2866
     91  N         61.6790   75.7940    2.9070 N.3   476  THR476     -0.1218
     92  CA        62.9290   75.2970    2.3170 C.3   476  THR476      0.1862
     93  C         62.7280   74.3040    1.1690 C.2   476  THR476      0.2287
     94  O         61.6960   73.6320    1.0750 O.2   476  THR476     -0.2866
     95  CB        63.8330   74.6100    3.3580 C.3   476  THR476      0.1770
     96  OG1       63.2340   73.3880    3.7990 O.3   476  THR476     -0.2211
     97  CG2       64.0990   75.5330    4.5630 C.3   476  THR476      0.0375
@<TRIPOS>BOND
     1    94    93    2
     2    93    92    1
     3    92    91    1
     4    92    95    1
     5    95    96    1
     6    95    97    1
     7    78    76    1
     8    46    45   ar
     9    77    76    1
    10    47    45   ar
    11    76    75    2
    12    30    28   ar
    13    45    44    1
    14    64    63    2
    15    60    59    1
    16    75    74    1
    17    66    65    1
    18    28    27    1
    19    28    29   ar
    20    44    43    1
    21    63    62    1
    22    27    24    1
    23    43    40    1
    24    73    74    1
    25    73    72    1
    26    59    56    1
    27    61    62    1
    28    61    57   am
    29    65    62    1
    30    65    67    1
    31    42    41    2
    32    41    40    1
    33    24    23    1
    34    24    25    1
    35    68    69    1
    36    40    39    1
    37    69    72    1
    38    69    70    1
    39    56    57    1
    40    56    55    1
    41    57    58    2
    42    39    33   am
    43    26    25    2
    44    25    31   am
    45    51    50    2
    46    70    71    2
    47    31    32    1
    48    55    50   am
    49    33    32    1
    50    33    34    2
    51    50    49    1
    52    90    89    1
    53    87    89   ar
    54    87    85   ar
    55    32    35    1
    56    89    88   ar
    57    85    84   ar
    58    79    80    1
    59    35    36    1
    60    49    48    1
    61    49    52    1
    62    80    81    1
    63    80    83    1
    64    88    86   ar
    65    20    22   ar
    66    20    18   ar
    67    84    86   ar
    68    84    83    1
    69    81    82    2
    70    17    18   ar
    71    17    15   ar
    72    53    52    1
    73    52    54    1
    74    22    21   ar
    75    18    16   ar
    76    36    38    1
    77    36    37    1
    78    15    14   ar
    79    21    19   ar
    80    16    14   ar
    81    16    19   ar
    82     8     6    1
    83    14    13    1
    84     7     6    1
    85     6     5    1
    86    13    10    1
    87     5     2    1
    88    12    11    2
    89    10    11    1
    90    10     9    1
    91     2     1    1
    92     2     3    1
    93     4     3    2
