@<TRIPOS>MOLECULE
tmp/2xwhA03.pdb
 75 68 0 0 0
SMALL
GASTEIGER

@<TRIPOS>ATOM
      1  N         38.7560   55.2400   27.2670 N.3    96  SER96      -0.1202
      2  CA        39.6960   54.2670   27.8270 C.3    96  SER96       0.2020
      3  C         39.0640   52.8690   27.8350 C.2    96  SER96       0.2618
      4  O         37.8710   52.7280   28.0810 O.2    96  SER96      -0.2717
      5  CB        40.0900   54.6790   29.2510 C.3    96  SER96       0.2103
      6  OG        41.2120   53.9490   29.7190 O.3    96  SER96      -0.2182
      7  N         39.8640   51.8410   27.5640 N.am   97  ALA97      -0.1979
      8  CA        39.3470   50.4810   27.4450 C.3    97  ALA97       0.1597
      9  C         38.5920   50.0780   28.7090 C.2    97  ALA97       0.2287
     10  O         39.1060   50.2230   29.8120 O.2    97  ALA97      -0.2864
     11  CB        40.4750   49.5130   27.1620 C.3    97  ALA97       0.0319
     12  N         47.2780   42.9120   22.9290 N.3   139  MET139     -0.1245
     13  CA        46.5140   43.1710   21.7170 C.3   139  MET139      0.1570
     14  C         47.4620   43.6480   20.6320 C.2   139  MET139      0.2261
     15  O         48.5030   44.2330   20.9300 O.2   139  MET139     -0.2867
     16  CB        45.4790   44.2690   21.9640 C.3   139  MET139      0.0387
     17  CG        44.4560   43.9350   23.0190 C.3   139  MET139      0.0595
     18  SD        43.3080   42.6830   22.4200 S.3   139  MET139     -0.1393
     19  CE        42.3570   43.6210   21.2300 C.3   139  MET139      0.0692
     20  N         48.0790   46.4220   18.0200 N.3   141  LYS141     -0.1245
     21  CA        47.6440   47.7870   17.7180 C.3   141  LYS141      0.1561
     22  C         47.1780   47.8920   16.2750 C.2   141  LYS141      0.2260
     23  O         47.8090   47.3470   15.3830 O.2   141  LYS141     -0.2867
     24  CB        48.7830   48.7740   17.9510 C.3   141  LYS141      0.0271
     25  CG        49.1320   48.9720   19.4200 C.3   141  LYS141      0.0035
     26  CD        50.1420   50.1020   19.6120 C.3   141  LYS141      0.0206
     27  CE        49.5990   51.4220   19.0930 C.3   141  LYS141      0.1093
     28  NZ        48.3770   51.8590   19.8270 N.3   141  LYS141     -0.1314
     29  N         50.4220   45.8910   22.2370 N.3   158  ILE158     -0.1245
     30  CA        50.1710   46.6750   23.4360 C.3   158  ILE158      0.1561
     31  C         49.8410   45.7040   24.5630 C.2   158  ILE158      0.2260
     32  O         49.0210   44.8100   24.3940 O.2   158  ILE158     -0.2867
     33  CB        49.0230   47.6890   23.2440 C.3   158  ILE158      0.0252
     34  CG1       48.9040   48.6240   24.4560 C.3   158  ILE158      0.0019
     35  CG2       47.7090   46.9790   23.0270 C.3   158  ILE158      0.0019
     36  CD1       50.0310   49.6190   24.5780 C.3   158  ILE158      0.0001
     37  N         48.6810   45.6990   28.5380 N.3   160  TYR160     -0.1241
     38  CA        48.1190   46.5860   29.5530 C.3   160  TYR160      0.1605
     39  C         47.2560   45.8660   30.5890 C.2   160  TYR160      0.2264
     40  O         46.6310   44.8450   30.2990 O.2   160  TYR160     -0.2867
     41  CB        47.2570   47.6660   28.8900 C.3   160  TYR160      0.0534
     42  CG        46.0860   47.1040   28.1160 C.ar  160  TYR160     -0.0201
     43  CD1       46.2490   46.6620   26.8090 C.ar  160  TYR160     -0.0009
     44  CD2       44.8180   47.0170   28.6860 C.ar  160  TYR160     -0.0009
     45  CE1       45.1970   46.1450   26.0930 C.ar  160  TYR160      0.0417
     46  CE2       43.7500   46.4960   27.9740 C.ar  160  TYR160      0.0417
     47  CZ        43.9500   46.0640   26.6720 C.ar  160  TYR160      0.1957
     48  OH        42.9100   45.5430   25.9360 O.3   160  TYR160     -0.2866
     49  N         44.7900   50.6940   36.1740 N.3   166  ARG166     -0.1245
     50  CA        45.3180   51.9060   35.5460 C.3   166  ARG166      0.1563
     51  C         44.9610   53.1380   36.3740 C.2   166  ARG166      0.2260
     52  O         45.7770   54.0350   36.5430 O.2   166  ARG166     -0.2867
     53  CB        44.8050   52.0530   34.1020 C.3   166  ARG166      0.0307
     54  CG        45.0750   50.8210   33.2500 C.3   166  ARG166      0.0489
     55  CD        45.0820   51.1690   31.7590 C.3   166  ARG166      0.2205
     56  NE        43.7770   51.6070   31.2670 N.pl3 166  ARG166     -0.0865
     57  CZ        42.7980   50.7910   30.8730 C.cat 166  ARG166      0.5346
     58  NH1       42.9480   49.4750   30.9450 N.pl3 166  ARG166      0.1354
     59  NH2       41.6580   51.2930   30.4060 N.pl3 166  ARG166      0.1354
     60  N         51.7800   49.3080   27.8020 N.3   281  GLY281     -0.1225
     61  CA        50.5690   50.0170   28.1690 C.3   281  GLY281      0.1811
     62  C         50.3710   50.3150   29.6460 C.2   281  GLY281      0.2280
     63  O         49.2550   50.1880   30.1620 O.2   281  GLY281     -0.2866
     64  N         50.0960   57.9020   27.3660 N.3   556  GLY556     -0.1210
     65  CA        49.4690   56.9360   28.2340 C.3   556  GLY556      0.1956
     66  C         47.9760   57.1560   28.3150 C.2   556  GLY556      0.2611
     67  O         47.3910   57.8930   27.5170 O.2   556  GLY556     -0.2717
     68  N         47.3710   56.4930   29.2900 N.am  557  ASP557     -0.1973
     69  CA        45.9430   56.5430   29.5320 C.3   557  ASP557      0.1709
     70  C         45.6330   57.8430   30.2800 C.2   557  ASP557      0.2293
     71  O         45.1110   57.8070   31.3880 O.2   557  ASP557     -0.2864
     72  CB        45.5730   55.3160   30.3850 C.3   557  ASP557      0.1436
     73  CG        44.0920   55.0060   30.3750 C.2   557  ASP557      0.3671
     74  OD1       43.4200   55.3140   29.3720 O.co2 557  ASP557     -0.2456
     75  OD2       43.6020   54.4410   31.3780 O.co2 557  ASP557     -0.2456
@<TRIPOS>BOND
     1    23    22    2
     2    22    21    1
     3    21    24    1
     4    21    20    1
     5    24    25    1
     6    27    26    1
     7    27    28    1
     8    25    26    1
     9    14    15    2
    10    14    13    1
    11    19    18    1
    12    13    16    1
    13    13    12    1
    14    16    17    1
    15    29    30    1
    16    18    17    1
    17    35    33    1
    18    33    30    1
    19    33    34    1
    20    30    31    1
    21    32    31    2
    22    34    36    1
    23    48    47    1
    24    45    47   ar
    25    45    43   ar
    26    47    46   ar
    27    43    42   ar
    28    11     8    1
    29     1     2    1
    30    64    65    1
    31     8     7    1
    32     8     9    1
    33    67    66    2
    34     7     3   am
    35    60    61    1
    36     2     3    1
    37     2     5    1
    38     3     4    2
    39    46    44   ar
    40    42    44   ar
    41    42    41    1
    42    61    62    1
    43    65    66    1
    44    66    68   am
    45    37    38    1
    46     9    10    2
    47    41    38    1
    48     5     6    1
    49    68    69    1
    50    74    73   ar
    51    69    70    1
    52    69    72    1
    53    38    39    1
    54    62    63    2
    55    70    71    2
    56    40    39    2
    57    73    72    1
    58    73    75   ar
    59    59    57    1
    60    57    58    1
    61    57    56    2
    62    56    55    1
    63    55    54    1
    64    54    53    1
    65    53    50    1
    66    50    49    1
    67    50    51    1
    68    51    52    2
