@<TRIPOS>MOLECULE
tmp/2xwlB00.pdb
 150 143 0 0 0
SMALL
GASTEIGER

@<TRIPOS>ATOM
      1  N        -21.9150   12.4150   42.9850 N.3     7  PRO7       -0.2102
      2  CA       -23.0040   13.0770   42.2670 C.3     7  PRO7        0.1504
      3  C        -23.4080   12.2140   41.0630 C.2     7  PRO7        0.2576
      4  O        -22.5650   11.8350   40.2350 O.2     7  PRO7       -0.2718
      5  CB       -22.4110   14.4390   41.8660 C.3     7  PRO7        0.0282
      6  CG       -20.9440   14.2860   41.9630 C.3     7  PRO7        0.0208
      7  CD       -20.6200   13.1010   42.8190 C.3     7  PRO7        0.0893
      8  N        -24.6820   11.8320   41.0230 N.am    8  ALA8       -0.1966
      9  CA       -25.1840   10.9390   39.9890 C.3     8  ALA8        0.1728
     10  C        -26.5560   11.4060   39.5360 C.2     8  ALA8        0.2616
     11  O        -27.3880   10.6080   39.0950 O.2     8  ALA8       -0.2715
     12  CB       -25.2430    9.5030   40.5110 C.3     8  ALA8        0.0334
     13  N        -26.7830   12.7090   39.6480 N.am    9  ALA9       -0.1963
     14  CA       -28.0970   13.2850   39.3970 C.3     9  ALA9        0.1728
     15  C        -28.2390   13.9020   38.0030 C.2     9  ALA9        0.2617
     16  O        -29.2410   14.5500   37.7130 O.2     9  ALA9       -0.2715
     17  CB       -28.4350   14.2970   40.4830 C.3     9  ALA9        0.0334
     18  N        -27.2440   13.6890   37.1410 N.am   10  GLY10      -0.1940
     19  CA       -27.2670   14.2220   35.7760 C.3    10  GLY10       0.2014
     20  C        -28.0910   13.4240   34.7770 C.2    10  GLY10       0.2640
     21  O        -28.3780   12.2410   34.9890 O.2    10  GLY10      -0.2714
     22  N        -28.4540   14.0760   33.6750 N.am   11  SER11      -0.1935
     23  CA       -29.3370   13.4730   32.6730 C.3    11  SER11       0.2055
     24  C        -28.5940   12.7360   31.5550 C.2    11  SER11       0.2644
     25  O        -29.2080   11.9690   30.8040 O.2    11  SER11      -0.2714
     26  CB       -30.2570   14.5370   32.0710 C.3    11  SER11       0.2130
     27  OG       -29.5040   15.5230   31.3900 O.3    11  SER11      -0.2179
     28  N        -27.2870   12.9790   31.4400 N.am   12  GLY12      -0.1939
     29  CA       -26.4690   12.3640   30.3930 C.3    12  GLY12       0.2014
     30  C        -26.8770   12.7560   28.9840 C.2    12  GLY12       0.2639
     31  O        -27.0660   11.8890   28.1260 O.2    12  GLY12      -0.2714
     32  N        -27.0180   14.0610   28.7530 N.am   13  GLU13      -0.1963
     33  CA       -27.3720   14.6120   27.4390 C.3    13  GLU13       0.1733
     34  C        -26.4130   14.1970   26.3180 C.2    13  GLU13       0.2616
     35  O        -26.8470   13.9360   25.1940 O.2    13  GLU13      -0.2715
     36  CB       -27.4490   16.1450   27.4980 C.3    13  GLU13       0.0429
     37  CG       -28.4660   16.7090   28.4900 C.3    13  GLU13       0.1163
     38  CD       -29.9080   16.4910   28.0630 C.2    13  GLU13       0.3649
     39  OE1      -30.2800   16.9170   26.9460 O.co2  13  GLU13      -0.2457
     40  OE2      -30.6730   15.9040   28.8580 O.co2  13  GLU13      -0.2457
     41  N        -25.1160   14.1440   26.6190 N.am   14  ARG14      -0.1963
     42  CA       -24.1120   13.8290   25.5990 C.3    14  ARG14       0.1729
     43  C        -23.9450   12.3300   25.3480 C.2    14  ARG14       0.2616
     44  O        -23.3020   11.9300   24.3700 O.2    14  ARG14      -0.2715
     45  CB       -22.7670   14.4870   25.9240 C.3    14  ARG14       0.0348
     46  CG       -22.7760   16.0110   25.8050 C.3    14  ARG14       0.0492
     47  CD       -21.5310   16.6140   26.4320 C.3    14  ARG14       0.2205
     48  NE       -21.4660   16.3290   27.8650 N.pl3  14  ARG14      -0.0865
     49  CZ       -20.3940   16.5180   28.6280 C.cat  14  ARG14       0.5346
     50  NH1      -19.2660   16.9880   28.1020 N.pl3  14  ARG14       0.1354
     51  NH2      -20.4520   16.2230   29.9230 N.pl3  14  ARG14       0.1354
     52  N        -24.5230   11.5090   26.2260 N.am   15  LEU15      -0.1977
     53  CA       -24.5520   10.0560   26.0280 C.3    15  LEU15       0.1596
     54  C        -25.6690    9.6660   25.0580 C.2    15  LEU15       0.2287
     55  O        -25.6160    8.6000   24.4360 O.2    15  LEU15      -0.2864
     56  CB       -24.7040    9.3170   27.3670 C.3    15  LEU15       0.0297
     57  CG       -24.3950    7.8130   27.4120 C.3    15  LEU15       0.0022
     58  CD1      -22.9130    7.5250   27.1620 C.3    15  LEU15       0.0001
     59  CD2      -24.8250    7.2150   28.7390 C.3    15  LEU15       0.0001
     60  N        -27.4970    9.0990   32.8780 N.3    21  LYS21      -0.1231
     61  CA       -26.2800    8.3590   32.5300 C.3    21  LYS21       0.1693
     62  C        -25.8020    7.3480   33.5750 C.2    21  LYS21       0.2591
     63  O        -25.3280    6.2710   33.2180 O.2    21  LYS21      -0.2718
     64  CB       -25.1470    9.3310   32.1870 C.3    21  LYS21       0.0285
     65  CG       -23.7620    8.6720   32.0800 C.3    21  LYS21       0.0035
     66  CD       -22.7610    9.5450   31.3450 C.3    21  LYS21       0.0206
     67  CE       -22.3850   10.7790   32.1620 C.3    21  LYS21       0.1093
     68  NZ       -21.2910   11.5510   31.5050 N.3    21  LYS21      -0.1314
     69  N        -25.9230    7.6930   34.8540 N.am   22  ALA22      -0.1980
     70  CA       -25.4180    6.8320   35.9250 C.3    22  ALA22       0.1597
     71  C        -26.1980    5.5230   36.0310 C.2    22  ALA22       0.2287
     72  O        -25.7700    4.5900   36.7110 O.2    22  ALA22      -0.2864
     73  CB       -25.4280    7.5780   37.2530 C.3    22  ALA22       0.0319
     74  N        -29.4960   17.9230   42.6630 N.3    75  GLY75      -0.1210
     75  CA       -29.9260   19.2550   42.2350 C.3    75  GLY75       0.1956
     76  C        -29.9440   19.4540   40.7390 C.2    75  GLY75       0.2612
     77  O        -29.7390   18.5050   39.9760 O.2    75  GLY75      -0.2717
     78  N        -30.1860   20.6970   40.3200 N.am   76  VAL76      -0.1965
     79  CA       -30.2660   21.0510   38.8990 C.3    76  VAL76       0.1727
     80  C        -28.9090   21.0180   38.1870 C.2    76  VAL76       0.2616
     81  O        -28.8490   20.8780   36.9630 O.2    76  VAL76      -0.2715
     82  CB       -30.9460   22.4260   38.6880 C.3    76  VAL76       0.0290
     83  CG1      -30.1660   23.5290   39.3920 C.3    76  VAL76       0.0023
     84  CG2      -31.0930   22.7260   37.2010 C.3    76  VAL76       0.0023
     85  N        -27.8300   21.1470   38.9570 N.am   77  ASP77      -0.1957
     86  CA       -26.4700   21.0450   38.4300 C.3    77  ASP77       0.1840
     87  C        -25.6010   20.2850   39.4360 C.2    77  ASP77       0.2621
     88  O        -26.0230   20.0620   40.5710 O.2    77  ASP77      -0.2715
     89  CB       -25.8960   22.4290   38.0880 C.3    77  ASP77       0.1450
     90  CG       -25.4800   23.2190   39.3120 C.2    77  ASP77       0.3671
     91  OD1      -26.2200   23.2380   40.3190 O.co2  77  ASP77      -0.2456
     92  OD2      -24.3970   23.8390   39.2530 O.co2  77  ASP77      -0.2456
     93  N        -24.4090   19.8800   39.0080 N.am   78  ARG78      -0.1977
     94  CA       -23.5260   19.0600   39.8360 C.3    78  ARG78       0.1597
     95  C        -23.2020   19.7090   41.1820 C.2    78  ARG78       0.2287
     96  O        -23.2090   19.0380   42.2240 O.2    78  ARG78      -0.2864
     97  CB       -22.2450   18.7330   39.0740 C.3    78  ARG78       0.0334
     98  CG       -21.3650   17.6800   39.7330 C.3    78  ARG78       0.0492
     99  CD       -20.0390   17.6210   39.0250 C.3    78  ARG78       0.2205
    100  NE       -19.0980   16.6620   39.5920 N.pl3  78  ARG78      -0.0865
    101  CZ       -18.3000   16.9060   40.6340 C.cat  78  ARG78       0.5346
    102  NH1      -18.3360   18.0770   41.2660 N.pl3  78  ARG78       0.1354
    103  NH2      -17.4630   15.9620   41.0420 N.pl3  78  ARG78       0.1354
    104  N        -25.9300   19.2480   43.5730 N.3    81  SER81      -0.1217
    105  CA       -25.9480   17.8110   43.9160 C.3    81  SER81       0.1889
    106  C        -24.8960   17.4860   44.9950 C.2    81  SER81       0.2288
    107  O        -25.1800   16.8050   45.9790 O.2    81  SER81      -0.2866
    108  CB       -25.7500   16.9470   42.6680 C.3    81  SER81       0.2089
    109  OG       -26.8610   17.0580   41.7690 O.3    81  SER81      -0.2183
    110  N        -17.0070   11.1120   40.4360 N.3    99  ASP99      -0.1225
    111  CA       -17.9760   11.0790   39.3440 C.3    99  ASP99       0.1805
    112  C        -18.3300    9.6330   38.9950 C.2    99  ASP99       0.2598
    113  O        -17.4440    8.8400   38.6670 O.2    99  ASP99      -0.2718
    114  CB       -17.4090   11.8050   38.1210 C.3    99  ASP99       0.1424
    115  CG       -17.6300   13.3240   38.1660 C.2    99  ASP99       0.3668
    116  OD1      -18.2680   13.8490   39.1150 O.co2  99  ASP99      -0.2456
    117  OD2      -17.1920   13.9920   37.2150 O.co2  99  ASP99      -0.2456
    118  N        -19.6200    9.3000   39.0820 N.am  100  ALA100     -0.1966
    119  CA       -20.1150    7.9740   38.7260 C.3   100  ALA100      0.1728
    120  C        -19.7300    7.5880   37.2960 C.2   100  ALA100      0.2616
    121  O        -19.5620    6.4060   37.0010 O.2   100  ALA100     -0.2715
    122  CB       -21.6410    7.9000   38.9240 C.3   100  ALA100      0.0334
    123  N        -19.5670    8.5880   36.4210 N.am  101  ALA101     -0.1977
    124  CA       -19.2440    8.3470   35.0240 C.3   101  ALA101      0.1597
    125  C        -17.8390    7.7520   34.8080 C.2   101  ALA101      0.2287
    126  O        -17.5750    7.1740   33.7670 O.2   101  ALA101     -0.2864
    127  CB       -19.4040    9.6280   34.2080 C.3   101  ALA101      0.0319
    128  N        -17.5730   22.1430   37.9200 N.3   179  THR179     -0.1218
    129  CA       -17.6580   20.6810   38.0030 C.3   179  THR179      0.1862
    130  C        -16.3120   20.0220   38.3640 C.2   179  THR179      0.2287
    131  O        -16.1890   18.7870   38.3670 O.2   179  THR179     -0.2866
    132  CB       -18.3000   20.0620   36.7280 C.3   179  THR179      0.1770
    133  OG1      -17.6390   20.5510   35.5560 O.3   179  THR179     -0.2211
    134  CG2      -19.7860   20.4200   36.6380 C.3   179  THR179      0.0375
    135  N        -13.7380    9.3670   31.9740 N.3   203  LYS203     -0.1245
    136  CA       -15.1330    9.7070   32.1730 C.3   203  LYS203      0.1561
    137  C        -15.9350    9.2490   30.9680 C.2   203  LYS203      0.2260
    138  O        -15.6580    9.6570   29.8310 O.2   203  LYS203     -0.2867
    139  CB       -15.2960   11.2160   32.4180 C.3   203  LYS203      0.0271
    140  CG       -16.7280   11.6340   32.7690 C.3   203  LYS203      0.0035
    141  CD       -16.7870   13.0020   33.4500 C.3   203  LYS203      0.0206
    142  CE       -16.6150   14.1360   32.4670 C.3   203  LYS203      0.1093
    143  NZ       -17.9140   14.5270   31.8390 N.3   203  LYS203     -0.1314
    144  N        -18.7390    9.6190   28.6520 N.3   205  THR205     -0.1218
    145  CA       -19.5200   10.8050   28.2900 C.3   205  THR205      0.1862
    146  C        -20.3280   10.5710   27.0200 C.2   205  THR205      0.2287
    147  O        -21.5290   10.8800   26.9750 O.2   205  THR205     -0.2866
    148  CB       -18.6090   12.0520   28.1280 C.3   205  THR205      0.1770
    149  OG1      -17.9020   12.2900   29.3520 O.3   205  THR205     -0.2211
    150  CG2      -19.4210   13.2960   27.7760 C.3   205  THR205      0.0375
@<TRIPOS>BOND
     1    44    43    2
     2    55    54    2
     3    54    53    1
     4    35    34    2
     5    43    42    1
     6    43    52   am
     7    42    45    1
     8    42    41    1
     9    46    45    1
    10    46    47    1
    11    53    52    1
    12    53    56    1
    13    34    41   am
    14    34    33    1
    15    47    48    1
    16    39    38   ar
    17   147   146    2
    18   146   145    1
    19    58    57    1
    20    56    57    1
    21    57    59    1
    22    33    36    1
    23    33    32    1
    24    36    37    1
    25   150   148    1
    26    48    49    2
    27    38    37    1
    28    38    40   ar
    29    50    49    1
    30    31    30    2
    31   148   145    1
    32   148   149    1
    33   145   144    1
    34    49    51    1
    35    32    30   am
    36    30    29    1
    37   138   137    2
    38    29    28    1
    39    25    24    2
    40   137   136    1
    41    66    65    1
    42    66    67    1
    43    27    26    1
    44    28    24   am
    45    68    67    1
    46    24    23    1
    47   143   142    1
    48   135   136    1
    49    26    23    1
    50    65    64    1
    51   136   139    1
    52    64    61    1
    53   139   140    1
    54   142   141    1
    55    61    60    1
    56    61    62    1
    57    23    22    1
    58   140   141    1
    59    63    62    2
    60    62    69   am
    61    22    20   am
    62   126   125    2
    63   127   124    1
    64    20    21    2
    65    20    19    1
    66   125   124    1
    67    69    70    1
    68   124   123    1
    69   133   132    1
    70    19    18    1
    71    70    71    1
    72    70    73    1
    73    71    72    2
    74   123   120   am
    75   134   132    1
    76   132   129    1
    77    81    80    2
    78   121   120    2
    79    18    15   am
    80    84    82    1
    81   117   115   ar
    82   120   119    1
    83    16    15    2
    84   128   129    1
    85    15    14    1
    86   129   130    1
    87    89    86    1
    88    89    90    1
    89   114   115    1
    90   114   111    1
    91   115   116   ar
    92    80    79    1
    93    80    85   am
    94   130   131    2
    95    86    85    1
    96    86    87    1
    97   113   112    2
    98    82    79    1
    99    82    83    1
   100   119   122    1
   101   119   118    1
   102    79    78    1
   103   112   118   am
   104   112   111    1
   105    93    87   am
   106    93    94    1
   107    99   100    1
   108    99    98    1
   109    97    98    1
   110    97    94    1
   111    11    10    2
   112    92    90   ar
   113    90    91   ar
   114   111   110    1
   115    14    13    1
   116    14    17    1
   117    87    88    2
   118    10    13   am
   119    10     9    1
   120   100   101    2
   121    94    95    1
   122    77    76    2
   123     9    12    1
   124     9     8    1
   125     4     3    2
   126    78    76   am
   127   101   103    1
   128   101   102    1
   129    76    75    1
   130     8     3   am
   131     3     2    1
   132    95    96    2
   133   109   108    1
   134     5     6    1
   135     5     2    1
   136     6     7    1
   137    75    74    1
   138     2     1    1
   139   108   105    1
   140     7     1    1
   141   104   105    1
   142   105   106    1
   143   106   107    2
