@<TRIPOS>MOLECULE
tmp/2xwmB00.pdb
 126 121 0 0 0
SMALL
GASTEIGER

@<TRIPOS>ATOM
      1  N         -0.1090   11.3530  -42.1210 N.3     7  PRO7       -0.2102
      2  CA         0.9650   12.1090  -41.4670 C.3     7  PRO7        0.1504
      3  C          1.4340   11.4360  -40.1750 C.2     7  PRO7        0.2576
      4  O          0.7360   11.4630  -39.1580 O.2     7  PRO7       -0.2718
      5  CB         0.3260   13.4700  -41.1850 C.3     7  PRO7        0.0282
      6  CG        -1.1420   13.1760  -41.0560 C.3     7  PRO7        0.0208
      7  CD        -1.4340   11.9790  -41.9300 C.3     7  PRO7        0.0893
      8  N          2.6200   10.8360  -40.2300 N.am    8  ALA8       -0.1966
      9  CA         3.1720   10.0790  -39.1070 C.3     8  ALA8        0.1728
     10  C          4.6060   10.5230  -38.8540 C.2     8  ALA8        0.2616
     11  O          5.4940    9.6930  -38.6170 O.2     8  ALA8       -0.2715
     12  CB         3.1220    8.5810  -39.4170 C.3     8  ALA8        0.0334
     13  N          4.8300   11.8360  -38.9000 N.am    9  ALA9       -0.1963
     14  CA         6.2020   12.3540  -39.0030 C.3     9  ALA9        0.1728
     15  C          6.7670   13.0250  -37.7540 C.2     9  ALA9        0.2617
     16  O          7.9130   13.4840  -37.7580 O.2     9  ALA9       -0.2715
     17  CB         6.3400   13.2670  -40.2240 C.3     9  ALA9        0.0334
     18  N          5.9900   13.0600  -36.6770 N.am   10  GLY10      -0.1940
     19  CA         6.5030   13.6050  -35.4270 C.3    10  GLY10       0.2014
     20  C          5.4420   13.8110  -34.3720 C.2    10  GLY10       0.2640
     21  O          4.3690   13.2040  -34.4310 O.2    10  GLY10      -0.2714
     22  N          5.7540   14.6800  -33.4100 N.am   11  SER11      -0.1935
     23  CA         4.8610   14.9790  -32.2940 C.3    11  SER11       0.2055
     24  C          5.1810   16.3480  -31.7000 C.2    11  SER11       0.2644
     25  O          6.3530   16.7010  -31.5250 O.2    11  SER11      -0.2714
     26  CB         4.9800   13.9030  -31.2060 C.3    11  SER11       0.2130
     27  OG         4.0110   14.0980  -30.1910 O.3    11  SER11      -0.2179
     28  N          4.1320   17.1090  -31.3930 N.am   12  GLY12      -0.1939
     29  CA         4.2630   18.4020  -30.7240 C.3    12  GLY12       0.2014
     30  C          4.3550   18.2640  -29.2130 C.2    12  GLY12       0.2638
     31  O          4.6170   19.2430  -28.5010 O.2    12  GLY12      -0.2714
     32  N          4.1340   17.0440  -28.7230 N.am   13  GLU13      -0.1977
     33  CA         4.1970   16.7550  -27.2930 C.3    13  GLU13       0.1602
     34  C          5.6270   16.3640  -26.9160 C.2    13  GLU13       0.2287
     35  O          6.1390   15.3370  -27.3760 O.2    13  GLU13      -0.2864
     36  CB         3.2010   15.6470  -26.9280 C.3    13  GLU13       0.0415
     37  CG         1.7440   15.9930  -27.2810 C.3    13  GLU13       0.1163
     38  CD         0.7620   14.8500  -27.0380 C.2    13  GLU13       0.3649
     39  OE1        1.1330   13.8420  -26.3940 O.co2  13  GLU13      -0.2457
     40  OE2       -0.3980   14.9690  -27.4940 O.co2  13  GLU13      -0.2457
     41  N          6.5030    9.6570  -33.3250 N.3    20  PRO20      -0.2102
     42  CA         5.0760    9.8060  -33.6210 C.3    20  PRO20       0.1504
     43  C          4.2390    8.8380  -32.7900 C.2    20  PRO20       0.2576
     44  O          4.6930    7.7320  -32.4740 O.2    20  PRO20      -0.2718
     45  CB         4.9800    9.4490  -35.1110 C.3    20  PRO20       0.0282
     46  CG         6.3710    9.5820  -35.6350 C.3    20  PRO20       0.0208
     47  CD         7.2680    9.2150  -34.5010 C.3    20  PRO20       0.0893
     48  N          3.0300    9.2650  -32.4360 N.am   21  LYS21      -0.1966
     49  CA         2.0590    8.3930  -31.7870 C.3    21  LYS21       0.1728
     50  C          1.8010    7.1580  -32.6540 C.2    21  LYS21       0.2616
     51  O          1.4340    6.0970  -32.1450 O.2    21  LYS21      -0.2715
     52  CB         0.7540    9.1540  -31.5290 C.3    21  LYS21       0.0311
     53  CG         0.9050   10.3120  -30.5550 C.3    21  LYS21       0.0038
     54  CD        -0.2570   11.2910  -30.6200 C.3    21  LYS21       0.0206
     55  CE        -0.2460   12.2260  -29.4160 C.3    21  LYS21       0.1093
     56  NZ        -1.2730   13.3040  -29.5030 N.3    21  LYS21      -0.1314
     57  N          2.0230    7.3060  -33.9600 N.am   22  ALA22      -0.1977
     58  CA         1.7830    6.2400  -34.9380 C.3    22  ALA22       0.1597
     59  C          2.7230    5.0450  -34.7850 C.2    22  ALA22       0.2287
     60  O          2.4400    3.9570  -35.2970 O.2    22  ALA22      -0.2864
     61  CB         1.8910    6.7940  -36.3380 C.3    22  ALA22       0.0319
     62  N          7.3420   16.9150  -42.2990 N.3    75  GLY75      -0.1210
     63  CA         7.7240   18.2940  -42.0070 C.3    75  GLY75       0.1956
     64  C          7.8990   18.5690  -40.5300 C.2    75  GLY75       0.2612
     65  O          7.8620   17.6510  -39.7100 O.2    75  GLY75      -0.2717
     66  N          8.0830   19.8450  -40.1920 N.am   76  VAL76      -0.1965
     67  CA         8.2980   20.2730  -38.8060 C.3    76  VAL76       0.1727
     68  C          7.0060   20.2350  -37.9730 C.2    76  VAL76       0.2616
     69  O          7.0470   20.0810  -36.7470 O.2    76  VAL76      -0.2715
     70  CB         8.9760   21.6810  -38.7400 C.3    76  VAL76       0.0290
     71  CG1        8.0500   22.7810  -39.2870 C.3    76  VAL76       0.0023
     72  CG2        9.4420   22.0010  -37.3180 C.3    76  VAL76       0.0023
     73  N          5.8710   20.3730  -38.6510 N.am   77  ASP77      -0.1957
     74  CA         4.5620   20.2050  -38.0240 C.3    77  ASP77       0.1840
     75  C          3.6990   19.2690  -38.8650 C.2    77  ASP77       0.2621
     76  O          4.1390   18.8040  -39.9190 O.2    77  ASP77      -0.2715
     77  CB         3.8710   21.5620  -37.7910 C.3    77  ASP77       0.1450
     78  CG         3.8470   22.4470  -39.0340 C.2    77  ASP77       0.3671
     79  OD1        3.4440   21.9860  -40.1230 O.co2  77  ASP77      -0.2456
     80  OD2        4.2080   23.6360  -38.9060 O.co2  77  ASP77      -0.2456
     81  N          2.4890   18.9780  -38.3830 N.am   78  ARG78      -0.1977
     82  CA         1.5380   18.1450  -39.1120 C.3    78  ARG78       0.1597
     83  C          1.1620   18.7720  -40.4520 C.2    78  ARG78       0.2287
     84  O          1.0770   18.0750  -41.4560 O.2    78  ARG78      -0.2864
     85  CB         0.2760   17.8910  -38.2760 C.3    78  ARG78       0.0334
     86  CG        -0.7180   16.9340  -38.9400 C.3    78  ARG78       0.0492
     87  CD        -2.0020   16.7970  -38.1230 C.3    78  ARG78       0.2205
     88  NE        -2.9210   15.8140  -38.6970 N.pl3  78  ARG78      -0.0865
     89  CZ        -3.7280   16.0430  -39.7350 C.cat  78  ARG78       0.5346
     90  NH1       -3.7410   17.2260  -40.3330 N.pl3  78  ARG78       0.1354
     91  NH2       -4.5360   15.0850  -40.1730 N.pl3  78  ARG78       0.1354
     92  N          3.9040   18.1650  -42.9030 N.3    81  SER81      -0.1217
     93  CA         3.8850   16.7320  -43.2180 C.3    81  SER81       0.1889
     94  C          2.8060   16.3690  -44.2550 C.2    81  SER81       0.2288
     95  O          3.1060   15.6980  -45.2440 O.2    81  SER81      -0.2866
     96  CB         3.7560   15.9030  -41.9400 C.3    81  SER81       0.2089
     97  OG         4.9120   16.0620  -41.1250 O.3    81  SER81      -0.2183
     98  N         -5.4760    9.7310  -39.6330 N.3    99  ASP99      -0.1225
     99  CA        -4.6550    9.7230  -38.4400 C.3    99  ASP99       0.1805
    100  C         -4.3120    8.2730  -38.1150 C.2    99  ASP99       0.2597
    101  O         -5.2060    7.4710  -37.7860 O.2    99  ASP99      -0.2718
    102  CB        -5.4420   10.3600  -37.2890 C.3    99  ASP99       0.1424
    103  CG        -4.6400   10.4680  -36.0020 C.2    99  ASP99       0.3668
    104  OD1       -3.5600    9.8560  -35.9050 O.co2  99  ASP99      -0.2456
    105  OD2       -5.1130   11.1690  -35.0720 O.co2  99  ASP99      -0.2456
    106  N         -3.0250    7.9430  -38.1660 N.am  100  ALA100     -0.1979
    107  CA        -2.6190    6.5560  -37.9460 C.3   100  ALA100      0.1597
    108  C         -2.8120    6.0720  -36.5000 C.2   100  ALA100      0.2287
    109  O         -2.8020    4.8650  -36.2520 O.2   100  ALA100     -0.2864
    110  CB        -1.1890    6.3220  -38.4160 C.3   100  ALA100      0.0319
    111  N         -5.0310   20.0280  -36.5460 N.3   179  THR179     -0.1218
    112  CA        -5.1030   18.5640  -36.6000 C.3   179  THR179      0.1862
    113  C         -6.2920   18.1410  -37.4400 C.2   179  THR179      0.2287
    114  O         -6.3200   17.0230  -37.9630 O.2   179  THR179     -0.2866
    115  CB        -5.2330   17.9090  -35.2000 C.3   179  THR179      0.1770
    116  OG1       -6.3310   18.5000  -34.4840 O.3   179  THR179     -0.2211
    117  CG2       -3.9360   18.0600  -34.3950 C.3   179  THR179      0.0375
    118  N         -8.9340    7.6150  -31.3590 N.3   203  LYS203     -0.1245
    119  CA        -7.5230    7.9300  -31.4110 C.3   203  LYS203      0.1561
    120  C         -6.7800    7.3120  -30.2180 C.2   203  LYS203      0.2260
    121  O         -7.1590    7.5100  -29.0640 O.2   203  LYS203     -0.2867
    122  CB        -7.3730    9.4610  -31.4460 C.3   203  LYS203      0.0271
    123  CG        -5.9880    9.9960  -31.7780 C.3   203  LYS203      0.0035
    124  CD        -6.0840   11.4930  -32.1240 C.3   203  LYS203      0.0206
    125  CE        -6.0240   12.4040  -30.8990 C.3   203  LYS203      0.1093
    126  NZ        -4.6250   12.7720  -30.4890 N.3   203  LYS203     -0.1314
@<TRIPOS>BOND
     1    95    94    2
     2    94    93    1
     3    93    92    1
     4    93    96    1
     5    62    63    1
     6     1     7    1
     7     1     2    1
     8    63    64    1
     9    96    97    1
    10     7     6    1
    11     2     5    1
    12     2     3    1
    13    84    83    2
    14     5     6    1
    15    64    66   am
    16    64    65    2
    17    83    82    1
    18    90    89    1
    19     8     3   am
    20     8     9    1
    21    17    14    1
    22    66    67    1
    23     3     4    2
    24    91    89    1
    25    79    78   ar
    26    76    75    2
    27    89    88    2
    28    98    99    1
    29    12     9    1
    30    71    70    1
    31    82    81    1
    32    82    85    1
    33     9    10    1
    34    78    80   ar
    35    78    77    1
    36    14    13    1
    37    14    15    1
    38    86    85    1
    39    86    87    1
    40    13    10   am
    41    75    81   am
    42    75    74    1
    43    10    11    2
    44    67    70    1
    45    67    68    1
    46    70    72    1
    47    88    87    1
    48    73    74    1
    49    73    68   am
    50    99   100    1
    51    99   102    1
    52   110   107    1
    53   106   100   am
    54   106   107    1
    55   100   101    2
    56    74    77    1
    57    68    69    2
    58   114   113    2
    59   107   108    1
    60    16    15    2
    61    15    18   am
    62   113   112    1
    63   102   103    1
    64    18    19    1
    65   112   111    1
    66   112   115    1
    67   108   109    2
    68    61    58    1
    69   103   104   ar
    70   103   105   ar
    71    46    45    1
    72    46    47    1
    73    19    20    1
    74    60    59    2
    75   115   116    1
    76   115   117    1
    77    45    42    1
    78    58    59    1
    79    58    57    1
    80    47    41    1
    81    21    20    2
    82    20    22   am
    83    57    50   am
    84    42    41    1
    85    42    43    1
    86    22    23    1
    87    43    44    2
    88    43    48   am
    89    50    51    2
    90    50    49    1
    91    48    49    1
    92    23    24    1
    93    23    26    1
    94   124   123    1
    95   124   125    1
    96    49    52    1
    97   123   122    1
    98    24    25    2
    99    24    28   am
   100    52    53    1
   101   122   119    1
   102   119   118    1
   103   119   120    1
   104    28    29    1
   105    26    27    1
   106   125   126    1
   107    29    30    1
   108    54    53    1
   109    54    55    1
   110   120   121    2
   111    56    55    1
   112    30    32   am
   113    30    31    2
   114    32    33    1
   115    40    38   ar
   116    35    34    2
   117    33    36    1
   118    33    34    1
   119    37    38    1
   120    37    36    1
   121    38    39   ar
