@<TRIPOS>MOLECULE
tmp/2xwnB00.pdb
 150 143 0 0 0
SMALL
GASTEIGER

@<TRIPOS>ATOM
      1  N          7.5400    7.3840   45.9770 N.3     9  PRO9       -0.2102
      2  CA         6.3620    8.0150   45.3840 C.3     9  PRO9        0.1504
      3  C          5.5880    6.9930   44.5610 C.2     9  PRO9        0.2576
      4  O          6.1520    6.3510   43.6590 O.2     9  PRO9       -0.2718
      5  CB         6.9580    9.1080   44.4850 C.3     9  PRO9        0.0282
      6  CG         8.3480    9.3310   45.0160 C.3     9  PRO9        0.0208
      7  CD         8.7940    7.9900   45.4930 C.3     9  PRO9        0.0893
      8  N          4.3160    6.8200   44.9040 N.am   10  ALA10      -0.1966
      9  CA         3.4480    5.8590   44.2300 C.3    10  ALA10       0.1728
     10  C          2.0090    6.3670   44.2400 C.2    10  ALA10       0.2616
     11  O          1.0620    5.5810   44.1590 O.2    10  ALA10      -0.2715
     12  CB         3.5460    4.5020   44.8950 C.3    10  ALA10       0.0334
     13  N          1.8690    7.6920   44.3320 N.am   11  ALA11      -0.1963
     14  CA         0.5760    8.3690   44.3990 C.3    11  ALA11       0.1728
     15  C          0.0560    8.8490   43.0340 C.2    11  ALA11       0.2617
     16  O         -0.9570    9.5490   42.9550 O.2    11  ALA11      -0.2715
     17  CB         0.6550    9.5230   45.3710 C.3    11  ALA11       0.0334
     18  N          0.7450    8.4680   41.9640 N.am   12  GLY12      -0.1940
     19  CA         0.2740    8.7590   40.6150 C.3    12  GLY12       0.2014
     20  C         -0.8300    7.8090   40.1920 C.2    12  GLY12       0.2640
     21  O         -0.9650    6.7160   40.7480 O.2    12  GLY12      -0.2714
     22  N         -1.6160    8.2250   39.2010 N.am   13  SER13      -0.1935
     23  CA        -2.7120    7.4050   38.6800 C.3    13  SER13       0.2055
     24  C         -2.3510    6.6100   37.4180 C.2    13  SER13       0.2644
     25  O         -3.0980    5.7140   37.0200 O.2    13  SER13      -0.2714
     26  CB        -3.9590    8.2580   38.4280 C.3    13  SER13       0.2130
     27  OG        -3.7230    9.2190   37.4190 O.3    13  SER13      -0.2179
     28  N         -1.2200    6.9410   36.7950 N.am   14  GLY14      -0.1939
     29  CA        -0.7460    6.2230   35.6130 C.3    14  GLY14       0.2014
     30  C         -1.6430    6.3820   34.3970 C.2    14  GLY14       0.2639
     31  O         -2.1740    5.3970   33.8720 O.2    14  GLY14      -0.2714
     32  N         -1.8070    7.6310   33.9610 N.am   15  GLU15      -0.1963
     33  CA        -2.5810    7.9820   32.7640 C.3    15  GLU15       0.1733
     34  C         -2.1050    7.2480   31.5070 C.2    15  GLU15       0.2616
     35  O         -2.8940    6.5890   30.8260 O.2    15  GLU15      -0.2715
     36  CB        -2.4890    9.4890   32.5120 C.3    15  GLU15       0.0429
     37  CG        -3.2160   10.3610   33.5180 C.3    15  GLU15       0.1163
     38  CD        -4.4600   11.0170   32.9410 C.2    15  GLU15       0.3649
     39  OE1       -4.4480   11.3960   31.7490 O.co2  15  GLU15      -0.2457
     40  OE2       -5.4510   11.1620   33.6870 O.co2  15  GLU15      -0.2457
     41  N         -0.8090    7.3650   31.2190 N.am   16  ARG16      -0.1963
     42  CA        -0.2170    6.8730   29.9710 C.3    16  ARG16       0.1729
     43  C         -0.0920    5.3520   29.8870 C.2    16  ARG16       0.2616
     44  O          0.2460    4.8190   28.8290 O.2    16  ARG16      -0.2715
     45  CB         1.1610    7.5090   29.7480 C.3    16  ARG16       0.0348
     46  CG         1.1560    9.0260   29.5910 C.3    16  ARG16       0.0492
     47  CD         2.5500    9.5860   29.8060 C.3    16  ARG16       0.2205
     48  NE         2.9310    9.5280   31.2140 N.pl3  16  ARG16      -0.0865
     49  CZ         4.1740    9.6390   31.6710 C.cat  16  ARG16       0.5346
     50  NH1        5.1860    9.8130   30.8320 N.pl3  16  ARG16       0.1354
     51  NH2        4.4050    9.5700   32.9750 N.pl3  16  ARG16       0.1354
     52  N         -0.3460    4.6630   30.9980 N.am   17  LEU17      -0.1977
     53  CA        -0.3180    3.1980   31.0330 C.3    17  LEU17       0.1596
     54  C         -1.7170    2.6100   30.8320 C.2    17  LEU17       0.2287
     55  O         -1.8570    1.5090   30.3010 O.2    17  LEU17      -0.2864
     56  CB         0.3170    2.6920   32.3400 C.3    17  LEU17       0.0297
     57  CG         0.5050    1.1840   32.5720 C.3    17  LEU17       0.0022
     58  CD1        1.4120    0.5160   31.5350 C.3    17  LEU17       0.0001
     59  CD2        1.0100    0.9070   33.9770 C.3    17  LEU17       0.0001
     60  N         -1.3890    3.1140   38.5240 N.3    23  LYS23      -0.1231
     61  CA        -0.2140    2.3410   38.1040 C.3    23  LYS23       0.1693
     62  C          0.4880    1.5020   39.1770 C.2    23  LYS23       0.2591
     63  O          0.7300    0.3190   38.9670 O.2    23  LYS23      -0.2718
     64  CB         0.7920    3.2630   37.4080 C.3    23  LYS23       0.0285
     65  CG         2.1110    2.6020   37.0400 C.3    23  LYS23       0.0035
     66  CD         2.8340    3.3470   35.9290 C.3    23  LYS23       0.0206
     67  CE         3.4540    4.6560   36.3940 C.3    23  LYS23       0.1093
     68  NZ         4.3400    5.2210   35.3400 N.3    23  LYS23      -0.1314
     69  N          0.8140    2.1160   40.3120 N.am   24  ALA24      -0.1980
     70  CA         1.5590    1.4480   41.3760 C.3    24  ALA24       0.1597
     71  C          0.8880    0.1640   41.8630 C.2    24  ALA24       0.2287
     72  O          1.5620   -0.7970   42.2480 O.2    24  ALA24      -0.2864
     73  CB         1.7640    2.4030   42.5330 C.3    24  ALA24       0.0319
     74  N          0.1340   13.6810   47.0740 N.3    76  GLY76      -0.1210
     75  CA        -0.4500   14.9420   46.6100 C.3    76  GLY76       0.1956
     76  C         -0.8810   14.8550   45.1600 C.2    76  GLY76       0.2613
     77  O         -0.8970   13.7660   44.5800 O.2    76  GLY76      -0.2717
     78  N         -1.2170   16.0030   44.5700 N.am   77  SER77      -0.1938
     79  CA        -1.7480   16.0510   43.1990 C.3    77  SER77       0.2055
     80  C         -0.6740   16.0370   42.0970 C.2    77  SER77       0.2643
     81  O         -1.0000   15.9590   40.9130 O.2    77  SER77      -0.2714
     82  CB        -2.7090   17.2310   43.0310 C.3    77  SER77       0.2130
     83  OG        -2.1170   18.4300   43.4910 O.3    77  SER77      -0.2179
     84  N          0.5930   16.1400   42.4930 N.am   78  ASN78      -0.1957
     85  CA         1.7370   15.8990   41.5990 C.3    78  ASN78       0.1819
     86  C          2.8960   15.2580   42.3740 C.2    78  ASN78       0.2621
     87  O          2.8350   15.1400   43.6010 O.2    78  ASN78      -0.2715
     88  CB         2.1820   17.1780   40.8860 C.3    78  ASN78       0.1195
     89  CG         2.6850   18.2460   41.8480 C.2    78  ASN78       0.2630
     90  OD1        3.6360   18.0340   42.6030 O.2    78  ASN78      -0.2716
     91  ND2        2.0560   19.4110   41.8070 N.am   78  ASN78      -0.0877
     92  N          3.9430   14.8450   41.6670 N.am   79  ARG79      -0.1977
     93  CA         5.0260   14.0970   42.3070 C.3    79  ARG79       0.1597
     94  C          5.7580   14.9040   43.3720 C.2    79  ARG79       0.2287
     95  O          6.1670   14.3610   44.3980 O.2    79  ARG79      -0.2864
     96  CB         6.0230   13.5570   41.2840 C.3    79  ARG79       0.0334
     97  CG         6.8960   12.4510   41.8410 C.3    79  ARG79       0.0492
     98  CD         8.1030   12.2430   40.9770 C.3    79  ARG79       0.2205
     99  NE         9.0030   11.2150   41.5010 N.pl3  79  ARG79      -0.0865
    100  CZ        10.1040   11.4520   42.2160 C.cat  79  ARG79       0.5346
    101  NH1       10.4720   12.6890   42.5290 N.pl3  79  ARG79       0.1354
    102  NH2       10.8450   10.4370   42.6250 N.pl3  79  ARG79       0.1354
    103  N          3.7780   15.1090   46.6100 N.3    82  THR82      -0.1218
    104  CA         3.8780   13.7940   47.2150 C.3    82  THR82       0.1862
    105  C          5.1880   13.6380   47.9920 C.2    82  THR82       0.2287
    106  O          5.1830   13.2780   49.1680 O.2    82  THR82      -0.2866
    107  CB         3.7510   12.7080   46.1410 C.3    82  THR82       0.1770
    108  OG1        2.4420   12.7630   45.5640 O.3    82  THR82      -0.2211
    109  CG2        3.9710   11.3450   46.7310 C.3    82  THR82       0.0375
    110  N         11.0640    5.8720   42.5880 N.3   103  ASP103     -0.1225
    111  CA         9.8210    5.6930   41.8370 C.3   103  ASP103      0.1805
    112  C          9.3070    4.2550   41.9180 C.2   103  ASP103      0.2598
    113  O         10.0530    3.3130   41.6690 O.2   103  ASP103     -0.2718
    114  CB        10.0380    6.0640   40.3710 C.3   103  ASP103      0.1424
    115  CG        10.2190    7.5530   40.1570 C.2   103  ASP103      0.3668
    116  OD1        9.7260    8.3600   40.9820 O.co2 103  ASP103     -0.2456
    117  OD2       10.8540    7.9150   39.1370 O.co2 103  ASP103     -0.2456
    118  N          8.0310    4.0910   42.2630 N.am  104  ALA104     -0.1966
    119  CA         7.4060    2.7610   42.3240 C.3   104  ALA104      0.1728
    120  C          7.3800    2.1350   40.9430 C.2   104  ALA104      0.2616
    121  O          7.4900    0.9170   40.8050 O.2   104  ALA104     -0.2715
    122  CB         5.9970    2.8450   42.8830 C.3   104  ALA104      0.0334
    123  N          7.2380    2.9910   39.9300 N.am  105  ALA105     -0.1977
    124  CA         7.2660    2.5940   38.5260 C.3   105  ALA105      0.1597
    125  C          8.5450    1.8390   38.1390 C.2   105  ALA105      0.2287
    126  O          8.5090    0.9570   37.2850 O.2   105  ALA105     -0.2864
    127  CB         7.0620    3.8090   37.6260 C.3   105  ALA105      0.0319
    128  N          9.5190   15.8750   38.1920 N.3   187  THR187     -0.1218
    129  CA         9.6590   14.4730   38.5580 C.3   187  THR187      0.1862
    130  C         11.0290   14.1360   39.1450 C.2   187  THR187      0.2287
    131  O         11.1780   13.0740   39.7500 O.2   187  THR187     -0.2866
    132  CB         9.4510   13.5470   37.3310 C.3   187  THR187      0.1770
    133  OG1       10.2540   14.0160   36.2370 O.3   187  THR187     -0.2211
    134  CG2        7.9760   13.4950   36.9140 C.3   187  THR187      0.0375
    135  N         11.6550    2.9030   34.0560 N.3   211  LYS211     -0.1245
    136  CA        10.3740    3.3370   34.5740 C.3   211  LYS211      0.1561
    137  C          9.3000    2.6950   33.7310 C.2   211  LYS211      0.2260
    138  O          9.2870    2.8800   32.5150 O.2   211  LYS211     -0.2867
    139  CB        10.2870    4.8590   34.4570 C.3   211  LYS211      0.0271
    140  CG         9.2930    5.5280   35.3640 C.3   211  LYS211      0.0035
    141  CD         9.6880    6.9690   35.5900 C.3   211  LYS211      0.0206
    142  CE         9.2970    7.8620   34.4300 C.3   211  LYS211      0.1093
    143  NZ         7.8550    8.2610   34.4910 N.3   211  LYS211     -0.1314
    144  N          6.1460    2.9410   32.1580 N.3   213  THR213     -0.1218
    145  CA         5.3110    4.0920   31.8100 C.3   213  THR213      0.1862
    146  C          4.1730    3.7160   30.8680 C.2   213  THR213      0.2287
    147  O          3.0160    4.0280   31.1390 O.2   213  THR213     -0.2866
    148  CB         6.1500    5.2240   31.1830 C.3   213  THR213      0.1770
    149  OG1        7.2070    5.5900   32.0810 O.3   213  THR213     -0.2211
    150  CG2        5.2840    6.4420   30.8910 C.3   213  THR213      0.0375
@<TRIPOS>BOND
     1    44    43    2
     2    46    45    1
     3    46    47    1
     4    45    42    1
     5    47    48    1
     6    43    42    1
     7    43    52   am
     8    42    41    1
     9    55    54    2
    10    35    34    2
    11    50    49    1
    12    54    53    1
    13   146   147    2
    14   146   145    1
    15   150   148    1
    16    52    53    1
    17    53    56    1
    18   148   145    1
    19   148   149    1
    20    48    49    2
    21    41    34   am
    22    34    33    1
    23    58    57    1
    24    49    51    1
    25    39    38   ar
    26   145   144    1
    27    56    57    1
    28    36    33    1
    29    36    37    1
    30   138   137    2
    31    57    59    1
    32    33    32    1
    33    38    37    1
    34    38    40   ar
    35   137   136    1
    36    31    30    2
    37    32    30   am
    38   135   136    1
    39    30    29    1
    40   142   143    1
    41   142   141    1
    42   139   136    1
    43   139   140    1
    44    68    67    1
    45   140   141    1
    46    29    28    1
    47    66    67    1
    48    66    65    1
    49   133   132    1
    50    28    24   am
    51   134   132    1
    52    25    24    2
    53    65    64    1
    54   126   125    2
    55   132   129    1
    56    64    61    1
    57    24    23    1
    58    27    26    1
    59   127   124    1
    60    61    60    1
    61    61    62    1
    62   125   124    1
    63   128   129    1
    64    26    23    1
    65   124   123    1
    66   129   130    1
    67    23    22    1
    68    63    62    2
    69   117   115   ar
    70   130   131    2
    71    62    69   am
    72    22    20   am
    73   123   120   am
    74   115   114    1
    75   115   116   ar
    76    20    19    1
    77    20    21    2
    78    69    70    1
    79   114   111    1
    80    19    18    1
    81   121   120    2
    82    88    85    1
    83    88    89    1
    84    81    80    2
    85   120   119    1
    86    98    99    1
    87    98    97    1
    88    96    97    1
    89    96    93    1
    90    70    71    1
    91    70    73    1
    92    99   100    2
    93    85    86    1
    94    85    84    1
    95    92    93    1
    96    92    86   am
    97   113   112    2
    98    91    89   am
    99   111   112    1
   100   111   110    1
   101    89    90    2
   102    71    72    2
   103   112   118   am
   104    18    15   am
   105    80    84   am
   106    80    79    1
   107   100   101    1
   108   100   102    1
   109   118   119    1
   110    93    94    1
   111   119   122    1
   112    86    87    2
   113    16    15    2
   114    82    79    1
   115    82    83    1
   116    15    14    1
   117    79    78    1
   118    94    95    2
   119     4     3    2
   120    11    10    2
   121     9    10    1
   122     9    12    1
   123     9     8    1
   124    10    13   am
   125    13    14    1
   126    14    17    1
   127     5     6    1
   128     5     2    1
   129     3     8   am
   130     3     2    1
   131    78    76   am
   132    77    76    2
   133     6     7    1
   134    76    75    1
   135     2     1    1
   136     7     1    1
   137   108   107    1
   138   107   109    1
   139   107   104    1
   140   103   104    1
   141    75    74    1
   142   104   105    1
   143   105   106    2
