@<TRIPOS>MOLECULE
tmp/2xwqC00.pdb
 125 122 0 0 0
SMALL
GASTEIGER

@<TRIPOS>ATOM
      1  N         -1.6000  -16.5010    6.2740 N.3    11  HIS11      -0.1226
      2  CA        -1.2140  -17.8930    6.2110 C.3    11  HIS11       0.1752
      3  C         -2.0650  -18.8420    7.0460 C.2    11  HIS11       0.2597
      4  O         -2.8540  -19.5940    6.5080 O.2    11  HIS11      -0.2718
      5  CB         0.2380  -18.0850    6.6490 C.3    11  HIS11       0.0759
      6  CG         0.7030  -19.4960    6.4940 C.ar   11  HIS11       0.0818
      7  ND1        1.7730  -19.8430    5.7000 N.ar   11  HIS11      -0.2268
      8  CD2        0.2010  -20.6550    6.9770 C.ar   11  HIS11       0.1154
      9  CE1        1.9100  -21.1580    5.7000 C.ar   11  HIS11       0.1986
     10  NE2        0.9670  -21.6720    6.4660 N.ar   11  HIS11      -0.2212
     11  N         -1.8560  -18.8190    8.3650 N.am   12  GLY12      -0.1942
     12  CA        -1.8670  -20.0780    9.1800 C.3    12  GLY12       0.2014
     13  C         -3.2220  -20.0740    9.7470 C.2    12  GLY12       0.2640
     14  O         -3.9970  -19.1880    9.3460 O.2    12  GLY12      -0.2714
     15  N         -3.5540  -20.9800   10.6680 N.am   13  SER13      -0.1935
     16  CA        -2.7280  -22.0700   11.1610 C.3    13  SER13       0.2055
     17  C         -3.6680  -23.1420   11.7710 C.2    13  SER13       0.2642
     18  O         -4.8750  -22.9500   11.8130 O.2    13  SER13      -0.2714
     19  CB        -1.7130  -21.5570   12.1870 C.3    13  SER13       0.2130
     20  OG        -2.1160  -21.7610   13.5370 O.3    13  SER13      -0.2179
     21  N         -3.1180  -24.2760   12.2230 N.am   14  GLN14      -0.1976
     22  CA        -3.9160  -25.3230   12.8690 C.3    14  GLN14       0.1601
     23  C         -4.3200  -24.9830   14.2950 C.2    14  GLN14       0.2287
     24  O         -5.3100  -25.5110   14.8030 O.2    14  GLN14      -0.2864
     25  CB        -3.1640  -26.6440   12.8850 C.3    14  GLN14       0.0394
     26  CG        -3.0690  -27.3140   11.5230 C.3    14  GLN14       0.0908
     27  CD        -2.0500  -28.4250   11.5260 C.2    14  GLN14       0.2608
     28  OE1       -2.0510  -29.2740   12.4300 O.2    14  GLN14      -0.2717
     29  NE2       -1.1610  -28.4290   10.5190 N.am   14  GLN14      -0.0878
     30  N         -3.9170  -17.7580   15.0520 N.3    18  TYR18      -0.1241
     31  CA        -3.7140  -16.9940   13.8220 C.3    18  TYR18       0.1605
     32  C         -4.9740  -16.2470   13.3460 C.2    18  TYR18       0.2264
     33  O         -4.9570  -15.0050   13.0640 O.2    18  TYR18      -0.2867
     34  CB        -3.1500  -17.8870   12.7450 C.3    18  TYR18       0.0534
     35  CG        -2.4960  -17.1160   11.6330 C.ar   18  TYR18      -0.0201
     36  CD1       -3.2460  -16.3270   10.7630 C.ar   18  TYR18      -0.0009
     37  CD2       -1.1120  -17.1450   11.4650 C.ar   18  TYR18      -0.0009
     38  CE1       -2.6170  -15.5910    9.6840 C.ar   18  TYR18       0.0417
     39  CE2       -0.4910  -16.4300   10.4100 C.ar   18  TYR18       0.0417
     40  CZ        -1.2530  -15.6550    9.5400 C.ar   18  TYR18       0.1957
     41  OH        -0.6050  -14.9740    8.5190 O.3    18  TYR18      -0.2866
     42  N         -2.5790  -23.8760    2.7270 N.3    45  ARG45      -0.1245
     43  CA        -3.1160  -25.2170    2.9610 C.3    45  ARG45       0.1563
     44  C         -4.4860  -25.1890    2.3450 C.2    45  ARG45       0.2260
     45  O         -4.6660  -24.7660    1.2090 O.2    45  ARG45      -0.2867
     46  CB        -3.2210  -25.5140    4.4720 C.3    45  ARG45       0.0307
     47  CG        -1.9470  -25.9970    5.0950 C.3    45  ARG45       0.0489
     48  CD        -1.7080  -27.4800    4.8260 C.3    45  ARG45       0.2205
     49  NE        -0.3690  -27.6560    4.2720 N.pl3  45  ARG45      -0.0865
     50  CZ         0.4000  -28.7220    4.4600 C.cat  45  ARG45       0.5346
     51  NH1       -0.0280  -29.7290    5.2160 N.pl3  45  ARG45       0.1354
     52  NH2        1.6150  -28.7640    3.9080 N.pl3  45  ARG45       0.1354
     53  N         -7.4820  -23.2520    4.1770 N.3    47  ARG47      -0.1245
     54  CA        -8.2180  -22.5790    5.2230 C.3    47  ARG47       0.1563
     55  C         -9.2880  -21.7010    4.5480 C.2    47  ARG47       0.2260
     56  O         -9.0550  -21.1280    3.4770 O.2    47  ARG47      -0.2867
     57  CB        -7.2450  -21.8060    6.1320 C.3    47  ARG47       0.0307
     58  CG        -6.0520  -22.6710    6.5980 C.3    47  ARG47       0.0489
     59  CD        -4.9190  -21.8160    7.1660 C.3    47  ARG47       0.2205
     60  NE        -3.5710  -22.4110    7.0890 N.pl3  47  ARG47      -0.0865
     61  CZ        -3.1450  -23.4250    7.8390 C.cat  47  ARG47       0.5346
     62  NH1       -3.9390  -23.9990    8.7220 N.pl3  47  ARG47       0.1354
     63  NH2       -1.9230  -23.8720    7.6930 N.pl3  47  ARG47       0.1354
     64  N          2.0970  -11.2920    5.2190 N.3    69  PHE69      -0.1227
     65  CA         3.2270  -12.1600    5.0550 C.3    69  PHE69       0.1736
     66  C          4.4630  -11.3070    5.0730 C.2    69  PHE69       0.2595
     67  O          4.4270  -10.0960    4.7070 O.2    69  PHE69      -0.2718
     68  CB         3.1930  -12.8070    3.6700 C.3    69  PHE69       0.0547
     69  CG         2.1770  -13.9020    3.5090 C.ar   69  PHE69      -0.0202
     70  CD1        0.8170  -13.6060    3.2360 C.ar   69  PHE69      -0.0042
     71  CD2        2.5670  -15.2260    3.5750 C.ar   69  PHE69      -0.0042
     72  CE1       -0.1300  -14.6250    3.0510 C.ar   69  PHE69      -0.0003
     73  CE2        1.6230  -16.2570    3.3840 C.ar   69  PHE69      -0.0003
     74  CZ         0.2790  -15.9580    3.1230 C.ar   69  PHE69      -0.0000
     75  N          5.5660  -11.9930    5.3690 N.am   70  ILE70      -0.1966
     76  CA         6.8850  -11.4470    5.5800 C.3    70  ILE70       0.1727
     77  C          7.6160  -11.2220    4.2610 C.2    70  ILE70       0.2616
     78  O          8.3470  -10.2330    4.1360 O.2    70  ILE70      -0.2715
     79  CB         7.7360  -12.3640    6.5350 C.3    70  ILE70       0.0290
     80  CG1        7.0770  -12.5080    7.8960 C.3    70  ILE70       0.0022
     81  CG2        9.1700  -11.8990    6.6960 C.3    70  ILE70       0.0023
     82  CD1        6.6940  -11.1220    8.6080 C.3    70  ILE70       0.0001
     83  N          7.4010  -12.1150    3.2800 N.am   71  SER71      -0.1950
     84  CA         8.2640  -12.1440    2.0960 C.3    71  SER71       0.1924
     85  C          7.4840  -12.4180    0.7920 C.2    71  SER71       0.2314
     86  O          6.3580  -12.8930    0.8150 O.2    71  SER71      -0.2863
     87  CB         9.3420  -13.2250    2.3020 C.3    71  SER71       0.2116
     88  OG         8.7310  -14.5140    2.4140 O.3    71  SER71      -0.2180
     89  N          7.2560  -14.8470   -1.2420 N.3    73  GLY73      -0.1210
     90  CA         7.6530  -16.2480   -1.2380 C.3    73  GLY73       0.1956
     91  C          6.5680  -17.0210   -1.9540 C.2    73  GLY73       0.2612
     92  O          5.7970  -16.4360   -2.7020 O.2    73  GLY73      -0.2717
     93  N          6.4930  -18.3250   -1.7030 N.am   74  LEU74      -0.1965
     94  CA         5.5320  -19.1980   -2.3830 C.3    74  LEU74       0.1728
     95  C          4.1070  -18.7210   -2.3090 C.2    74  LEU74       0.2616
     96  O          3.4800  -18.4030   -3.3170 O.2    74  LEU74      -0.2715
     97  CB         5.6050  -20.6290   -1.8130 C.3    74  LEU74       0.0311
     98  CG         6.6940  -21.4480   -2.4770 C.3    74  LEU74       0.0022
     99  CD1        6.3360  -22.9430   -2.3000 C.3    74  LEU74       0.0001
    100  CD2        6.8280  -21.0380   -3.9750 C.3    74  LEU74       0.0001
    101  N          3.6070  -18.6610   -1.0870 N.am   75  HIS75      -0.1959
    102  CA         2.2460  -18.2420   -0.8520 C.3    75  HIS75       0.1787
    103  C          1.8970  -16.9380   -1.5680 C.2    75  HIS75       0.2620
    104  O          0.7700  -16.8010   -2.0400 O.2    75  HIS75      -0.2715
    105  CB         1.9700  -18.1430    0.6470 C.3    75  HIS75       0.0785
    106  CG         2.0230  -19.4630    1.3650 C.ar   75  HIS75       0.0821
    107  ND1        3.1950  -20.0010    1.8570 N.ar   75  HIS75      -0.2267
    108  CD2        1.0440  -20.3390    1.6950 C.ar   75  HIS75       0.1154
    109  CE1        2.9370  -21.1600    2.4380 C.ar   75  HIS75       0.1986
    110  NE2        1.6380  -21.3860    2.3550 N.ar   75  HIS75      -0.2212
    111  N          2.8460  -16.0110   -1.6930 N.am   76  VAL76      -0.1977
    112  CA         2.5260  -14.6800   -2.2160 C.3    76  VAL76       0.1596
    113  C          2.8040  -14.5230   -3.7150 C.2    76  VAL76       0.2287
    114  O          2.0190  -13.8930   -4.4390 O.2    76  VAL76      -0.2864
    115  CB         3.1890  -13.5160   -1.3650 C.3    76  VAL76       0.0276
    116  CG1        2.9020  -12.1210   -1.9720 C.3    76  VAL76       0.0022
    117  CG2        2.6990  -13.5800    0.0630 C.3    76  VAL76       0.0022
    118  N          0.4790  -18.7280   -4.8320 N.3    79  ASP79      -0.1239
    119  CA        -0.8350  -19.1540   -4.3370 C.3    79  ASP79       0.1674
    120  C         -1.8450  -18.0200   -4.2960 C.2    79  ASP79       0.2266
    121  O         -3.0020  -18.2170   -4.6850 O.2    79  ASP79      -0.2867
    122  CB        -0.7130  -19.8330   -2.9670 C.3    79  ASP79       0.1410
    123  CG         0.3070  -20.9320   -2.9770 C.2    79  ASP79       0.3668
    124  OD1        0.6260  -21.3900   -4.1030 O.co2  79  ASP79      -0.2456
    125  OD2        0.7920  -21.3370   -1.8940 O.co2  79  ASP79      -0.2456
@<TRIPOS>BOND
     1   118   119    1
     2   121   120    2
     3   114   113    2
     4   119   120    1
     5   119   122    1
     6   124   123   ar
     7   100    98    1
     8   113   112    1
     9    96    95    2
    10   123   122    1
    11   123   125   ar
    12    92    91    2
    13    98    99    1
    14    98    97    1
    15    94    95    1
    16    94    97    1
    17    94    93    1
    18    95   101   am
    19   112   111    1
    20   112   115    1
    21   104   103    2
    22   116   115    1
    23    91    93   am
    24    91    90    1
    25   111   103   am
    26   103   102    1
    27   115   117    1
    28    89    90    1
    29   101   102    1
    30   102   105    1
    31   105   106    1
    32    85    86    2
    33    85    84    1
    34    45    44    2
    35   106   108   ar
    36   106   107   ar
    37   108   110   ar
    38   107   109   ar
    39    84    87    1
    40    84    83    1
    41    87    88    1
    42    44    43    1
    43   110   109   ar
    44    42    43    1
    45    43    46    1
    46    72    74   ar
    47    72    70   ar
    48    74    73   ar
    49    70    69   ar
    50    83    77   am
    51    73    71   ar
    52    56    55    2
    53    69    71   ar
    54    69    68    1
    55    68    65    1
    56    52    50    1
    57    78    77    2
    58    53    54    1
    59    77    76    1
    60    49    50    2
    61    49    48    1
    62    50    51    1
    63    46    47    1
    64    55    54    1
    65    67    66    2
    66    48    47    1
    67    65    66    1
    68    65    64    1
    69    66    75   am
    70    54    57    1
    71    75    76    1
    72    76    79    1
    73     7     9   ar
    74     7     6   ar
    75     9    10   ar
    76    57    58    1
    77     2     1    1
    78     2     5    1
    79     2     3    1
    80    10     8   ar
    81     6     5    1
    82     6     8   ar
    83     4     3    2
    84    79    81    1
    85    79    80    1
    86    58    59    1
    87     3    11   am
    88    60    59    1
    89    60    61    2
    90    63    61    1
    91    61    62    1
    92    80    82    1
    93    11    12    1
    94    41    40    1
    95    12    13    1
    96    14    13    2
    97    40    38   ar
    98    40    39   ar
    99    38    36   ar
   100    13    15   am
   101    39    37   ar
   102    29    27   am
   103    15    16    1
   104    36    35   ar
   105    16    17    1
   106    16    19    1
   107    37    35   ar
   108    26    27    1
   109    26    25    1
   110    27    28    2
   111    35    34    1
   112    17    18    2
   113    17    21   am
   114    19    20    1
   115    21    22    1
   116    34    31    1
   117    22    25    1
   118    22    23    1
   119    33    32    2
   120    32    31    1
   121    31    30    1
   122    23    24    2
