@<TRIPOS>MOLECULE
tmp/2xwqB00.pdb
 130 128 0 0 0
SMALL
GASTEIGER

@<TRIPOS>ATOM
      1  N          8.4600   22.3940   24.6220 N.3    10  HIS10      -0.1226
      2  CA         8.1900   23.8470   24.6330 C.3    10  HIS10       0.1752
      3  C          7.5300   24.3050   25.9580 C.2    10  HIS10       0.2597
      4  O          7.8450   25.3780   26.4760 O.2    10  HIS10      -0.2718
      5  CB         7.3250   24.2640   23.4550 C.3    10  HIS10       0.0759
      6  CG         6.9910   25.7160   23.4500 C.ar   10  HIS10       0.0818
      7  ND1        7.4740   26.5850   22.4890 N.ar   10  HIS10      -0.2268
      8  CD2        6.2260   26.4620   24.2850 C.ar   10  HIS10       0.1154
      9  CE1        7.0600   27.8130   22.7680 C.ar   10  HIS10       0.1986
     10  NE2        6.3110   27.7680   23.8530 N.ar   10  HIS10      -0.2212
     11  N          6.6230   23.4930   26.4550 N.am   11  GLY11      -0.1942
     12  CA         5.7390   23.8660   27.5760 C.3    11  GLY11       0.2014
     13  C          4.6080   24.7860   27.1160 C.2    11  GLY11       0.2640
     14  O          4.5050   25.2280   25.9580 O.2    11  GLY11      -0.2714
     15  N          3.7620   25.1100   28.0670 N.am   12  SER12      -0.1935
     16  CA         2.5930   25.8800   27.7790 C.3    12  SER12       0.2055
     17  C          2.1260   26.4650   29.0680 C.2    12  SER12       0.2643
     18  O          2.3290   25.8850   30.1230 O.2    12  SER12      -0.2714
     19  CB         1.5130   24.9510   27.2290 C.3    12  SER12       0.2130
     20  OG         0.2770   25.5590   27.2210 O.3    12  SER12      -0.2179
     21  N          1.4660   27.6010   28.9620 N.am   13  GLN13      -0.1963
     22  CA         0.5880   28.0880   30.0230 C.3    13  GLN13       0.1733
     23  C         -0.4760   27.1300   30.5820 C.2    13  GLN13       0.2616
     24  O         -0.8190   27.1730   31.7830 O.2    13  GLN13      -0.2715
     25  CB        -0.1880   29.1870   29.3880 C.3    13  GLN13       0.0408
     26  CG        -0.3410   30.3400   30.2040 C.3    13  GLN13       0.0908
     27  CD         0.5260   31.3920   29.6840 C.2    13  GLN13       0.2608
     28  OE1        0.0720   32.4830   29.3760 O.2    13  GLN13      -0.2717
     29  NE2        1.7980   31.0790   29.5630 N.am   13  GLN13      -0.0878
     30  N         -1.0640   26.3390   29.6980 N.am   14  LEU14      -0.1977
     31  CA        -2.0230   25.3150   30.0790 C.3    14  LEU14       0.1596
     32  C         -1.2380   24.0540   30.4380 C.2    14  LEU14       0.2287
     33  O         -0.1730   23.7590   29.8310 O.2    14  LEU14      -0.2864
     34  CB        -3.0770   25.0460   28.9960 C.3    14  LEU14       0.0297
     35  CG        -3.8000   26.2830   28.3810 C.3    14  LEU14       0.0022
     36  CD1       -4.8930   25.8810   27.5450 C.3    14  LEU14       0.0001
     37  CD2       -4.3730   27.1550   29.5530 C.3    14  LEU14       0.0001
     38  N          0.3330   20.3860   28.3450 N.3    17  TYR17      -0.1241
     39  CA         1.6480   20.1500   27.6860 C.3    17  TYR17       0.1605
     40  C          2.6200   19.3540   28.5770 C.2    17  TYR17       0.2264
     41  O          3.2180   18.3420   28.1580 O.2    17  TYR17      -0.2867
     42  CB         2.3060   21.4630   27.1560 C.3    17  TYR17       0.0534
     43  CG         3.4450   21.2150   26.2380 C.ar   17  TYR17      -0.0201
     44  CD1        4.6180   20.6460   26.6730 C.ar   17  TYR17      -0.0009
     45  CD2        3.3460   21.5570   24.8910 C.ar   17  TYR17      -0.0009
     46  CE1        5.6500   20.3950   25.7680 C.ar   17  TYR17       0.0417
     47  CE2        4.3570   21.3640   24.0340 C.ar   17  TYR17       0.0417
     48  CZ         5.4950   20.7860   24.4410 C.ar   17  TYR17       0.1957
     49  OH         6.4960   20.5770   23.5150 O.3    17  TYR17      -0.2866
     50  N         12.0670   26.9240   26.2930 N.3    43  ALA43      -0.1231
     51  CA        11.3160   28.1680   25.9720 C.3    43  ALA43       0.1694
     52  C         10.9100   28.8400   27.2530 C.2    43  ALA43       0.2591
     53  O         10.6000   28.1500   28.2540 O.2    43  ALA43      -0.2718
     54  CB        10.0560   27.8660   25.1710 C.3    43  ALA43       0.0304
     55  N         10.8950   30.1800   27.2310 N.am   44  ARG44      -0.1980
     56  CA        10.2590   30.9530   28.3000 C.3    44  ARG44       0.1597
     57  C         10.8720   30.7750   29.6570 C.2    44  ARG44       0.2287
     58  O         10.2050   30.9390   30.6790 O.2    44  ARG44      -0.2864
     59  CB         8.7770   30.5660   28.4150 C.3    44  ARG44       0.0334
     60  CG         7.8120   31.5130   27.7990 C.3    44  ARG44       0.0492
     61  CD         7.4960   32.5130   28.8310 C.3    44  ARG44       0.2205
     62  NE         6.0550   32.6590   28.9920 N.pl3  44  ARG44      -0.0865
     63  CZ         5.3550   33.6570   28.4840 C.cat  44  ARG44       0.5346
     64  NH1        5.9570   34.5990   27.7530 N.pl3  44  ARG44       0.1354
     65  NH2        4.0510   33.6930   28.6870 N.pl3  44  ARG44       0.1354
     66  N         11.3300   28.1180   31.1280 N.3    46  ARG46      -0.1245
     67  CA        10.7550   26.9050   31.8060 C.3    46  ARG46       0.1563
     68  C         11.7940   25.9400   32.4190 C.2    46  ARG46       0.2260
     69  O         12.8920   25.7620   31.8970 O.2    46  ARG46      -0.2867
     70  CB         9.7700   26.1810   30.8630 C.3    46  ARG46       0.0307
     71  CG         8.4590   26.9500   30.6520 C.3    46  ARG46       0.0489
     72  CD         7.5420   26.3960   29.5020 C.3    46  ARG46       0.2205
     73  NE         6.3070   27.1710   29.5810 N.pl3  46  ARG46      -0.0865
     74  CZ         5.7790   27.8850   28.6220 C.cat  46  ARG46       0.5346
     75  NH1        6.2820   27.8190   27.3580 N.pl3  46  ARG46       0.1354
     76  NH2        4.6980   28.6310   28.9380 N.pl3  46  ARG46       0.1354
     77  N          9.5100   18.9440   19.0340 N.3    68  PHE68      -0.1227
     78  CA         9.2310   20.1620   18.3160 C.3    68  PHE68       0.1736
     79  C          9.0620   19.6000   16.9690 C.2    68  PHE68       0.2595
     80  O          9.6300   18.5560   16.6980 O.2    68  PHE68      -0.2718
     81  CB        10.3900   21.2200   18.3480 C.3    68  PHE68       0.0547
     82  CG        10.5570   21.9520   19.7060 C.ar   68  PHE68      -0.0202
     83  CD1       11.2750   21.3620   20.7650 C.ar   68  PHE68      -0.0042
     84  CD2        9.9920   23.1920   19.9010 C.ar   68  PHE68      -0.0042
     85  CE1       11.4090   21.9750   22.0090 C.ar   68  PHE68      -0.0003
     86  CE2       10.1270   23.8750   21.1600 C.ar   68  PHE68      -0.0003
     87  CZ        10.8270   23.2540   22.2350 C.ar   68  PHE68      -0.0000
     88  N          8.2460   20.2660   16.1680 N.am   69  ILE69      -0.1966
     89  CA         7.9690   19.9060   14.7360 C.3    69  ILE69       0.1727
     90  C          9.1360   20.2480   13.7860 C.2    69  ILE69       0.2616
     91  O          9.4400   19.5040   12.8390 O.2    69  ILE69      -0.2715
     92  CB         6.6610   20.6190   14.2270 C.3    69  ILE69       0.0290
     93  CG1        5.4420   20.2770   15.1040 C.3    69  ILE69       0.0022
     94  CG2        6.3640   20.4310   12.6140 C.3    69  ILE69       0.0023
     95  CD1        5.1300   18.7300   15.3320 C.3    69  ILE69       0.0001
     96  N          9.7590   21.4010   13.9480 N.am   70  SER70      -0.1950
     97  CA        10.6140   21.8700   12.8540 C.3    70  SER70       0.1924
     98  C         11.9600   22.4250   13.3530 C.2    70  SER70       0.2314
     99  O         12.1920   22.6890   14.5810 O.2    70  SER70      -0.2863
    100  CB         9.8650   22.8980   11.9710 C.3    70  SER70       0.2116
    101  OG        10.0420   24.2220   12.4730 O.3    70  SER70      -0.2180
    102  N         13.0670   25.4030   13.8100 N.3    72  GLY72      -0.1210
    103  CA        12.8400   26.8240   13.9960 C.3    72  GLY72       0.1956
    104  C         13.7570   27.4750   15.0020 C.2    72  GLY72       0.2612
    105  O         14.7490   26.9410   15.3940 O.2    72  GLY72      -0.2717
    106  N         13.3520   28.6330   15.4690 N.am   73  LEU73      -0.1965
    107  CA        14.1040   29.3400   16.4600 C.3    73  LEU73       0.1728
    108  C         14.3480   28.4940   17.7380 C.2    73  LEU73       0.2616
    109  O         15.4790   28.4570   18.2170 O.2    73  LEU73      -0.2715
    110  CB        13.3650   30.6430   16.7560 C.3    73  LEU73       0.0311
    111  CG        13.2550   31.6710   15.5920 C.3    73  LEU73       0.0022
    112  CD1       12.4830   32.8790   15.9310 C.3    73  LEU73       0.0001
    113  CD2       14.6400   32.1170   15.1650 C.3    73  LEU73       0.0001
    114  N         13.3110   27.8590   18.2970 N.am   74  HIS74      -0.1959
    115  CA        13.5180   27.0510   19.5310 C.3    74  HIS74       0.1787
    116  C         14.5650   25.9620   19.2820 C.2    74  HIS74       0.2620
    117  O         15.4160   25.7510   20.0780 O.2    74  HIS74      -0.2715
    118  CB        12.2010   26.4620   20.0770 C.3    74  HIS74       0.0785
    119  CG        11.2400   27.5000   20.6040 C.ar   74  HIS74       0.0821
    120  ND1       10.3480   28.1800   19.7930 N.ar   74  HIS74      -0.2267
    121  CD2       11.0230   27.9590   21.8710 C.ar   74  HIS74       0.1154
    122  CE1        9.6650   29.0390   20.5290 C.ar   74  HIS74       0.1986
    123  NE2       10.0560   28.9250   21.7940 N.ar   74  HIS74      -0.2212
    124  N         14.5290   25.2820   18.1410 N.am   75  VAL75      -0.1977
    125  CA        15.4420   24.1420   17.9200 C.3    75  VAL75       0.1596
    126  C         16.8830   24.5310   17.4520 C.2    75  VAL75       0.2287
    127  O         17.8830   24.0030   17.9580 O.2    75  VAL75      -0.2864
    128  CB        14.7830   23.0790   16.9470 C.3    75  VAL75       0.0276
    129  CG1       15.7500   21.9750   16.5870 C.3    75  VAL75       0.0022
    130  CG2       13.4540   22.4910   17.5620 C.3    75  VAL75       0.0022
@<TRIPOS>BOND
     1   100   101    1
     2   100    97    1
     3    94    92    1
     4    91    90    2
     5    97    98    1
     6    97    96    1
     7    98    99    2
     8    90    96   am
     9    90    89    1
    10   102   103    1
    11   103   104    1
    12    92    89    1
    13    92    93    1
    14    89    88    1
    15   104   105    2
    16   104   106   am
    17    93    95    1
    18   113   111    1
    19   106   107    1
    20   111   112    1
    21   111   110    1
    22    88    79   am
    23   107   110    1
    24   107   108    1
    25   129   128    1
    26    80    79    2
    27   128   130    1
    28   128   125    1
    29    79    78    1
    30   126   125    1
    31   126   127    2
    32   108   109    2
    33   108   114   am
    34   125   124    1
    35   124   116   am
    36   114   115    1
    37    78    81    1
    38    78    77    1
    39    81    82    1
    40   116   115    1
    41   116   117    2
    42   115   118    1
    43    82    84   ar
    44    82    83   ar
    45   120   122   ar
    46   120   119   ar
    47    84    86   ar
    48   118   119    1
    49   122   123   ar
    50   119   121   ar
    51    83    85   ar
    52    86    87   ar
    53   123   121   ar
    54    85    87   ar
    55     7     9   ar
    56     7     6   ar
    57     9    10   ar
    58     6     5    1
    59     6     8   ar
    60     5     2    1
    61    49    48    1
    62    10     8   ar
    63    47    48   ar
    64    47    45   ar
    65    48    46   ar
    66     1     2    1
    67     2     3    1
    68    45    43   ar
    69    54    51    1
    70    46    44   ar
    71     3    11   am
    72     3     4    2
    73    14    13    2
    74    51    50    1
    75    51    52    1
    76    43    44   ar
    77    43    42    1
    78    11    12    1
    79    13    12    1
    80    13    15   am
    81    42    39    1
    82    20    19    1
    83    19    16    1
    84    55    52   am
    85    55    56    1
    86    52    53    2
    87    75    74    1
    88    36    35    1
    89    39    38    1
    90    39    40    1
    91    64    63    1
    92    16    15    1
    93    16    17    1
    94    60    59    1
    95    60    61    1
    96    41    40    2
    97    56    59    1
    98    56    57    1
    99    35    34    1
   100    35    37    1
   101    63    65    1
   102    63    62    2
   103    74    76    1
   104    74    73    2
   105    61    62    1
   106    21    17   am
   107    21    22    1
   108    34    31    1
   109    17    18    2
   110    28    27    2
   111    25    22    1
   112    25    26    1
   113    72    73    1
   114    72    71    1
   115    29    27   am
   116    57    58    2
   117    27    26    1
   118    30    31    1
   119    30    23   am
   120    33    32    2
   121    22    23    1
   122    31    32    1
   123    23    24    2
   124    71    70    1
   125    70    67    1
   126    66    67    1
   127    67    68    1
   128    69    68    2
