@<TRIPOS>MOLECULE
tmp/2xwyA00.pdb
 133 129 0 0 0
SMALL
GASTEIGER

@<TRIPOS>ATOM
      1  N         16.8200   12.4070    8.5850 N.3    15  MET15      -0.1230
      2  CA        18.2570   12.6000    8.7480 C.3    15  MET15       0.1702
      3  C         18.5770   13.9290    9.4590 C.2    15  MET15       0.2592
      4  O         18.2190   14.1330   10.6310 O.2    15  MET15      -0.2718
      5  CB        18.9610   12.5170    7.3780 C.3    15  MET15       0.0401
      6  CG        19.0320   11.1070    6.7900 C.3    15  MET15       0.0596
      7  SD        19.7430    9.8930    7.9490 S.3    15  MET15      -0.1393
      8  CE        21.4980   10.2580    7.8530 C.3    15  MET15       0.0692
      9  N         19.2670   14.8170    8.7460 N.am   16  VAL16      -0.1980
     10  CA        19.5500   16.1580    9.2330 C.3    16  VAL16       0.1595
     11  C         18.3610   17.0590    8.9060 C.2    16  VAL16       0.2287
     12  O         17.7090   16.8650    7.8630 O.2    16  VAL16      -0.2864
     13  CB        20.8440   16.7380    8.5890 C.3    16  VAL16       0.0276
     14  CG1       22.0540   15.9880    9.0870 C.3    16  VAL16       0.0022
     15  CG2       20.7890   16.6920    7.0390 C.3    16  VAL16       0.0022
     16  N         27.7420   16.1470   14.4470 N.3   368  LEU368     -0.1231
     17  CA        27.9200   15.5880   13.1050 C.3   368  LEU368      0.1693
     18  C         26.8020   16.0120   12.1450 C.2   368  LEU368      0.2591
     19  O         27.0640   16.2750   10.9640 O.2   368  LEU368     -0.2718
     20  CB        28.0600   14.0570   13.1450 C.3   368  LEU368      0.0284
     21  CG        29.2100   13.5050   14.0010 C.3   368  LEU368      0.0019
     22  CD1       29.0400   12.0130   14.3090 C.3   368  LEU368      0.0001
     23  CD2       30.5840   13.7790   13.4060 C.3   368  LEU368      0.0001
     24  N         25.5720   16.0850   12.6620 N.am  369  ALA369     -0.1980
     25  CA        24.4040   16.4160   11.8520 C.3   369  ALA369      0.1597
     26  C         24.5150   17.8460   11.3330 C.2   369  ALA369      0.2287
     27  O         24.2720   18.1220   10.1420 O.2   369  ALA369     -0.2864
     28  CB        23.1220   16.2170   12.6490 C.3   369  ALA369      0.0319
     29  N         27.4420   19.5990   11.2570 N.3   371  ALA371     -0.1231
     30  CA        28.6000   19.5630   10.3750 C.3   371  ALA371      0.1694
     31  C         28.2370   19.0240    8.9820 C.2   371  ALA371      0.2591
     32  O         28.8390   19.4110    7.9790 O.2   371  ALA371     -0.2718
     33  CB        29.7050   18.7430   10.9920 C.3   371  ALA371      0.0304
     34  N         27.2530   18.1350    8.9140 N.am  372  ALA372     -0.1980
     35  CA        26.7990   17.6580    7.6250 C.3   372  ALA372      0.1597
     36  C         26.1140   18.8170    6.9310 C.2   372  ALA372      0.2287
     37  O         26.5770   19.2860    5.9020 O.2   372  ALA372     -0.2864
     38  CB        25.8570   16.5050    7.7860 C.3   372  ALA372      0.0319
     39  N         28.1610   21.4010    5.4510 N.3   375  THR375     -0.1218
     40  CA        29.0650   20.9720    4.3820 C.3   375  THR375      0.1862
     41  C         28.4990   21.3120    2.9930 C.2   375  THR375      0.2287
     42  O         29.2400   21.4530    2.0030 O.2   375  THR375     -0.2866
     43  CB        29.3940   19.4570    4.4910 C.3   375  THR375      0.1770
     44  OG1       30.7710   19.2430    4.1670 O.3   375  THR375     -0.2211
     45  CG2       28.4970   18.5770    3.5750 C.3   375  THR375      0.0375
     46  N         36.8360   12.4290   13.1540 N.3   400  ILE400     -0.1231
     47  CA        35.8550   12.7010   12.1170 C.3   400  ILE400      0.1692
     48  C         35.9070   14.1690   11.7050 C.2   400  ILE400      0.2591
     49  O         36.2730   14.4880   10.5620 O.2   400  ILE400     -0.2718
     50  CB        34.4150   12.2510   12.4960 C.3   400  ILE400      0.0266
     51  CG1       34.3740   10.7430   12.7880 C.3   400  ILE400      0.0019
     52  CG2       33.4340   12.5210   11.3520 C.3   400  ILE400      0.0020
     53  CD1       34.5450   10.3590   14.2580 C.3   400  ILE400      0.0001
     54  N         35.5680   15.0530   12.6500 N.am  401  LEU401     -0.1980
     55  CA        35.4000   16.4860   12.3910 C.3   401  LEU401      0.1596
     56  C         36.6480   17.1210   11.8250 C.2   401  LEU401      0.2287
     57  O         36.6420   17.5880   10.6770 O.2   401  LEU401     -0.2864
     58  CB        34.9670   17.2170   13.6500 C.3   401  LEU401      0.0297
     59  CG        33.4890   17.0660   14.0000 C.3   401  LEU401      0.0022
     60  CD1       33.0940   18.1740   14.9680 C.3   401  LEU401      0.0001
     61  CD2       32.5810   17.0570   12.7660 C.3   401  LEU401      0.0001
     62  N         37.6280   15.1910    8.1770 N.3   404  HIS404     -0.1226
     63  CA        36.7710   15.5870    7.0840 C.3   404  HIS404      0.1752
     64  C         37.0740   17.0150    6.6160 C.2   404  HIS404      0.2596
     65  O         37.3110   17.2650    5.4260 O.2   404  HIS404     -0.2718
     66  CB        35.3200   15.4990    7.5450 C.3   404  HIS404      0.0759
     67  CG        34.3300   15.4540    6.4270 C.ar  404  HIS404      0.0818
     68  ND1       34.3100   14.4420    5.4870 N.ar  404  HIS404     -0.2268
     69  CD2       33.3070   16.2840    6.1100 C.ar  404  HIS404      0.1154
     70  CE1       33.3240   14.6580    4.6340 C.ar  404  HIS404      0.1986
     71  NE2       32.6980   15.7680    4.9910 N.ar  404  HIS404     -0.2212
     72  N         37.0960   17.9520    7.5540 N.am  405  PHE405     -0.1976
     73  CA        37.0930   19.3490    7.1680 C.3   405  PHE405      0.1639
     74  C         38.4160   19.8790    6.5810 C.2   405  PHE405      0.2290
     75  O         38.4080   20.5010    5.5140 O.2   405  PHE405     -0.2864
     76  CB        36.5120   20.2140    8.2870 C.3   405  PHE405      0.0560
     77  CG        35.0090   20.0590    8.4530 C.ar  405  PHE405     -0.0200
     78  CD1       34.1390   20.3850    7.4110 C.ar  405  PHE405     -0.0042
     79  CD2       34.4620   19.6130    9.6470 C.ar  405  PHE405     -0.0042
     80  CE1       32.7620   20.2640    7.5550 C.ar  405  PHE405     -0.0003
     81  CE2       33.0840   19.4950    9.7910 C.ar  405  PHE405     -0.0003
     82  CZ        32.2400   19.8200    8.7410 C.ar  405  PHE405     -0.0000
     83  N         24.2970    7.1580   11.3810 N.3   468  LEU468     -0.1231
     84  CA        24.0980    8.3200   10.5140 C.3   468  LEU468      0.1693
     85  C         24.5400    8.1210    9.0810 C.2   468  LEU468      0.2593
     86  O         24.3040    8.9860    8.2390 O.2   468  LEU468     -0.2718
     87  CB        24.8090    9.5380   11.0900 C.3   468  LEU468      0.0284
     88  CG        24.2280   10.0460   12.4040 C.3   468  LEU468      0.0019
     89  CD1       25.1780   11.0120   13.0690 C.3   468  LEU468      0.0001
     90  CD2       22.8810   10.6790   12.1670 C.3   468  LEU468      0.0001
     91  N         25.1790    6.9900    8.8020 N.am  469  GLY469     -0.1942
     92  CA        25.5940    6.6670    7.4410 C.3   469  GLY469      0.2014
     93  C         27.0490    7.0000    7.1950 C.2   469  GLY469      0.2639
     94  O         27.5360    6.8910    6.0710 O.2   469  GLY469     -0.2714
     95  N         27.7580    7.3860    8.2500 N.am  470  VAL470     -0.1963
     96  CA        29.1410    7.8390    8.0830 C.3   470  VAL470      0.1712
     97  C         30.1460    6.7090    8.2960 C.2   470  VAL470      0.2458
     98  O         29.9760    5.9120    9.2100 O.2   470  VAL470     -0.2730
     99  CB        29.4740    9.1730    8.8960 C.3   470  VAL470      0.0289
    100  CG1       28.3110    9.6320    9.7510 C.3   470  VAL470      0.0023
    101  CG2       30.7520    9.0590    9.7080 C.3   470  VAL470      0.0023
    102  N         31.1890    6.6370    7.4420 N.am  471  PRO471     -0.2727
    103  CA        32.2310    5.6180    7.5270 C.3   471  PRO471      0.1402
    104  C         32.7120    5.3680    8.9560 C.2   471  PRO471      0.2269
    105  O         32.7800    6.3070    9.7350 O.2   471  PRO471     -0.2865
    106  CB        33.3850    6.2290    6.7160 C.3   471  PRO471      0.0296
    107  CG        32.7320    7.0450    5.7390 C.3   471  PRO471      0.0237
    108  CD        31.4930    7.6130    6.3880 C.3   471  PRO471      0.0939
    109  N         38.7310    6.7240    8.6980 N.3   476  TRP476     -0.1241
    110  CA        39.1930    8.0010    9.1590 C.3   476  TRP476      0.1605
    111  C         40.6570    8.0040    9.6080 C.2   476  TRP476      0.2264
    112  O         41.2960    9.0500    9.6030 O.2   476  TRP476     -0.2867
    113  CB        38.2680    8.4970   10.2640 C.3   476  TRP476      0.0550
    114  CG        36.8640    8.8120    9.7910 C.ar  476  TRP476      0.0003
    115  CD1       35.7380    8.0210    9.9680 C.ar  476  TRP476      0.0946
    116  CD2       36.4490   10.0170    9.0820 C.ar  476  TRP476      0.0152
    117  NE1       34.6440    8.6490    9.4140 N.ar  476  TRP476     -0.2442
    118  CE2       35.0550    9.8720    8.8560 C.ar  476  TRP476      0.0810
    119  CE3       37.1230   11.2010    8.6080 C.ar  476  TRP476      0.0012
    120  CZ2       34.3130   10.8750    8.1880 C.ar  476  TRP476      0.0191
    121  CZ3       36.3850   12.1950    7.9270 C.ar  476  TRP476      0.0001
    122  CH2       34.9930   12.0240    7.7310 C.ar  476  TRP476      0.0015
    123  N         42.2340    7.9230    5.8250 N.3   479  ARG479     -0.1245
    124  CA        42.0370    9.2510    5.2530 C.3   479  ARG479      0.1563
    125  C         42.9060   10.3050    5.9320 C.2   479  ARG479      0.2260
    126  O         43.5500   11.1090    5.2490 O.2   479  ARG479     -0.2867
    127  CB        40.5710    9.6730    5.3460 C.3   479  ARG479      0.0307
    128  CG        39.6330    9.0210    4.3370 C.3   479  ARG479      0.0489
    129  CD        38.2370    9.6170    4.4790 C.3   479  ARG479      0.2205
    130  NE        37.2710    8.9460    3.6150 N.pl3 479  ARG479     -0.0865
    131  CZ        35.9740    9.2580    3.5170 C.cat 479  ARG479      0.5346
    132  NH1       35.4470   10.2450    4.2400 N.pl3 479  ARG479      0.1354
    133  NH2       35.2000    8.5690    2.6820 N.pl3 479  ARG479      0.1354
@<TRIPOS>BOND
     1    42    41    2
     2   133   131    1
     3    41    40    1
     4   131   130    2
     5   131   132    1
     6    45    43    1
     7   130   129    1
     8    44    43    1
     9   128   129    1
    10   128   127    1
    11    40    43    1
    12    40    39    1
    13    70    71   ar
    14    70    68   ar
    15    71    69   ar
    16   126   125    2
    17   124   127    1
    18   124   123    1
    19   124   125    1
    20    65    64    2
    21    68    67   ar
    22    75    74    2
    23   107   108    1
    24   107   106    1
    25    37    36    2
    26    94    93    2
    27    69    67   ar
    28   108   102    1
    29    67    66    1
    30    74    73    1
    31    64    63    1
    32    64    72   am
    33   106   103    1
    34     6     5    1
    35     6     7    1
    36    36    35    1
    37    15    13    1
    38    63    66    1
    39    63    62    1
    40    73    72    1
    41    73    76    1
    42    93    92    1
    43    93    95   am
    44     5     2    1
    45    78    80   ar
    46    78    77   ar
    47    92    91    1
    48   102   103    1
    49   102    97   am
    50   103   104    1
    51    80    82   ar
    52    35    38    1
    53    35    34    1
    54   122   121   ar
    55   122   120   ar
    56     8     7    1
    57    12    11    2
    58   121   119   ar
    59    32    31    2
    60    96    95    1
    61    96    97    1
    62    96    99    1
    63   120   118   ar
    64    86    85    2
    65    76    77    1
    66    97    98    2
    67    77    79   ar
    68     1     2    1
    69    13    14    1
    70    13    10    1
    71   119   116   ar
    72   109   110    1
    73    82    81   ar
    74     9    10    1
    75     9     3   am
    76     2     3    1
    77    91    85   am
    78   118   116   ar
    79   118   117   ar
    80    99   101    1
    81    99   100    1
    82    11    10    1
    83    34    31   am
    84   104   105    2
    85    31    30    1
    86    85    84    1
    87   116   114   ar
    88   110   111    1
    89   110   113    1
    90   117   115   ar
    91     3     4    2
    92   112   111    2
    93    79    81   ar
    94   114   115   ar
    95   114   113    1
    96    27    26    2
    97    30    33    1
    98    30    29    1
    99    84    87    1
   100    84    83    1
   101    49    48    2
   102    57    56    2
   103    19    18    2
   104    87    88    1
   105    26    25    1
   106    52    50    1
   107    48    47    1
   108    48    54   am
   109    56    55    1
   110    25    28    1
   111    25    24    1
   112    47    50    1
   113    47    46    1
   114    18    24   am
   115    18    17    1
   116    90    88    1
   117    55    54    1
   118    55    58    1
   119    88    89    1
   120    50    51    1
   121    61    59    1
   122    51    53    1
   123    17    20    1
   124    17    16    1
   125    20    21    1
   126    23    21    1
   127    58    59    1
   128    59    60    1
   129    21    22    1
