@<TRIPOS>MOLECULE
tmp/2xx0B01.pdb
 77 70 0 0 0
SMALL
GASTEIGER

@<TRIPOS>ATOM
      1  N        -16.0960  -38.3540   36.7410 N.3   218  VAL218     -0.1231
      2  CA       -16.8750  -39.5650   36.5540 C.3   218  VAL218      0.1692
      3  C        -18.2490  -39.1540   35.9710 C.2   218  VAL218      0.2592
      4  O        -18.8990  -38.2280   36.4590 O.2   218  VAL218     -0.2718
      5  CB       -17.0250  -40.3490   37.8820 C.3   218  VAL218      0.0266
      6  CG1      -17.9270  -41.5580   37.6750 C.3   218  VAL218      0.0020
      7  CG2      -15.6910  -40.7810   38.4450 C.3   218  VAL218      0.0020
      8  N        -18.6680  -39.8260   34.9010 N.am  219  GLY219     -0.1957
      9  CA       -19.9690  -39.5130   34.2860 C.3   219  GLY219      0.1869
     10  C        -20.0520  -38.2220   33.5060 C.2   219  GLY219      0.2309
     11  O        -21.1670  -37.8430   33.1140 O.2   219  GLY219     -0.2863
     12  N        -22.2340  -38.5450   30.2290 N.3   222  THR222     -0.1218
     13  CA       -23.4380  -39.3580   30.4240 C.3   222  THR222      0.1862
     14  C        -24.6020  -38.4410   30.7660 C.2   222  THR222      0.2287
     15  O        -24.3920  -37.2770   31.0680 O.2   222  THR222     -0.2866
     16  CB       -23.2570  -40.3970   31.5630 C.3   222  THR222      0.1770
     17  OG1      -23.2010  -39.7100   32.8300 O.3   222  THR222     -0.2211
     18  CG2      -21.9810  -41.2890   31.3470 C.3   222  THR222      0.0375
     19  N        -19.2910  -49.9680   22.6540 N.3   251  ILE251     -0.1245
     20  CA       -20.0660  -51.1950   22.9040 C.3   251  ILE251      0.1561
     21  C        -21.2530  -51.2570   21.9330 C.2   251  ILE251      0.2260
     22  O        -22.0490  -50.3180   21.8900 O.2   251  ILE251     -0.2867
     23  CB       -20.6420  -51.2940   24.3330 C.3   251  ILE251      0.0252
     24  CG1      -19.5680  -51.1550   25.4010 C.3   251  ILE251      0.0019
     25  CG2      -21.3620  -52.6520   24.5410 C.3   251  ILE251      0.0019
     26  CD1      -20.1520  -51.4550   26.8540 C.3   251  ILE251      0.0001
     27  N        -28.5730  -46.3630   23.1690 N.3   294  VAL294     -0.1245
     28  CA       -27.5280  -45.7300   23.9760 C.3   294  VAL294      0.1561
     29  C        -26.3220  -46.6490   24.0050 C.2   294  VAL294      0.2260
     30  O        -26.3810  -47.7430   24.5430 O.2   294  VAL294     -0.2867
     31  CB       -28.0010  -45.3540   25.4030 C.3   294  VAL294      0.0252
     32  CG1      -26.8600  -44.7060   26.1520 C.3   294  VAL294      0.0019
     33  CG2      -29.2740  -44.4250   25.3550 C.3   294  VAL294      0.0019
     34  N        -22.2080  -47.3380   24.9560 N.3   296  ALA296     -0.1245
     35  CA       -21.1250  -46.8970   25.8390 C.3   296  ALA296      0.1562
     36  C        -19.8530  -46.8170   25.0130 C.2   296  ALA296      0.2260
     37  O        -19.6060  -47.6780   24.1500 O.2   296  ALA296     -0.2867
     38  CB       -20.9090  -47.8450   26.9890 C.3   296  ALA296      0.0290
     39  N        -15.9160  -46.5820   26.0270 N.3   298  LEU298     -0.1245
     40  CA       -15.1740  -46.7720   27.2650 C.3   298  LEU298      0.1561
     41  C        -13.8010  -47.3500   27.0520 C.2   298  LEU298      0.2260
     42  O        -13.4930  -47.8710   25.9670 O.2   298  LEU298     -0.2867
     43  CB       -15.9930  -47.6440   28.2400 C.3   298  LEU298      0.0270
     44  CG       -16.4710  -49.0190   27.8710 C.3   298  LEU298      0.0019
     45  CD1      -15.3540  -49.9570   27.6190 C.3   298  LEU298      0.0001
     46  CD2      -17.4620  -49.5310   28.9470 C.3   298  LEU298      0.0001
     47  N        -12.8950  -48.6910   33.4790 N.3   305  ALA305     -0.1231
     48  CA       -14.1660  -48.1210   32.9900 C.3   305  ALA305      0.1694
     49  C        -15.1920  -47.9450   34.1100 C.2   305  ALA305      0.2592
     50  O        -15.6320  -46.8210   34.4070 O.2   305  ALA305     -0.2718
     51  CB       -14.7600  -48.9220   31.8730 C.3   305  ALA305      0.0304
     52  N        -15.6030  -49.0620   34.6690 N.am  306  PHE306     -0.1976
     53  CA       -16.7770  -49.1060   35.5140 C.3   306  PHE306      0.1639
     54  C        -16.5010  -48.7760   36.9690 C.2   306  PHE306      0.2290
     55  O        -17.3710  -48.1730   37.6330 O.2   306  PHE306     -0.2864
     56  CB       -17.4770  -50.4620   35.4150 C.3   306  PHE306      0.0560
     57  CG       -18.2160  -50.6890   34.1340 C.ar  306  PHE306     -0.0200
     58  CD1      -19.5160  -50.2430   33.9990 C.ar  306  PHE306     -0.0042
     59  CD2      -17.6580  -51.3860   33.0880 C.ar  306  PHE306     -0.0042
     60  CE1      -20.2300  -50.4340   32.8440 C.ar  306  PHE306     -0.0003
     61  CE2      -18.3870  -51.6020   31.8870 C.ar  306  PHE306     -0.0003
     62  CZ       -19.6800  -51.1300   31.7770 C.ar  306  PHE306     -0.0000
     63  N        -15.5290  -44.0920   31.1860 N.3   311  ALA311     -0.1245
     64  CA       -16.6900  -44.4960   30.3590 C.3   311  ALA311      0.1562
     65  C        -17.6360  -43.3630   30.1540 C.2   311  ALA311      0.2260
     66  O        -17.8770  -42.5620   31.0550 O.2   311  ALA311     -0.2867
     67  CB       -17.4490  -45.6930   31.0310 C.3   311  ALA311      0.0290
     68  N        -21.2610  -42.1950   27.3220 N.3   313  HIS313     -0.1241
     69  CA       -22.4160  -42.6760   26.5890 C.3   313  HIS313      0.1621
     70  C        -22.5970  -41.9040   25.3040 C.2   313  HIS313      0.2264
     71  O        -22.2680  -40.7520   25.2250 O.2   313  HIS313     -0.2867
     72  CB       -23.6940  -42.5330   27.4200 C.3   313  HIS313      0.0745
     73  CG       -23.7470  -43.4240   28.6100 C.ar  313  HIS313      0.0817
     74  ND1      -24.5590  -43.1630   29.6960 N.ar  313  HIS313     -0.2268
     75  CD2      -23.0630  -44.5500   28.9080 C.ar  313  HIS313      0.1154
     76  CE1      -24.4000  -44.1240   30.5940 C.ar  313  HIS313      0.1986
     77  NE2      -23.4730  -44.9590   30.1570 N.ar  313  HIS313     -0.2212
@<TRIPOS>BOND
     1    22    21    2
     2    21    20    1
     3    19    20    1
     4    20    23    1
     5    27    28    1
     6    28    29    1
     7    28    31    1
     8    29    30    2
     9    37    36    2
    10    23    25    1
    11    23    24    1
    12    34    35    1
    13    36    35    1
    14    71    70    2
    15    70    69    1
    16    33    31    1
    17    24    26    1
    18    31    32    1
    19    35    38    1
    20    42    41    2
    21    39    40    1
    22    69    68    1
    23    69    72    1
    24    41    40    1
    25    40    43    1
    26    72    73    1
    27    45    44    1
    28    44    43    1
    29    44    46    1
    30    73    75   ar
    31    73    74   ar
    32    75    77   ar
    33    74    76   ar
    34    65    64    1
    35    65    66    2
    36    77    76   ar
    37    12    13    1
    38    64    67    1
    39    64    63    1
    40    13    14    1
    41    13    16    1
    42    14    15    2
    43    18    16    1
    44    16    17    1
    45    62    61   ar
    46    62    60   ar
    47    51    48    1
    48    61    59   ar
    49    60    58   ar
    50    48    47    1
    51    48    49    1
    52    59    57   ar
    53    11    10    2
    54    10     9    1
    55    58    57   ar
    56    49    50    2
    57    49    52   am
    58    57    56    1
    59     9     8    1
    60    52    53    1
    61     8     3   am
    62    56    53    1
    63    53    54    1
    64     3     4    2
    65     3     2    1
    66     2     1    1
    67     2     5    1
    68    54    55    2
    69     6     5    1
    70     5     7    1
