@<TRIPOS>MOLECULE
tmp/2xx0B00.pdb
 82 79 0 0 0
SMALL
GASTEIGER

@<TRIPOS>ATOM
      1  N        -11.4920  -41.6030   -0.4080 N.3   163  PRO163     -0.2102
      2  CA       -11.8580  -40.6080    0.6040 C.3   163  PRO163      0.1504
      3  C        -12.6290  -41.1740    1.7840 C.2   163  PRO163      0.2576
      4  O        -13.4260  -42.1100    1.6290 O.2   163  PRO163     -0.2718
      5  CB       -12.7400  -39.6310   -0.1650 C.3   163  PRO163      0.0282
      6  CG       -13.1170  -40.3210   -1.3800 C.3   163  PRO163      0.0208
      7  CD       -12.1330  -41.3370   -1.7150 C.3   163  PRO163      0.0893
      8  N        -12.3140  -40.6640    2.9730 N.am  164  LEU164     -0.1966
      9  CA       -13.0870  -40.9180    4.1770 C.3   164  LEU164      0.1728
     10  C        -13.4540  -39.5510    4.7270 C.2   164  LEU164      0.2616
     11  O        -12.7600  -38.5480    4.4830 O.2   164  LEU164     -0.2715
     12  CB       -12.2830  -41.6990    5.2070 C.3   164  LEU164      0.0311
     13  CG       -11.8270  -43.0990    4.8330 C.3   164  LEU164      0.0022
     14  CD1      -10.7860  -43.6560    5.8760 C.3   164  LEU164      0.0001
     15  CD2      -12.9870  -44.1020    4.5970 C.3   164  LEU164      0.0001
     16  N        -14.5040  -39.5320    5.5270 N.am  165  HIS165     -0.1973
     17  CA       -14.9430  -38.3100    6.1750 C.3   165  HIS165      0.1656
     18  C        -15.6890  -38.6090    7.4640 C.2   165  HIS165      0.2291
     19  O        -16.1380  -39.7210    7.6980 O.2   165  HIS165     -0.2864
     20  CB       -15.8900  -37.5100    5.2300 C.3   165  HIS165      0.0771
     21  CG       -17.2560  -38.0930    5.1570 C.ar  165  HIS165      0.0820
     22  ND1      -17.5480  -39.2080    4.3950 N.ar  165  HIS165     -0.2267
     23  CD2      -18.3820  -37.7920    5.8450 C.ar  165  HIS165      0.1154
     24  CE1      -18.8220  -39.5190    4.5770 C.ar  165  HIS165      0.1986
     25  NE2      -19.3390  -38.6900    5.4810 N.ar  165  HIS165     -0.2212
     26  N        -26.7070  -43.5060   10.3770 N.3   232  GLY232     -0.1225
     27  CA       -26.2300  -42.9900    9.1220 C.3   232  GLY232      0.1811
     28  C        -25.1650  -41.9340    9.1540 C.2   232  GLY232      0.2280
     29  O        -24.5670  -41.6330    8.1270 O.2   232  GLY232     -0.2866
     30  N        -21.4660  -40.5330   10.3000 N.3   234  THR234     -0.1218
     31  CA       -20.1390  -41.0020   10.6590 C.3   234  THR234      0.1862
     32  C        -19.6110  -40.0130   11.6960 C.2   234  THR234      0.2287
     33  O        -19.5500  -38.8190   11.4660 O.2   234  THR234     -0.2866
     34  CB       -19.2190  -41.0860    9.4450 C.3   234  THR234      0.1770
     35  OG1      -19.8320  -41.9260    8.4320 O.3   234  THR234     -0.2211
     36  CG2      -17.7940  -41.6260    9.8280 C.3   234  THR234      0.0375
     37  N        -14.7050  -48.3440   12.6640 N.3   256  ASP256     -0.1225
     38  CA       -14.7630  -48.6900   11.2570 C.3   256  ASP256      0.1805
     39  C        -13.4060  -48.4590   10.5910 C.2   256  ASP256      0.2597
     40  O        -12.9340  -49.2950    9.8310 O.2   256  ASP256     -0.2718
     41  CB       -15.8340  -47.9080   10.5050 C.3   256  ASP256      0.1424
     42  CG       -17.2260  -48.4330   10.7200 C.2   256  ASP256      0.3668
     43  OD1      -17.4150  -49.5990   11.1310 O.co2 256  ASP256     -0.2456
     44  OD2      -18.1730  -47.6510   10.4230 O.co2 256  ASP256     -0.2456
     45  N        -12.8220  -47.3040   10.8570 N.am  257  TRP257     -0.1976
     46  CA       -11.4640  -46.9290   10.4180 C.3   257  TRP257      0.1640
     47  C        -10.7740  -46.2560   11.5670 C.2   257  TRP257      0.2290
     48  O        -11.3350  -45.2890   12.1390 O.2   257  TRP257     -0.2864
     49  CB       -11.5130  -45.9710    9.2560 C.3   257  TRP257      0.0576
     50  CG       -12.0550  -46.5690    8.0110 C.ar  257  TRP257      0.0006
     51  CD1      -13.2720  -46.3420    7.4420 C.ar  257  TRP257      0.0946
     52  CD2      -11.3880  -47.5240    7.1960 C.ar  257  TRP257      0.0152
     53  NE1      -13.3930  -47.0940    6.3000 N.ar  257  TRP257     -0.2442
     54  CE2      -12.2440  -47.8300    6.1270 C.ar  257  TRP257      0.0810
     55  CE3      -10.1390  -48.1520    7.2740 C.ar  257  TRP257      0.0012
     56  CZ2      -11.8670  -48.7030    5.1110 C.ar  257  TRP257      0.0191
     57  CZ3       -9.7690  -49.0320    6.2820 C.ar  257  TRP257      0.0001
     58  CH2      -10.6300  -49.3110    5.2240 C.ar  257  TRP257      0.0015
     59  N        -13.1690  -43.5250   13.3240 N.3   286  LEU286     -0.1245
     60  CA       -14.4330  -43.2380   12.6100 C.3   286  LEU286      0.1561
     61  C        -15.4030  -44.3810   12.7950 C.2   286  LEU286      0.2260
     62  O        -15.0230  -45.5660   12.7170 O.2   286  LEU286     -0.2867
     63  CB       -14.1690  -43.0830   11.1230 C.3   286  LEU286      0.0270
     64  CG       -13.3340  -41.9350   10.6150 C.3   286  LEU286      0.0019
     65  CD1      -13.0220  -42.1050    9.1320 C.3   286  LEU286      0.0001
     66  CD2      -14.0320  -40.5910   10.9230 C.3   286  LEU286      0.0001
     67  N        -19.6290  -45.2730   11.5740 N.3   288  THR288     -0.1218
     68  CA       -20.9410  -44.9180   11.0140 C.3   288  THR288      0.1862
     69  C        -21.9950  -45.7120   11.7250 C.2   288  THR288      0.2287
     70  O        -22.0290  -46.9280   11.6410 O.2   288  THR288     -0.2866
     71  CB       -21.0010  -45.1540    9.4880 C.3   288  THR288      0.1770
     72  OG1      -19.9300  -44.4250    8.8490 O.3   288  THR288     -0.2211
     73  CG2      -22.4060  -44.7290    8.9490 C.3   288  THR288      0.0375
     74  N        -25.3000  -47.5710   12.6700 N.3   290  LYS290     -0.1245
     75  CA       -26.2680  -48.3900   11.9620 C.3   290  LYS290      0.1561
     76  C        -27.4610  -48.7950   12.8180 C.2   290  LYS290      0.2260
     77  O        -28.4550  -49.2820   12.2830 O.2   290  LYS290     -0.2867
     78  CB       -25.6030  -49.6570   11.4250 C.3   290  LYS290      0.0271
     79  CG       -24.5330  -49.4280   10.4280 C.3   290  LYS290      0.0035
     80  CD       -24.9720  -48.6580    9.2630 C.3   290  LYS290      0.0206
     81  CE       -23.8270  -48.5800    8.2830 C.3   290  LYS290      0.1093
     82  NZ       -24.1370  -47.8690    7.0190 N.3   290  LYS290     -0.1314
@<TRIPOS>BOND
     1     7     6    1
     2     7     1    1
     3     6     5    1
     4     1     2    1
     5     5     2    1
     6     2     3    1
     7     4     3    2
     8     3     8   am
     9     8     9    1
    10     9    10    1
    11     9    12    1
    12    22    24   ar
    13    22    21   ar
    14    11    10    2
    15    24    25   ar
    16    15    13    1
    17    10    16   am
    18    13    12    1
    19    13    14    1
    20    56    58   ar
    21    56    54   ar
    22    21    20    1
    23    21    23   ar
    24    58    57   ar
    25    20    17    1
    26    25    23   ar
    27    16    17    1
    28    54    53   ar
    29    54    52   ar
    30    17    18    1
    31    57    55   ar
    32    53    51   ar
    33    82    81    1
    34    52    55   ar
    35    52    50   ar
    36    51    50   ar
    37    18    19    2
    38    50    49    1
    39    29    28    2
    40    81    80    1
    41    35    34    1
    42    72    71    1
    43    73    71    1
    44    27    28    1
    45    27    26    1
    46    65    64    1
    47    49    46    1
    48    80    79    1
    49    34    36    1
    50    34    31    1
    51    71    68    1
    52    40    39    2
    53    30    31    1
    54    46    45    1
    55    46    47    1
    56    44    42   ar
    57    79    78    1
    58    41    42    1
    59    41    38    1
    60    39    45   am
    61    39    38    1
    62    64    66    1
    63    64    63    1
    64    31    32    1
    65    42    43   ar
    66    68    67    1
    67    68    69    1
    68    63    60    1
    69    38    37    1
    70    78    75    1
    71    33    32    2
    72    47    48    2
    73    70    69    2
    74    75    74    1
    75    75    76    1
    76    77    76    2
    77    60    61    1
    78    60    59    1
    79    62    61    2
