@<TRIPOS>MOLECULE
tmp/2xx3A01.pdb
 149 145 0 0 0
SMALL
GASTEIGER

@<TRIPOS>ATOM
      1  N        -29.7170   12.7040    9.7980 N.3    13  ASP13      -0.1239
      2  CA       -29.8460   11.2820    9.4630 C.3    13  ASP13       0.1674
      3  C        -30.1350   11.1480    7.9680 C.2    13  ASP13       0.2266
      4  O        -30.8880   11.9510    7.4130 O.2    13  ASP13      -0.2867
      5  CB       -30.9980   10.6280   10.2480 C.3    13  ASP13       0.1410
      6  CG       -30.7280   10.3590   11.7160 C.2    13  ASP13       0.3668
      7  OD1      -29.6450    9.8020   12.0340 O.co2  13  ASP13      -0.2456
      8  OD2      -31.6290   10.6300   12.5400 O.co2  13  ASP13      -0.2456
      9  N        -22.3010    7.8500    6.1990 N.3    18  SER18      -0.1217
     10  CA       -21.6290    6.5410    6.1840 C.3    18  SER18       0.1889
     11  C        -21.1360    6.2010    4.7780 C.2    18  SER18       0.2288
     12  O        -20.0060    5.7340    4.6180 O.2    18  SER18      -0.2866
     13  CB       -22.5470    5.4480    6.7150 C.3    18  SER18       0.2089
     14  OG       -22.7260    5.5820    8.1140 O.3    18  SER18      -0.2183
     15  N        -18.5970    7.4610   15.0560 N.3    38  PHE38      -0.1228
     16  CA       -19.1470    7.7030   16.3850 C.3    38  PHE38       0.1721
     17  C        -20.6670    7.5210   16.3960 C.2    38  PHE38       0.2437
     18  O        -21.3390    8.0800   15.5320 O.2    38  PHE38      -0.2733
     19  CB       -18.6970    9.0380   17.0060 C.3    38  PHE38       0.0547
     20  CG       -17.2410    9.0490   17.4110 C.ar   38  PHE38      -0.0202
     21  CD1      -16.7820    8.2430   18.4490 C.ar   38  PHE38      -0.0042
     22  CD2      -16.3270    9.8630   16.7550 C.ar   38  PHE38      -0.0042
     23  CE1      -15.4300    8.2330   18.8030 C.ar   38  PHE38      -0.0003
     24  CE2      -14.9760    9.8620   17.1190 C.ar   38  PHE38      -0.0003
     25  CZ       -14.5380    9.0510   18.1410 C.ar   38  PHE38      -0.0000
     26  N        -21.2280    6.7000   17.3180 N.am   39  PRO39      -0.2729
     27  CA       -20.5530    5.9590   18.4030 C.3    39  PRO39       0.1401
     28  C        -19.6910    4.7900   17.9350 C.2    39  PRO39       0.2269
     29  O        -20.0300    4.1270   16.9520 O.2    39  PRO39      -0.2865
     30  CB       -21.7260    5.4630   19.2580 C.3    39  PRO39       0.0296
     31  CG       -22.8580    5.3210   18.2800 C.3    39  PRO39       0.0237
     32  CD       -22.6900    6.4960   17.3610 C.3    39  PRO39       0.0939
     33  N        -18.9460    1.3850   18.7820 N.3    41  ARG41      -0.1245
     34  CA       -19.5600    0.2730   19.5170 C.3    41  ARG41       0.1563
     35  C        -18.6120   -0.8370   20.0150 C.2    41  ARG41       0.2260
     36  O        -19.0210   -1.6350   20.8600 O.2    41  ARG41      -0.2867
     37  CB       -20.7220   -0.3230   18.6980 C.3    41  ARG41       0.0307
     38  CG       -21.9040    0.6230   18.5300 C.3    41  ARG41       0.0489
     39  CD       -22.9510    0.0520   17.5920 C.3    41  ARG41       0.2205
     40  NE       -23.2340    0.9580   16.4780 N.pl3  41  ARG41      -0.0865
     41  CZ       -24.2020    1.8700   16.4730 C.cat  41  ARG41       0.5346
     42  NH1      -24.9980    2.0110   17.5270 N.pl3  41  ARG41       0.1354
     43  NH2      -24.3810    2.6500   15.4150 N.pl3  41  ARG41       0.1354
     44  N        -21.9200    9.0750   25.3960 N.3    60  PHE60      -0.1241
     45  CA       -21.5680    9.3710   24.0070 C.3    60  PHE60       0.1605
     46  C        -20.2970   10.2210   23.9420 C.2    60  PHE60       0.2264
     47  O        -19.4330    9.9490   23.1130 O.2    60  PHE60      -0.2867
     48  CB       -22.7250   10.0670   23.2720 C.3    60  PHE60       0.0534
     49  CG       -23.7030    9.1400   22.5890 C.ar   60  PHE60      -0.0203
     50  CD1      -23.3210    8.3890   21.4840 C.ar   60  PHE60      -0.0042
     51  CD2      -25.0270    9.0720   23.0070 C.ar   60  PHE60      -0.0042
     52  CE1      -24.2410    7.5660   20.8250 C.ar   60  PHE60      -0.0003
     53  CE2      -25.9430    8.2440   22.3500 C.ar   60  PHE60      -0.0003
     54  CZ       -25.5410    7.4910   21.2690 C.ar   60  PHE60      -0.0000
     55  N        -16.1130    9.3600   22.7840 N.3    64  ARG64      -0.1245
     56  CA       -15.2580   10.1880   21.9310 C.3    64  ARG64       0.1563
     57  C        -13.9200   10.4190   22.6230 C.2    64  ARG64       0.2260
     58  O        -12.8700   10.2910   21.9920 O.2    64  ARG64      -0.2867
     59  CB       -15.9270   11.5290   21.6160 C.3    64  ARG64       0.0307
     60  CG       -16.8690   11.4410   20.4310 C.3    64  ARG64       0.0489
     61  CD       -17.4580   12.7880   20.0510 C.3    64  ARG64       0.2205
     62  NE       -18.4960   13.2410   20.9820 N.pl3  64  ARG64      -0.0865
     63  CZ       -19.7490   12.7960   20.9950 C.cat  64  ARG64       0.5346
     64  NH1      -20.1300   11.8380   20.1580 N.pl3  64  ARG64       0.1354
     65  NH2      -20.6250   13.2860   21.8620 N.pl3  64  ARG64       0.1354
     66  N        -19.4670   11.3680   12.0590 N.3    85  ARG85      -0.1231
     67  CA       -20.1270   11.9630   13.2360 C.3    85  ARG85       0.1694
     68  C        -19.1330   12.2180   14.3570 C.2    85  ARG85       0.2592
     69  O        -18.2310   11.4130   14.5970 O.2    85  ARG85      -0.2718
     70  CB       -21.3480   11.1640   13.7420 C.3    85  ARG85       0.0321
     71  CG       -22.4410   10.9990   12.6960 C.3    85  ARG85       0.0489
     72  CD       -23.7040   10.3850   13.2520 C.3    85  ARG85       0.2205
     73  NE       -23.5260    8.9770   13.6050 N.pl3  85  ARG85      -0.0865
     74  CZ       -24.4700    8.0530   13.4860 C.cat  85  ARG85       0.5346
     75  NH1      -25.6620    8.3700   12.9930 N.pl3  85  ARG85       0.1354
     76  NH2      -24.2300    6.8020   13.8520 N.pl3  85  ARG85       0.1354
     77  N        -19.3010   13.3500   15.0390 N.am   86  TYR86      -0.1976
     78  CA       -18.4170   13.7790   16.1150 C.3    86  TYR86       0.1639
     79  C        -19.2580   14.4640   17.1850 C.2    86  TYR86       0.2290
     80  O        -20.4270   14.1080   17.3460 O.2    86  TYR86      -0.2864
     81  CB       -17.3410   14.7170   15.5230 C.3    86  TYR86       0.0560
     82  CG       -16.0530   14.8560   16.3080 C.ar   86  TYR86      -0.0198
     83  CD1      -15.3520   13.7320   16.7440 C.ar   86  TYR86      -0.0009
     84  CD2      -15.4700   16.1040   16.5090 C.ar   86  TYR86      -0.0009
     85  CE1      -14.1370   13.8530   17.4130 C.ar   86  TYR86       0.0417
     86  CE2      -14.2520   16.2360   17.1680 C.ar   86  TYR86       0.0417
     87  CZ       -13.5910   15.1070   17.6220 C.ar   86  TYR86       0.1957
     88  OH       -12.3910   15.2360   18.2600 O.3    86  TYR86      -0.2866
     89  N        -22.9060   15.9950   16.1960 N.3    89  SER89      -0.1202
     90  CA       -24.0330   15.0530   16.2150 C.3    89  SER89       0.2020
     91  C        -24.4520   14.7730   17.6660 C.2    89  SER89       0.2619
     92  O        -25.6360   14.6030   17.9370 O.2    89  SER89      -0.2717
     93  CB       -23.6650   13.7500   15.5160 C.3    89  SER89       0.2103
     94  OG       -24.0700   13.7790   14.1590 O.3    89  SER89      -0.2182
     95  N        -23.4810   14.7670   18.5810 N.am   90  GLY90      -0.1956
     96  CA       -23.7250   14.5740   20.0070 C.3    90  GLY90       0.1869
     97  C        -24.6600   15.6200   20.5700 C.2    90  GLY90       0.2309
     98  O        -25.6600   15.2880   21.2140 O.2    90  GLY90      -0.2863
     99  N        -28.3340   15.5390   18.5220 N.3    93  PHE93      -0.1227
    100  CA       -29.2350   14.4540   18.9320 C.3    93  PHE93       0.1736
    101  C        -29.8560   14.6610   20.3040 C.2    93  PHE93       0.2596
    102  O        -31.0550   14.4180   20.4660 O.2    93  PHE93      -0.2718
    103  CB       -28.5440   13.0870   18.8390 C.3    93  PHE93       0.0547
    104  CG       -28.6130   12.4840   17.4590 C.ar   93  PHE93      -0.0202
    105  CD1      -29.6780   11.6770   17.0890 C.ar   93  PHE93      -0.0042
    106  CD2      -27.6180   12.7320   16.5230 C.ar   93  PHE93      -0.0042
    107  CE1      -29.7470   11.1320   15.8070 C.ar   93  PHE93      -0.0003
    108  CE2      -27.6890   12.1840   15.2420 C.ar   93  PHE93      -0.0003
    109  CZ       -28.7560   11.3910   14.8910 C.ar   93  PHE93      -0.0000
    110  N        -29.0500   15.1060   21.2910 N.am   94  THR94      -0.1953
    111  CA       -29.5470   15.3870   22.6400 C.3    94  THR94       0.1897
    112  C        -30.4220   16.6510   22.5990 C.2    94  THR94       0.2313
    113  O        -31.4430   16.7190   23.2870 O.2    94  THR94      -0.2863
    114  CB       -28.3910   15.4610   23.6420 C.3    94  THR94       0.1794
    115  OG1      -27.5270   14.3410   23.4490 O.3    94  THR94      -0.2208
    116  CG2      -28.8660   15.4560   25.0660 C.3    94  THR94       0.0378
    117  N        -34.5810    2.8490   12.1940 N.3   136  HIS136     -0.1241
    118  CA       -34.6560    3.7830   13.3230 C.3   136  HIS136      0.1621
    119  C        -35.9500    4.5940   13.2500 C.2   136  HIS136      0.2264
    120  O        -36.2470    5.1750   12.2060 O.2   136  HIS136     -0.2867
    121  CB       -33.4260    4.7090   13.3760 C.3   136  HIS136      0.0745
    122  CG       -32.1310    3.9840   13.5830 C.ar  136  HIS136      0.0817
    123  ND1      -31.8530    3.3270   14.7670 N.ar  136  HIS136     -0.2268
    124  CD2      -31.0770    3.8430   12.7470 C.ar  136  HIS136      0.1154
    125  CE1      -30.6460    2.8080   14.6140 C.ar  136  HIS136      0.1986
    126  NE2      -30.1410    3.0880   13.4140 N.ar  136  HIS136     -0.2212
    127  N        -36.7300    7.4080   14.8010 N.3   138  ARG138     -0.1231
    128  CA       -36.3840    8.8330   14.7320 C.3   138  ARG138      0.1694
    129  C        -36.3170    9.3980   13.3020 C.2   138  ARG138      0.2592
    130  O        -36.4840   10.6070   13.1250 O.2   138  ARG138     -0.2718
    131  CB       -35.0900    9.1250   15.5100 C.3   138  ARG138      0.0321
    132  CG       -33.8710    8.3700   15.0000 C.3   138  ARG138      0.0489
    133  CD       -32.6090    8.9480   15.5740 C.3   138  ARG138      0.2205
    134  NE       -31.4750    8.7610   14.6700 N.pl3 138  ARG138     -0.0865
    135  CZ       -30.5670    7.7990   14.7890 C.cat 138  ARG138      0.5346
    136  NH1      -30.6560    6.9100   15.7710 N.pl3 138  ARG138      0.1354
    137  NH2      -29.5590    7.7220   13.9310 N.pl3 138  ARG138      0.1354
    138  N        -36.0840    8.5200   12.2960 N.am  139  TYR139     -0.1976
    139  CA       -36.0230    8.8510   10.8660 C.3   139  TYR139      0.1639
    140  C        -37.3650    9.4180   10.3860 C.2   139  TYR139      0.2290
    141  O        -37.3820   10.3170    9.5420 O.2   139  TYR139     -0.2864
    142  CB       -35.7270    7.5910   10.0280 C.3   139  TYR139      0.0560
    143  CG       -34.3210    7.0220   10.0420 C.ar  139  TYR139     -0.0198
    144  CD1      -33.2890    7.6600   10.7280 C.ar  139  TYR139     -0.0009
    145  CD2      -34.0140    5.8630    9.3360 C.ar  139  TYR139     -0.0009
    146  CE1      -31.9930    7.1380   10.7340 C.ar  139  TYR139      0.0417
    147  CE2      -32.7260    5.3340    9.3340 C.ar  139  TYR139      0.0417
    148  CZ       -31.7170    5.9760   10.0310 C.ar  139  TYR139      0.1957
    149  OH       -30.4470    5.4510   10.0100 O.3   139  TYR139     -0.2866
@<TRIPOS>BOND
     1    12    11    2
     2    11    10    1
     3    10     9    1
     4    10    13    1
     5    13    14    1
     6     4     3    2
     7     3     2    1
     8   147   145   ar
     9   147   148   ar
    10   145   143   ar
    11     2     1    1
    12     2     5    1
    13   141   140    2
    14   149   148    1
    15   142   143    1
    16   142   139    1
    17   148   146   ar
    18   143   144   ar
    19     5     6    1
    20   140   139    1
    21   144   146   ar
    22   139   138    1
    23     6     7   ar
    24     6     8   ar
    25    66    67    1
    26   117   118    1
    27   120   119    2
    28   138   129   am
    29    71    72    1
    30    71    70    1
    31   124   126   ar
    32   124   122   ar
    33    75    74    1
    34   130   129    2
    35    67    70    1
    36    67    68    1
    37   119   118    1
    38    72    73    1
    39   129   128    1
    40   118   121    1
    41   121   122    1
    42   126   125   ar
    43    74    73    2
    44    74    76    1
    45   122   123   ar
    46   137   135    1
    47    94    93    1
    48    68    69    2
    49    68    77   am
    50   125   123   ar
    51   134   135    2
    52   134   133    1
    53   128   127    1
    54   128   131    1
    55   135   136    1
    56   109   108   ar
    57   109   107   ar
    58   132   131    1
    59   132   133    1
    60    77    78    1
    61    15    16    1
    62   108   106   ar
    63    43    41    1
    64    93    90    1
    65    81    78    1
    66    81    82    1
    67    18    17    2
    68   107   105   ar
    69    78    79    1
    70    89    90    1
    71    90    91    1
    72    82    84   ar
    73    82    83   ar
    74    16    17    1
    75    16    19    1
    76    17    26   am
    77    41    40    2
    78    41    42    1
    79    40    39    1
    80    84    86   ar
    81   106   104   ar
    82    83    85   ar
    83    22    24   ar
    84    22    20   ar
    85    29    28    2
    86    19    20    1
    87   105   104   ar
    88    24    25   ar
    89    86    87   ar
    90    79    80    2
    91    26    32    1
    92    26    27    1
    93    32    31    1
    94    20    21   ar
    95    85    87   ar
    96   104   103    1
    97    39    38    1
    98    87    88    1
    99    91    92    2
   100    91    95   am
   101    28    27    1
   102    25    23   ar
   103    31    30    1
   104    27    30    1
   105    21    23   ar
   106    99   100    1
   107    38    37    1
   108    95    96    1
   109    37    34    1
   110    33    34    1
   111   103   100    1
   112   100   101    1
   113    34    35    1
   114    96    97    1
   115    35    36    2
   116    61    60    1
   117    61    62    1
   118    64    63    1
   119   101   102    2
   120   101   110   am
   121    60    59    1
   122    97    98    2
   123    52    54   ar
   124    52    50   ar
   125    62    63    2
   126    63    65    1
   127    54    53   ar
   128   110   111    1
   129    50    49   ar
   130    59    56    1
   131    56    57    1
   132    56    55    1
   133    58    57    2
   134    53    51   ar
   135    49    51   ar
   136    49    48    1
   137   112   111    1
   138   112   113    2
   139   111   114    1
   140    47    46    2
   141    48    45    1
   142   115   114    1
   143   114   116    1
   144    46    45    1
   145    45    44    1
