@<TRIPOS>MOLECULE
tmp/2xx4A00.pdb
 159 147 0 0 0
SMALL
GASTEIGER

@<TRIPOS>ATOM
      1  N        -16.8110   11.0370    0.0580 N.3    34  LEU34      -0.1245
      2  CA       -17.9190   10.1950   -0.4000 C.3    34  LEU34       0.1561
      3  C        -18.5170   10.7150   -1.7150 C.2    34  LEU34       0.2260
      4  O        -18.9020    9.9450   -2.5870 O.2    34  LEU34      -0.2867
      5  CB       -18.9790   10.0290    0.6990 C.3    34  LEU34       0.0270
      6  CG       -18.4720    9.5140    2.0500 C.3    34  LEU34       0.0019
      7  CD1      -19.6420    9.2730    3.0290 C.3    34  LEU34       0.0001
      8  CD2      -17.6030    8.2270    1.8760 C.3    34  LEU34       0.0001
      9  N        -15.9620    9.6320   -4.3270 N.3    37  ASN37      -0.1225
     10  CA       -16.2420    8.2360   -4.6950 C.3    37  ASN37       0.1785
     11  C        -17.4660    8.0720   -5.5830 C.2    37  ASN37       0.2597
     12  O        -17.4600    7.2770   -6.5310 O.2    37  ASN37      -0.2718
     13  CB       -16.3850    7.3490   -3.4550 C.3    37  ASN37       0.1169
     14  CG       -15.0640    7.1340   -2.7460 C.2    37  ASN37       0.2627
     15  OD1      -14.0410    7.6170   -3.2080 O.2    37  ASN37      -0.2716
     16  ND2      -15.0820    6.4260   -1.6120 N.am   37  ASN37      -0.0877
     17  N        -18.5190    8.8210   -5.2700 N.am   38  ALA38      -0.1979
     18  CA       -19.7420    8.7690   -6.0550 C.3    38  ALA38       0.1597
     19  C        -19.4320    9.2430   -7.4660 C.2    38  ALA38       0.2287
     20  O        -19.8110    8.6000   -8.4430 O.2    38  ALA38      -0.2864
     21  CB       -20.8440    9.6300   -5.4130 C.3    38  ALA38       0.0319
     22  N        -16.5340    9.2530   -8.9990 N.3    40  ASP40      -0.1225
     23  CA       -15.7440    8.1900   -9.6430 C.3    40  ASP40       0.1805
     24  C        -16.6160    7.0640  -10.2190 C.2    40  ASP40       0.2597
     25  O        -16.4330    6.6610  -11.3670 O.2    40  ASP40      -0.2718
     26  CB       -14.6990    7.6020   -8.6900 C.3    40  ASP40       0.1424
     27  CG       -13.6410    8.6190   -8.2700 C.2    40  ASP40       0.3668
     28  OD1      -13.5310    9.6870   -8.9280 O.co2  40  ASP40      -0.2456
     29  OD2      -12.9220    8.3440   -7.2770 O.co2  40  ASP40      -0.2456
     30  N        -17.5620    6.5640   -9.4240 N.am   41  ALA41      -0.1979
     31  CA       -18.4180    5.4660   -9.8620 C.3    41  ALA41       0.1597
     32  C        -19.2880    5.8930  -11.0320 C.2    41  ALA41       0.2287
     33  O        -19.5960    5.0890  -11.9200 O.2    41  ALA41      -0.2864
     34  CB       -19.2810    4.9710   -8.7110 C.3    41  ALA41       0.0319
     35  N        -17.1860    5.8350  -14.1020 N.3    44  LYS44      -0.1245
     36  CA       -16.9980    4.4610  -14.5710 C.3    44  LYS44       0.1561
     37  C        -18.1800    3.9120  -15.3700 C.2    44  LYS44       0.2260
     38  O        -17.9780    3.2620  -16.3880 O.2    44  LYS44      -0.2867
     39  CB       -16.6130    3.5200  -13.4140 C.3    44  LYS44       0.0271
     40  CG       -15.2160    3.8060  -12.8460 C.3    44  LYS44       0.0035
     41  CD       -14.9100    2.9530  -11.6280 C.3    44  LYS44       0.0206
     42  CE       -13.9170    3.6450  -10.7070 C.3    44  LYS44       0.1093
     43  NZ       -12.5630    3.7920  -11.3150 N.3    44  LYS44      -0.1314
     44  N        -25.9190    8.9230    1.1940 N.3    77  ILE77      -0.1245
     45  CA       -25.3480    9.4760   -0.0130 C.3    77  ILE77       0.1561
     46  C        -25.5010    8.4290   -1.0920 C.2    77  ILE77       0.2260
     47  O        -24.9140    7.3440   -1.0090 O.2    77  ILE77      -0.2867
     48  CB       -23.8640    9.8920    0.1540 C.3    77  ILE77       0.0252
     49  CG1      -23.6810   10.8140    1.3660 C.3    77  ILE77       0.0019
     50  CG2      -23.3650   10.5960   -1.1020 C.3    77  ILE77       0.0019
     51  CD1      -23.4860   10.0830    2.6650 C.3    77  ILE77       0.0001
     52  N        -25.6060    7.3920   -5.3460 N.3    79  ASP79      -0.1239
     53  CA       -25.2640    7.7250   -6.7120 C.3    79  ASP79       0.1674
     54  C        -25.7920    6.6230   -7.6070 C.2    79  ASP79       0.2266
     55  O        -26.0930    5.5150   -7.1400 O.2    79  ASP79      -0.2867
     56  CB       -23.7560    7.9180   -6.8870 C.3    79  ASP79       0.1410
     57  CG       -22.9590    6.6310   -6.6410 C.2    79  ASP79       0.3668
     58  OD1      -22.8890    5.7980   -7.5600 O.co2  79  ASP79      -0.2456
     59  OD2      -22.4110    6.4600   -5.5290 O.co2  79  ASP79      -0.2456
     60  N        -21.6290    2.9080  -11.2890 N.3    82  ILE82      -0.1231
     61  CA       -21.4940    1.5250  -11.7380 C.3    82  ILE82       0.1692
     62  C        -21.9220    0.4790  -10.6950 C.2    82  ILE82       0.2593
     63  O        -22.3900   -0.6000  -11.0640 O.2    82  ILE82      -0.2718
     64  CB       -20.0470    1.2430  -12.2330 C.3    82  ILE82       0.0266
     65  CG1      -19.9590   -0.0910  -12.9680 C.3    82  ILE82       0.0019
     66  CG2      -19.0380    1.3360  -11.0890 C.3    82  ILE82       0.0020
     67  CD1      -18.7360   -0.1690  -13.8690 C.3    82  ILE82       0.0001
     68  N        -21.7750    0.8030   -9.4080 N.am   83  GLY83      -0.1942
     69  CA       -22.1720   -0.0970   -8.3320 C.3    83  GLY83       0.2014
     70  C        -21.1410   -1.2050   -8.0980 C.2    83  GLY83       0.2638
     71  O        -20.1290   -1.2510   -8.7820 O.2    83  GLY83      -0.2714
     72  N        -21.4010   -2.0870   -7.1330 N.am   84  MET84      -0.1976
     73  CA       -20.5010   -3.1900   -6.8150 C.3    84  MET84       0.1605
     74  C        -21.2870   -4.4710   -6.6990 C.2    84  MET84       0.2287
     75  O        -22.3670   -4.4850   -6.1200 O.2    84  MET84      -0.2864
     76  CB       -19.7560   -2.9300   -5.5000 C.3    84  MET84       0.0413
     77  CG       -18.7280   -1.7910   -5.5990 C.3    84  MET84       0.0598
     78  SD       -18.1070   -1.2820   -4.0010 S.3    84  MET84      -0.1393
     79  CE       -19.4880   -0.3480   -3.3370 C.3    84  MET84       0.0692
     80  N        -13.3540   -5.0390   -2.2680 N.3    92  ASN92      -0.1225
     81  CA       -13.0890   -3.6060   -2.1810 C.3    92  ASN92       0.1785
     82  C        -13.1190   -3.0400   -0.7780 C.2    92  ASN92       0.2597
     83  O        -12.2870   -2.2090   -0.4240 O.2    92  ASN92      -0.2718
     84  CB       -14.1250   -2.8400   -3.0050 C.3    92  ASN92       0.1169
     85  CG       -13.9300   -3.0060   -4.4950 C.2    92  ASN92       0.2627
     86  OD1      -12.9520   -3.5900   -4.9450 O.2    92  ASN92      -0.2716
     87  ND2      -14.8630   -2.4770   -5.2680 N.am   92  ASN92      -0.0877
     88  N        -14.0950   -3.4630    0.0170 N.am   93  LEU93      -0.1980
     89  CA       -14.3380   -2.7920    1.2930 C.3    93  LEU93       0.1596
     90  C        -13.6980   -3.4630    2.5050 C.2    93  LEU93       0.2287
     91  O        -13.4530   -2.8080    3.5110 O.2    93  LEU93      -0.2864
     92  CB       -15.8360   -2.5570    1.5200 C.3    93  LEU93       0.0297
     93  CG       -16.5540   -1.7310    0.4370 C.3    93  LEU93       0.0022
     94  CD1      -18.0570   -1.5680    0.7540 C.3    93  LEU93       0.0001
     95  CD2      -15.8700   -0.3780    0.2180 C.3    93  LEU93       0.0001
     96  N         -9.2940   -6.7900    1.0120 N.3    96  ILE96      -0.1245
     97  CA        -8.0710   -6.4630    0.2980 C.3    96  ILE96       0.1561
     98  C         -7.7350   -4.9900    0.4800 C.2    96  ILE96       0.2260
     99  O         -8.5350   -4.1190    0.1400 O.2    96  ILE96      -0.2867
    100  CB        -8.1660   -6.8310   -1.2120 C.3    96  ILE96       0.0252
    101  CG1       -9.0040   -8.1020   -1.4110 C.3    96  ILE96       0.0019
    102  CG2       -6.7780   -6.9930   -1.8170 C.3    96  ILE96       0.0019
    103  CD1       -8.4480   -9.0760   -2.4540 C.3    96  ILE96       0.0001
    104  N         -6.2230    6.6010   -1.2750 N.3   118  GLY118     -0.1210
    105  CA        -7.2220    5.7370   -1.8830 C.3   118  GLY118      0.1956
    106  C         -8.1900    5.1080   -0.9090 C.2   118  GLY118      0.2611
    107  O         -8.8940    4.1610   -1.2510 O.2   118  GLY118     -0.2717
    108  N         -8.2370    5.6310    0.3080 N.am  119  VAL119     -0.1979
    109  CA        -9.0030    4.9850    1.3680 C.3   119  VAL119      0.1595
    110  C         -9.9760    5.9440    2.0430 C.2   119  VAL119      0.2287
    111  O        -10.3780    5.7300    3.1900 O.2   119  VAL119     -0.2864
    112  CB        -8.0570    4.3480    2.4420 C.3   119  VAL119      0.0276
    113  CG1       -7.3940    3.0670    1.9040 C.3   119  VAL119      0.0022
    114  CG2       -7.0010    5.3530    2.8920 C.3   119  VAL119      0.0022
    115  N        -13.0410    6.3590    1.7600 N.3   121  PHE121     -0.1227
    116  CA       -14.2590    5.6880    2.2180 C.3   121  PHE121      0.1736
    117  C        -14.3370    5.6560    3.7400 C.2   121  PHE121      0.2595
    118  O        -15.3510    6.0480    4.3310 O.2   121  PHE121     -0.2718
    119  CB       -14.3220    4.2560    1.6670 C.3   121  PHE121      0.0547
    120  CG       -15.3970    3.4050    2.3010 C.ar  121  PHE121     -0.0202
    121  CD1      -16.7470    3.7290    2.1490 C.ar  121  PHE121     -0.0042
    122  CD2      -15.0590    2.2820    3.0450 C.ar  121  PHE121     -0.0042
    123  CE1      -17.7410    2.9390    2.7370 C.ar  121  PHE121     -0.0003
    124  CE2      -16.0460    1.4910    3.6380 C.ar  121  PHE121     -0.0003
    125  CZ       -17.3880    1.8160    3.4810 C.ar  121  PHE121     -0.0000
    126  N        -13.2490    5.2000    4.3640 N.am  122  TYR122     -0.1976
    127  CA       -13.1740    5.0370    5.8160 C.3   122  TYR122      0.1639
    128  C        -13.2990    6.3360    6.6260 C.2   122  TYR122      0.2290
    129  O        -13.5120    6.2940    7.8350 O.2   122  TYR122     -0.2864
    130  CB       -11.9030    4.2490    6.1870 C.3   122  TYR122      0.0560
    131  CG       -11.8970    2.9190    5.4740 C.ar  122  TYR122     -0.0198
    132  CD1      -12.7540    1.8960    5.8750 C.ar  122  TYR122     -0.0009
    133  CD2      -11.0870    2.7040    4.3650 C.ar  122  TYR122     -0.0009
    134  CE1      -12.7880    0.6750    5.1990 C.ar  122  TYR122      0.0417
    135  CE2      -11.1080    1.4950    3.6890 C.ar  122  TYR122      0.0417
    136  CZ       -11.9630    0.4850    4.1100 C.ar  122  TYR122      0.1957
    137  OH       -11.9850   -0.7060    3.4370 O.3   122  TYR122     -0.2866
    138  N        -23.4910   -0.0900    3.2970 N.3   133  VAL133     -0.1245
    139  CA       -23.3050    0.2070    1.8840 C.3   133  VAL133      0.1561
    140  C        -24.2450   -0.6880    1.0950 C.2   133  VAL133      0.2260
    141  O        -24.1320   -1.9100    1.1360 O.2   133  VAL133     -0.2867
    142  CB       -21.8470    0.0060    1.4130 C.3   133  VAL133      0.0252
    143  CG1      -21.7680    0.0930   -0.0960 C.3   133  VAL133      0.0019
    144  CG2      -20.9260    1.0460    2.0720 C.3   133  VAL133      0.0019
    145  N        -24.9860    2.9300   -5.8020 N.3   168  THR168     -0.1218
    146  CA       -24.6020    2.6780   -4.4290 C.3   168  THR168      0.1862
    147  C        -25.1920    3.7220   -3.4940 C.2   168  THR168      0.2287
    148  O        -25.2220    4.9190   -3.8120 O.2   168  THR168     -0.2866
    149  CB       -23.0570    2.6710   -4.3150 C.3   168  THR168      0.1770
    150  OG1      -22.5410    1.5990   -5.1140 O.3   168  THR168     -0.2211
    151  CG2      -22.6010    2.4930   -2.8780 C.3   168  THR168      0.0375
    152  N        -24.5400    4.9730    0.4310 N.3   170  LEU170     -0.1245
    153  CA       -23.8900    4.9220    1.7220 C.3   170  LEU170      0.1561
    154  C        -24.8700    5.4260    2.7770 C.2   170  LEU170      0.2260
    155  O        -25.2610    6.5910    2.7750 O.2   170  LEU170     -0.2867
    156  CB       -22.5990    5.7510    1.7160 C.3   170  LEU170      0.0270
    157  CG       -21.3310    4.9090    1.5380 C.3   170  LEU170      0.0019
    158  CD1      -21.3160    4.2830    0.1500 C.3   170  LEU170      0.0001
    159  CD2      -20.0770    5.7420    1.7900 C.3   170  LEU170      0.0001
@<TRIPOS>BOND
     1    38    37    2
     2    37    36    1
     3    36    35    1
     4    36    39    1
     5    67    65    1
     6    39    40    1
     7    65    64    1
     8    40    41    1
     9    64    61    1
    10    64    66    1
    11    33    32    2
    12    61    60    1
    13    61    62    1
    14    41    42    1
    15    25    24    2
    16    43    42    1
    17    63    62    2
    18    32    31    1
    19    62    68   am
    20    24    23    1
    21    24    30   am
    22    31    30    1
    23    31    34    1
    24    23    22    1
    25    23    26    1
    26    68    69    1
    27    28    27   ar
    28    71    70    2
    29    26    27    1
    30    20    19    2
    31    69    70    1
    32    27    29   ar
    33    70    72   am
    34    54    55    2
    35    54    53    1
    36    58    57   ar
    37    19    18    1
    38    72    73    1
    39    56    53    1
    40    56    57    1
    41    73    74    1
    42    73    76    1
    43    53    52    1
    44    74    75    2
    45    57    59   ar
    46    12    11    2
    47    18    21    1
    48    18    17    1
    49   145   146    1
    50    77    76    1
    51    77    78    1
    52    11    17   am
    53    11    10    1
    54    87    85   am
    55   150   149    1
    56    86    85    2
    57    10     9    1
    58    10    13    1
    59    85    84    1
    60   146   149    1
    61   146   147    1
    62   149   151    1
    63    78    79    1
    64   148   147    2
    65    13    14    1
    66    15    14    2
    67    84    81    1
    68    14    16   am
    69     4     3    2
    70   103   101    1
    71    80    81    1
    72    81    82    1
    73   105   104    1
    74   105   106    1
    75   102   100    1
    76     3     2    1
    77   101   100    1
    78   107   106    2
    79   100    97    1
    80    50    48    1
    81    46    47    2
    82    46    45    1
    83   106   108   am
    84    82    83    2
    85    82    88   am
    86     2     1    1
    87     2     5    1
    88   143   142    1
    89    45    48    1
    90    45    44    1
    91    88    89    1
    92    99    98    2
    93   158   157    1
    94    48    49    1
    95    95    93    1
    96    97    98    1
    97    97    96    1
    98   108   109    1
    99   152   153    1
   100    93    94    1
   101    93    92    1
   102     5     6    1
   103   140   141    2
   104   140   139    1
   105    89    92    1
   106    89    90    1
   107    49    51    1
   108   109   110    1
   109   109   112    1
   110   142   139    1
   111   142   144    1
   112   157   156    1
   113   157   159    1
   114   119   116    1
   115   119   120    1
   116   156   153    1
   117   153   154    1
   118   115   116    1
   119     8     6    1
   120   139   138    1
   121   113   112    1
   122   110   111    2
   123     6     7    1
   124   121   120   ar
   125   121   123   ar
   126   116   117    1
   127   120   122   ar
   128   112   114    1
   129    90    91    2
   130   123   125   ar
   131   155   154    2
   132   122   124   ar
   133   137   136    1
   134   125   124   ar
   135   135   136   ar
   136   135   133   ar
   137   117   118    2
   138   117   126   am
   139   136   134   ar
   140   126   127    1
   141   133   131   ar
   142   134   132   ar
   143   131   132   ar
   144   131   130    1
   145   127   130    1
   146   127   128    1
   147   128   129    2
