@<TRIPOS>MOLECULE
tmp/2xx5A00.pdb
 151 140 0 0 0
SMALL
GASTEIGER

@<TRIPOS>ATOM
      1  N         16.9300   11.1940   -0.0930 N.3    34  LEU34      -0.1245
      2  CA        18.0460   10.3770    0.3800 C.3    34  LEU34       0.1561
      3  C         18.5970   10.8880    1.7070 C.2    34  LEU34       0.2260
      4  O         18.9500   10.1030    2.5830 O.2    34  LEU34      -0.2867
      5  CB        19.1500   10.3020   -0.6770 C.3    34  LEU34       0.0270
      6  CG        18.6940    9.7670   -2.0370 C.3    34  LEU34       0.0019
      7  CD1       19.8800    9.5830   -2.9710 C.3    34  LEU34       0.0001
      8  CD2       17.9180    8.4600   -1.8760 C.3    34  LEU34       0.0001
      9  N         16.0940    9.7420    4.3660 N.3    37  ASN37      -0.1225
     10  CA        16.3020    8.3360    4.6960 C.3    37  ASN37       0.1785
     11  C         17.5220    8.1540    5.5810 C.2    37  ASN37       0.2597
     12  O         17.5220    7.3380    6.5040 O.2    37  ASN37      -0.2718
     13  CB        16.4460    7.4950    3.4240 C.3    37  ASN37       0.1169
     14  CG        15.1240    7.2940    2.7120 C.2    37  ASN37       0.2627
     15  OD1       14.1080    7.8540    3.1110 O.2    37  ASN37      -0.2716
     16  ND2       15.1340    6.4990    1.6470 N.am   37  ASN37      -0.0877
     17  N         18.5640    8.9270    5.2900 N.am   38  ALA38      -0.1979
     18  CA        19.7820    8.8980    6.0840 C.3    38  ALA38       0.1597
     19  C         19.4940    9.3670    7.5040 C.2    38  ALA38       0.2287
     20  O         19.8910    8.7230    8.4710 O.2    38  ALA38      -0.2864
     21  CB        20.8510    9.7670    5.4410 C.3    38  ALA38       0.0319
     22  N         17.7220    6.7000    9.4690 N.3    41  ALA41      -0.1245
     23  CA        18.6060    5.6190    9.8820 C.3    41  ALA41       0.1562
     24  C         19.4830    6.0520   11.0520 C.2    41  ALA41       0.2260
     25  O         19.8280    5.2480   11.9180 O.2    41  ALA41      -0.2867
     26  CB        19.4620    5.1550    8.7100 C.3    41  ALA41       0.0290
     27  N         17.2810    6.0300   14.2060 N.3    44  LYS44      -0.1245
     28  CA        17.1060    4.6630   14.6920 C.3    44  LYS44       0.1561
     29  C         18.2960    4.1490   15.4920 C.2    44  LYS44       0.2260
     30  O         18.1160    3.5690   16.5610 O.2    44  LYS44      -0.2867
     31  CB        16.7830    3.7110   13.5390 C.3    44  LYS44       0.0271
     32  CG        15.3750    3.8610   13.0050 C.3    44  LYS44       0.0035
     33  CD        15.1670    3.0380   11.7520 C.3    44  LYS44       0.0206
     34  CE        13.6890    2.8090   11.4950 C.3    44  LYS44       0.1093
     35  NZ        12.9220    4.0800   11.5710 N.3    44  LYS44      -0.1314
     36  N         26.0640    9.0140   -1.2030 N.3    77  ILE77      -0.1245
     37  CA        25.4810    9.5570    0.0170 C.3    77  ILE77       0.1561
     38  C         25.6390    8.5390    1.1360 C.2    77  ILE77       0.2260
     39  O         25.0410    7.4620    1.0980 O.2    77  ILE77      -0.2867
     40  CB        23.9860    9.9100   -0.1420 C.3    77  ILE77       0.0252
     41  CG1       23.7780   10.9120   -1.2800 C.3    77  ILE77       0.0019
     42  CG2       23.4420   10.4770    1.1570 C.3    77  ILE77       0.0019
     43  CD1       23.6080   10.2760   -2.6370 C.3    77  ILE77       0.0001
     44  N         25.7880    7.5680    5.4140 N.3    79  ASP79      -0.1239
     45  CA        25.4030    7.9000    6.7790 C.3    79  ASP79       0.1674
     46  C         25.9330    6.8250    7.7170 C.2    79  ASP79       0.2266
     47  O         26.1980    5.7010    7.2960 O.2    79  ASP79      -0.2867
     48  CB        23.8790    8.0250    6.9120 C.3    79  ASP79       0.1410
     49  CG        23.1600    6.7070    6.6670 C.2    79  ASP79       0.3668
     50  OD1       23.2620    5.8090    7.5230 O.co2  79  ASP79      -0.2456
     51  OD2       22.4880    6.5720    5.6240 O.co2  79  ASP79      -0.2456
     52  N         21.8260    3.0310   11.3280 N.3    82  ILE82      -0.1231
     53  CA        21.7280    1.6680   11.8460 C.3    82  ILE82       0.1692
     54  C         22.1260    0.6070   10.8210 C.2    82  ILE82       0.2593
     55  O         22.5290   -0.5000   11.1860 O.2    82  ILE82      -0.2718
     56  CB        20.3010    1.3700   12.3660 C.3    82  ILE82       0.0266
     57  CG1       20.2560    0.0250   13.0950 C.3    82  ILE82       0.0019
     58  CG2       19.2970    1.3930   11.2260 C.3    82  ILE82       0.0020
     59  CD1       18.9280   -0.2480   13.7710 C.3    82  ILE82       0.0001
     60  N         22.0040    0.9390    9.5400 N.am   83  GLY83      -0.1942
     61  CA        22.3830    0.0170    8.4860 C.3    83  GLY83       0.2014
     62  C         21.3580   -1.0790    8.2600 C.2    83  GLY83       0.2638
     63  O         20.3140   -1.1130    8.9110 O.2    83  GLY83      -0.2714
     64  N         21.6620   -1.9750    7.3290 N.am   84  MET84      -0.1976
     65  CA        20.7760   -3.0780    6.9900 C.3    84  MET84       0.1605
     66  C         21.5620   -4.3760    6.8290 C.2    84  MET84       0.2287
     67  O         22.6530   -4.3830    6.2610 O.2    84  MET84      -0.2864
     68  CB        20.0190   -2.7750    5.6960 C.3    84  MET84       0.0413
     69  CG        18.9990   -1.6440    5.8030 C.3    84  MET84       0.0598
     70  SD        18.2750   -1.2620    4.2000 S.3    84  MET84      -0.1393
     71  CE        19.6300   -0.3820    3.4240 C.3    84  MET84       0.0692
     72  N         17.5820   -7.8670    5.4620 N.3    88  GLU88      -0.1231
     73  CA        16.8760   -6.5940    5.3340 C.3    88  GLU88       0.1699
     74  C         17.0070   -6.0160    3.9270 C.2    88  GLU88       0.2592
     75  O         16.0390   -5.4990    3.3730 O.2    88  GLU88      -0.2718
     76  CB        17.3530   -5.5910    6.3890 C.3    88  GLU88       0.0402
     77  CG        16.8890   -5.9210    7.8010 C.3    88  GLU88       0.1161
     78  CD        17.5560   -5.0660    8.8650 C.2    88  GLU88       0.3649
     79  OE1       18.7730   -4.8120    8.7580 O.co2  88  GLU88      -0.2457
     80  OE2       16.8620   -4.6500    9.8150 O.co2  88  GLU88      -0.2457
     81  N         18.2000   -6.1090    3.3460 N.am   89  LEU89      -0.1980
     82  CA        18.4080   -5.6250    1.9830 C.3    89  LEU89       0.1596
     83  C         17.5240   -6.3880    1.0000 C.2    89  LEU89       0.2287
     84  O         16.8860   -5.7960    0.1310 O.2    89  LEU89      -0.2864
     85  CB        19.8780   -5.7570    1.5750 C.3    89  LEU89       0.0297
     86  CG        20.8890   -4.9060    2.3450 C.3    89  LEU89       0.0022
     87  CD1       22.3140   -5.3740    2.0460 C.3    89  LEU89       0.0001
     88  CD2       20.7160   -3.4320    2.0090 C.3    89  LEU89       0.0001
     89  N         13.4970   -5.5520    2.4830 N.3    92  ASN92      -0.1225
     90  CA        13.0880   -4.1510    2.4780 C.3    92  ASN92       0.1785
     91  C         12.9290   -3.5570    1.0760 C.2    92  ASN92       0.2597
     92  O         11.8840   -2.9970    0.7540 O.2    92  ASN92      -0.2718
     93  CB        14.0490   -3.3130    3.3230 C.3    92  ASN92       0.1169
     94  CG        13.8170   -3.4830    4.8110 C.2    92  ASN92       0.2627
     95  OD1       12.9270   -4.2210    5.2330 O.2    92  ASN92      -0.2716
     96  ND2       14.6250   -2.8010    5.6150 N.am   92  ASN92      -0.0877
     97  N         13.9640   -3.6700    0.2490 N.am   93  LEU93      -0.1980
     98  CA        13.8340   -3.3190   -1.1630 C.3    93  LEU93       0.1596
     99  C         13.5560   -4.5820   -1.9570 C.2    93  LEU93       0.2287
    100  O         14.4810   -5.2460   -2.4290 O.2    93  LEU93      -0.2864
    101  CB        15.0960   -2.6430   -1.6940 C.3    93  LEU93       0.0297
    102  CG        15.5100   -1.3550   -0.9950 C.3    93  LEU93       0.0022
    103  CD1       16.8710   -0.8820   -1.4600 C.3    93  LEU93       0.0001
    104  CD2       14.4910   -0.2490   -1.1960 C.3    93  LEU93       0.0001
    105  N         12.9090    6.4450   -1.7650 N.3   121  PHE121     -0.1241
    106  CA        14.1600    5.8260   -2.1910 C.3   121  PHE121      0.1605
    107  C         14.2620    5.7890   -3.7090 C.2   121  PHE121      0.2264
    108  O         15.3210    6.0570   -4.2790 O.2   121  PHE121     -0.2867
    109  CB        14.2790    4.4080   -1.6190 C.3   121  PHE121      0.0534
    110  CG        15.3300    3.5650   -2.2910 C.ar  121  PHE121     -0.0203
    111  CD1       16.6740    3.7480   -2.0080 C.ar  121  PHE121     -0.0042
    112  CD2       14.9700    2.5840   -3.2010 C.ar  121  PHE121     -0.0042
    113  CE1       17.6420    2.9700   -2.6250 C.ar  121  PHE121     -0.0003
    114  CE2       15.9290    1.8030   -3.8220 C.ar  121  PHE121     -0.0003
    115  CZ        17.2670    1.9920   -3.5320 C.ar  121  PHE121     -0.0000
    116  N         23.5580   -0.0020   -3.2090 N.3   133  VAL133     -0.1245
    117  CA        23.3830    0.2910   -1.8000 C.3   133  VAL133      0.1561
    118  C         24.3550   -0.5770   -1.0170 C.2   133  VAL133      0.2260
    119  O         24.2540   -1.8010   -1.0210 O.2   133  VAL133     -0.2867
    120  CB        21.9330    0.0460   -1.3380 C.3   133  VAL133      0.0252
    121  CG1       21.8130    0.2320    0.1650 C.3   133  VAL133      0.0019
    122  CG2       20.9850    0.9890   -2.0720 C.3   133  VAL133      0.0019
    123  N         23.8680   -4.2060   -2.4380 N.3   145  TRP145     -0.1241
    124  CA        22.5990   -4.3770   -3.1350 C.3   145  TRP145      0.1605
    125  C         22.6950   -3.5400   -4.4030 C.2   145  TRP145      0.2264
    126  O         23.1150   -2.3860   -4.3470 O.2   145  TRP145     -0.2867
    127  CB        21.4680   -3.8830   -2.2280 C.3   145  TRP145      0.0550
    128  CG        20.0760   -3.9420   -2.7900 C.ar  145  TRP145      0.0003
    129  CD1       19.1330   -4.8990   -2.5430 C.ar  145  TRP145      0.0946
    130  CD2       19.4540   -2.9810   -3.6540 C.ar  145  TRP145      0.0152
    131  NE1       17.9690   -4.6020   -3.2100 N.ar  145  TRP145     -0.2442
    132  CE2       18.1380   -3.4320   -3.9010 C.ar  145  TRP145      0.0810
    133  CE3       19.8790   -1.7870   -4.2460 C.ar  145  TRP145      0.0012
    134  CZ2       17.2500   -2.7330   -4.7170 C.ar  145  TRP145      0.0191
    135  CZ3       18.9930   -1.0930   -5.0570 C.ar  145  TRP145      0.0001
    136  CH2       17.6940   -1.5680   -5.2830 C.ar  145  TRP145      0.0015
    137  N         25.1820    3.0670    5.8800 N.3   168  THR168     -0.1218
    138  CA        24.7980    2.8170    4.5020 C.3   168  THR168      0.1862
    139  C         25.4070    3.8220    3.5360 C.2   168  THR168      0.2287
    140  O         25.4910    5.0120    3.8300 O.2   168  THR168     -0.2866
    141  CB        23.2630    2.8440    4.3580 C.3   168  THR168      0.1770
    142  OG1       22.6950    1.7990    5.1600 O.3   168  THR168     -0.2211
    143  CG2       22.8500    2.6540    2.9040 C.3   168  THR168      0.0375
    144  N         24.6860    5.0620   -0.3540 N.3   170  LEU170     -0.1245
    145  CA        23.9980    5.0180   -1.6310 C.3   170  LEU170      0.1561
    146  C         24.9570    5.5200   -2.6970 C.2   170  LEU170      0.2260
    147  O         25.3750    6.6780   -2.6720 O.2   170  LEU170     -0.2867
    148  CB        22.7170    5.8540   -1.6080 C.3   170  LEU170      0.0270
    149  CG        21.4260    5.0440   -1.4450 C.3   170  LEU170      0.0019
    150  CD1       21.3840    4.3670   -0.0840 C.3   170  LEU170      0.0001
    151  CD2       20.2040    5.9250   -1.6400 C.3   170  LEU170      0.0001
@<TRIPOS>BOND
     1   136   135   ar
     2   136   134   ar
     3   135   133   ar
     4   134   132   ar
     5   125   126    2
     6   125   124    1
     7   108   107    2
     8   133   130   ar
     9   132   130   ar
    10   132   131   ar
    11   114   115   ar
    12   114   112   ar
    13   107   106    1
    14   130   128   ar
    15   115   113   ar
    16   131   129   ar
    17   116   117    1
    18   112   110   ar
    19   124   123    1
    20   124   127    1
    21     7     6    1
    22   128   129   ar
    23   128   127    1
    24   146   147    2
    25   146   145    1
    26    43    41    1
    27   113   111   ar
    28   100    99    2
    29   110   111   ar
    30   110   109    1
    31   106   105    1
    32   106   109    1
    33   122   120    1
    34     6     8    1
    35     6     5    1
    36    99    98    1
    37   117   120    1
    38   117   118    1
    39   101    98    1
    40   101   102    1
    41   151   149    1
    42   145   148    1
    43   145   144    1
    44   148   149    1
    45   103   102    1
    46   149   150    1
    47   120   121    1
    48    41    40    1
    49    36    37    1
    50   104   102    1
    51    98    97    1
    52   119   118    2
    53     5     2    1
    54    40    37    1
    55    40    42    1
    56     1     2    1
    57    37    38    1
    58    84    83    2
    59    97    91   am
    60     2     3    1
    61    92    91    2
    62    83    82    1
    63    91    90    1
    64    39    38    2
    65    85    82    1
    66    85    86    1
    67    16    14   am
    68     3     4    2
    69    82    81    1
    70    88    86    1
    71    87    86    1
    72    90    89    1
    73    90    93    1
    74    14    15    2
    75    14    13    1
    76   143   141    1
    77    93    94    1
    78    81    74   am
    79    75    74    2
    80    13    10    1
    81    71    70    1
    82   139   140    2
    83   139   138    1
    84    74    73    1
    85    70    69    1
    86   141   138    1
    87   141   142    1
    88     9    10    1
    89   138   137    1
    90    10    11    1
    91    94    95    2
    92    94    96   am
    93    17    11   am
    94    17    18    1
    95    73    72    1
    96    73    76    1
    97    44    45    1
    98    21    18    1
    99    11    12    2
   100    51    49   ar
   101    68    69    1
   102    68    65    1
   103    18    19    1
   104    67    66    2
   105    76    77    1
   106    49    48    1
   107    49    50   ar
   108    45    48    1
   109    45    46    1
   110    66    65    1
   111    65    64    1
   112    47    46    2
   113    64    62   am
   114    19    20    2
   115    77    78    1
   116    62    61    1
   117    62    63    2
   118    61    60    1
   119    26    23    1
   120    79    78   ar
   121    78    80   ar
   122    22    23    1
   123    60    54   am
   124    23    24    1
   125    54    55    2
   126    54    53    1
   127    24    25    2
   128    58    56    1
   129    52    53    1
   130    34    35    1
   131    34    33    1
   132    33    32    1
   133    53    56    1
   134    56    57    1
   135    32    31    1
   136    57    59    1
   137    31    28    1
   138    27    28    1
   139    28    29    1
   140    29    30    2
