@<TRIPOS>MOLECULE
tmp/2xx7A01.pdb
 89 86 0 0 0
SMALL
GASTEIGER

@<TRIPOS>ATOM
      1  N         62.1900   29.2600   51.2770 N.3   104  LYS104     -0.1231
      2  CA        61.6510   28.7140   50.0510 C.3   104  LYS104      0.1678
      3  C         62.5360   29.2960   48.9450 C.2   104  LYS104      0.2434
      4  O         63.1520   30.3470   49.1490 O.2   104  LYS104     -0.2733
      5  CB        60.1750   29.0960   49.8440 C.3   104  LYS104      0.0284
      6  CG        59.2010   28.5010   50.8910 C.3   104  LYS104      0.0035
      7  CD        59.2130   26.9780   50.9000 C.3   104  LYS104      0.0206
      8  CE        58.1320   26.4040   51.8460 C.3   104  LYS104      0.1093
      9  NZ        58.3210   26.6580   53.3030 N.3   104  LYS104     -0.1314
     10  N         62.6320   28.6050   47.7880 N.am  105  PRO105     -0.2718
     11  CA        63.5580   29.0970   46.7610 C.3   105  PRO105      0.1535
     12  C         63.1810   30.4610   46.1410 C.2   105  PRO105      0.2599
     13  O         62.0020   30.7720   45.9800 O.2   105  PRO105     -0.2715
     14  CB        63.5250   28.0000   45.6960 C.3   105  PRO105      0.0310
     15  CG        62.2690   27.1660   45.9940 C.3   105  PRO105      0.0237
     16  CD        61.9460   27.3470   47.4140 C.3   105  PRO105      0.0939
     17  N         64.1990   31.2690   45.8180 N.am  106  PHE106     -0.1960
     18  CA        63.9890   32.5380   45.1340 C.3   106  PHE106      0.1771
     19  C         64.2110   32.4510   43.6230 C.2   106  PHE106      0.2619
     20  O         63.8660   33.3870   42.9090 O.2   106  PHE106     -0.2715
     21  CB        64.8160   33.6680   45.7660 C.3   106  PHE106      0.0574
     22  CG        66.2800   33.4980   45.6560 C.ar  106  PHE106     -0.0200
     23  CD1       66.9470   33.9200   44.5420 C.ar  106  PHE106     -0.0042
     24  CD2       67.0030   32.9240   46.6830 C.ar  106  PHE106     -0.0042
     25  CE1       68.3040   33.7810   44.4480 C.ar  106  PHE106     -0.0003
     26  CE2       68.3490   32.8010   46.6040 C.ar  106  PHE106     -0.0003
     27  CZ        69.0050   33.2130   45.4750 C.ar  106  PHE106     -0.0000
     28  N         64.7310   31.3360   43.1230 N.am  107  MET107     -0.1963
     29  CA        65.0230   31.2270   41.7070 C.3   107  MET107      0.1736
     30  C         65.2030   29.7680   41.3930 C.2   107  MET107      0.2617
     31  O         65.7430   29.0370   42.1960 O.2   107  MET107     -0.2715
     32  CB        66.2940   31.9920   41.3230 C.3   107  MET107      0.0427
     33  CG        66.6000   31.9910   39.8270 C.3   107  MET107      0.0599
     34  SD        68.1440   32.8300   39.3470 S.3   107  MET107     -0.1393
     35  CE        67.7690   34.5460   39.7360 C.3   107  MET107      0.0692
     36  N         64.7390   29.3660   40.2170 N.am  108  SER108     -0.1950
     37  CA        64.7510   27.9710   39.8210 C.3   108  SER108      0.1924
     38  C         65.9040   27.6960   38.8730 C.2   108  SER108      0.2314
     39  O         66.2530   28.5520   38.0520 O.2   108  SER108     -0.2863
     40  CB        63.4400   27.6140   39.1340 C.3   108  SER108      0.2116
     41  OG        63.3910   26.2230   38.8910 O.3   108  SER108     -0.2180
     42  N         66.3170   19.5440   38.5880 N.3   217  SER217     -0.1202
     43  CA        65.4590   20.6900   38.8240 C.3   217  SER217      0.2020
     44  C         65.3780   20.9970   40.3030 C.2   217  SER217      0.2619
     45  O         64.8130   20.2120   41.0870 O.2   217  SER217     -0.2717
     46  CB        64.0730   20.4370   38.2800 C.3   217  SER217      0.2103
     47  OG        64.0830   20.6430   36.8890 O.3   217  SER217     -0.2182
     48  N         65.9230   22.1590   40.6690 N.am  218  LYS218     -0.1965
     49  CA        66.0230   22.5440   42.0580 C.3   218  LYS218      0.1728
     50  C         65.9410   24.0480   42.2120 C.2   218  LYS218      0.2616
     51  O         65.3920   24.7240   41.3800 O.2   218  LYS218     -0.2715
     52  CB        67.2960   21.9730   42.6460 C.3   218  LYS218      0.0311
     53  CG        68.5040   22.2170   41.8340 C.3   218  LYS218      0.0038
     54  CD        69.6350   21.2520   42.1800 C.3   218  LYS218      0.0206
     55  CE        70.8820   21.5530   41.3310 C.3   218  LYS218      0.1093
     56  NZ        71.8970   20.4520   41.4970 N.3   218  LYS218     -0.1314
     57  N         66.4770   24.5740   43.2920 N.am  219  GLY219     -0.1955
     58  CA        66.4390   26.0040   43.4980 C.3   219  GLY219      0.1869
     59  C         67.5050   26.5360   44.3990 C.2   219  GLY219      0.2309
     60  O         68.1890   25.7700   45.0780 O.2   219  GLY219     -0.2863
     61  N         60.8020   36.3270   50.9300 N.3   238  VAL238     -0.1231
     62  CA        60.9500   35.6960   49.6310 C.3   238  VAL238      0.1692
     63  C         59.5800   35.4390   48.9430 C.2   238  VAL238      0.2591
     64  O         59.4100   35.6670   47.7500 O.2   238  VAL238     -0.2718
     65  CB        61.7040   34.3720   49.7570 C.3   238  VAL238      0.0266
     66  CG1       61.5910   33.5820   48.4460 C.3   238  VAL238      0.0020
     67  CG2       63.1470   34.6350   50.1810 C.3   238  VAL238      0.0020
     68  N         58.5990   34.9870   49.7000 N.am  239  LEU239     -0.1980
     69  CA        57.3080   34.6580   49.1120 C.3   239  LEU239      0.1596
     70  C         56.5910   35.9270   48.6190 C.2   239  LEU239      0.2287
     71  O         56.0590   35.9560   47.5160 O.2   239  LEU239     -0.2864
     72  CB        56.4560   33.8710   50.1050 C.3   239  LEU239      0.0297
     73  CG        56.9840   32.4480   50.4020 C.3   239  LEU239      0.0022
     74  CD1       56.0380   31.6660   51.3310 C.3   239  LEU239      0.0001
     75  CD2       57.1940   31.6540   49.1070 C.3   239  LEU239      0.0001
     76  N         58.3100   37.0620   45.4290 N.3   242  SER242     -0.1217
     77  CA        57.8500   36.2090   44.3400 C.3   242  SER242      0.1889
     78  C         56.4470   36.6590   43.8920 C.2   242  SER242      0.2288
     79  O         56.1910   36.9150   42.7140 O.2   242  SER242     -0.2866
     80  CB        57.7840   34.7440   44.8000 C.3   242  SER242      0.2089
     81  OG        57.2540   33.8710   43.7790 O.3   242  SER242     -0.2183
     82  N         61.0490   39.0490   41.7680 N.3   247  LEU247     -0.1245
     83  CA        62.1310   38.1420   41.3900 C.3   247  LEU247      0.1561
     84  C         62.2480   38.0730   39.8680 C.2   247  LEU247      0.2260
     85  O         63.3290   38.0690   39.3480 O.2   247  LEU247     -0.2867
     86  CB        61.9840   36.7520   42.0470 C.3   247  LEU247      0.0270
     87  CG        61.8700   36.7980   43.5990 C.3   247  LEU247      0.0019
     88  CD1       61.6360   35.3980   44.1500 C.3   247  LEU247      0.0001
     89  CD2       63.0810   37.4510   44.2590 C.3   247  LEU247      0.0001
@<TRIPOS>BOND
     1    47    46    1
     2    39    38    2
     3    46    43    1
     4    42    43    1
     5    43    44    1
     6    38    37    1
     7    41    40    1
     8    40    37    1
     9    34    35    1
    10    34    33    1
    11    85    84    2
    12    37    36    1
    13    33    32    1
    14    84    83    1
    15    36    30   am
    16    44    48   am
    17    44    45    2
    18    48    49    1
    19    32    29    1
    20    55    56    1
    21    55    54    1
    22    51    50    2
    23    83    82    1
    24    83    86    1
    25    30    29    1
    26    30    31    2
    27    29    28    1
    28    53    54    1
    29    53    52    1
    30    86    87    1
    31    49    50    1
    32    49    52    1
    33    50    57   am
    34    79    78    2
    35    20    19    2
    36    28    19   am
    37    57    58    1
    38    58    59    1
    39    87    88    1
    40    87    89    1
    41    19    18    1
    42    81    80    1
    43    78    77    1
    44    77    80    1
    45    77    76    1
    46    59    60    2
    47    25    23   ar
    48    25    27   ar
    49    23    22   ar
    50    18    21    1
    51    18    17    1
    52    27    26   ar
    53    22    21    1
    54    22    24   ar
    55    14    15    1
    56    14    11    1
    57    17    12   am
    58    13    12    2
    59    15    16    1
    60    12    11    1
    61    26    24   ar
    62    11    10    1
    63    16    10    1
    64    71    70    2
    65    64    63    2
    66    10     3   am
    67    66    65    1
    68    70    69    1
    69    63    62    1
    70    63    68   am
    71     3     4    2
    72     3     2    1
    73    75    73    1
    74    69    68    1
    75    69    72    1
    76    62    65    1
    77    62    61    1
    78    65    67    1
    79     5     2    1
    80     5     6    1
    81     2     1    1
    82    72    73    1
    83    73    74    1
    84     6     7    1
    85     7     8    1
    86     8     9    1
