@<TRIPOS>MOLECULE
tmp/2xx8A01.pdb
 97 94 0 0 0
SMALL
GASTEIGER

@<TRIPOS>ATOM
      1  N         62.7290   29.8470   51.4470 N.3   102  LYS102     -0.1231
      2  CA        62.1570   29.3970   50.2020 C.3   102  LYS102      0.1678
      3  C         63.0270   29.9660   49.0590 C.2   102  LYS102      0.2434
      4  O         63.6560   31.0190   49.2070 O.2   102  LYS102     -0.2733
      5  CB        60.7040   29.8740   50.0820 C.3   102  LYS102      0.0284
      6  CG        59.7110   29.1690   51.0460 C.3   102  LYS102      0.0035
      7  CD        59.6550   27.6600   50.7670 C.3   102  LYS102      0.0206
      8  CE        58.6550   26.9250   51.6710 C.3   102  LYS102      0.1093
      9  NZ        58.8290   27.2290   53.1220 N.3   102  LYS102     -0.1314
     10  N         63.1250   29.2410   47.9540 N.am  103  PRO103     -0.2718
     11  CA        64.0340   29.6820   46.8900 C.3   103  PRO103      0.1535
     12  C         63.6450   30.9970   46.2260 C.2   103  PRO103      0.2599
     13  O         62.4340   31.3030   46.0790 O.2   103  PRO103     -0.2715
     14  CB        63.9980   28.5400   45.8810 C.3   103  PRO103      0.0310
     15  CG        62.8080   27.7320   46.2400 C.3   103  PRO103      0.0237
     16  CD        62.4390   27.9790   47.6410 C.3   103  PRO103      0.0939
     17  N         64.6690   31.7760   45.8550 N.am  104  PHE104     -0.1960
     18  CA        64.4330   33.0200   45.1310 C.3   104  PHE104      0.1771
     19  C         64.6970   32.9220   43.6300 C.2   104  PHE104      0.2619
     20  O         64.3910   33.8460   42.8860 O.2   104  PHE104     -0.2715
     21  CB        65.2270   34.1980   45.7480 C.3   104  PHE104      0.0574
     22  CG        66.7210   34.0310   45.7080 C.ar  104  PHE104     -0.0200
     23  CD1       67.4580   34.4090   44.5860 C.ar  104  PHE104     -0.0042
     24  CD2       67.3850   33.5210   46.8150 C.ar  104  PHE104     -0.0042
     25  CE1       68.8530   34.2540   44.5720 C.ar  104  PHE104     -0.0003
     26  CE2       68.7590   33.3740   46.8250 C.ar  104  PHE104     -0.0003
     27  CZ        69.5030   33.7360   45.7160 C.ar  104  PHE104     -0.0000
     28  N         65.2580   31.7940   43.2040 N.am  105  MET105     -0.1963
     29  CA        65.6030   31.5870   41.8120 C.3   105  MET105      0.1736
     30  C         65.6200   30.0950   41.5600 C.2   105  MET105      0.2617
     31  O         66.0450   29.3130   42.4260 O.2   105  MET105     -0.2715
     32  CB        66.9880   32.1910   41.5220 C.3   105  MET105      0.0427
     33  CG        67.3270   32.3870   40.0460 C.3   105  MET105      0.0599
     34  SD        68.8280   33.3750   39.8900 S.3   105  MET105     -0.1393
     35  CE        68.1710   35.0070   39.8760 C.3   105  MET105      0.0692
     36  N         65.1600   29.7050   40.3740 N.am  106  SER106     -0.1950
     37  CA        65.1620   28.3080   39.9430 C.3   106  SER106      0.1924
     38  C         66.2960   28.1030   38.9520 C.2   106  SER106      0.2314
     39  O         66.5880   28.9860   38.1350 O.2   106  SER106     -0.2863
     40  CB        63.8420   27.9820   39.2610 C.3   106  SER106      0.2116
     41  OG        63.7160   28.7490   38.0750 O.3   106  SER106     -0.2180
     42  N         66.7020   19.9650   38.6490 N.3   215  SER215     -0.1202
     43  CA        65.9010   21.1470   38.9180 C.3   215  SER215      0.2020
     44  C         65.9990   21.4320   40.3940 C.2   215  SER215      0.2619
     45  O         65.8180   20.5470   41.2280 O.2   215  SER215     -0.2717
     46  CB        64.4380   20.9200   38.5300 C.3   215  SER215      0.2103
     47  OG        63.6720   22.0970   38.7450 O.3   215  SER215     -0.2182
     48  N         66.3090   22.6770   40.7240 N.am  216  LYS216     -0.1965
     49  CA        66.4300   23.0490   42.1220 C.3   216  LYS216      0.1728
     50  C         66.3900   24.5590   42.2450 C.2   216  LYS216      0.2616
     51  O         65.9100   25.2410   41.3420 O.2   216  LYS216     -0.2715
     52  CB        67.7140   22.4720   42.7150 C.3   216  LYS216      0.0311
     53  CG        68.9650   22.8290   41.9420 C.3   216  LYS216      0.0038
     54  CD        70.0160   21.7760   42.2160 C.3   216  LYS216      0.0206
     55  CE        71.2530   22.0720   41.3910 C.3   216  LYS216      0.1093
     56  NZ        72.2130   20.9340   41.4530 N.3   216  LYS216     -0.1314
     57  N         66.9050   25.0720   43.3560 N.am  217  GLY217     -0.1955
     58  CA        66.7750   26.5000   43.6570 C.3   217  GLY217      0.1869
     59  C         67.9210   27.0350   44.4780 C.2   217  GLY217      0.2309
     60  O         68.6310   26.2720   45.1320 O.2   217  GLY217     -0.2863
     61  N         61.3120   36.9930   51.0350 N.3   236  VAL236     -0.1231
     62  CA        61.4920   36.3320   49.7430 C.3   236  VAL236      0.1692
     63  C         60.1460   36.1060   49.0480 C.2   236  VAL236      0.2591
     64  O         59.9910   36.3650   47.8440 O.2   236  VAL236     -0.2718
     65  CB        62.2650   34.9920   49.8810 C.3   236  VAL236      0.0266
     66  CG1       62.2040   34.1800   48.5870 C.3   236  VAL236      0.0020
     67  CG2       63.6910   35.2640   50.2570 C.3   236  VAL236      0.0020
     68  N         59.1680   35.6240   49.8090 N.am  237  LEU237     -0.1980
     69  CA        57.8690   35.3490   49.2140 C.3   237  LEU237      0.1596
     70  C         57.1410   36.6160   48.7870 C.2   237  LEU237      0.2287
     71  O         56.4910   36.6340   47.7500 O.2   237  LEU237     -0.2864
     72  CB        57.0020   34.5560   50.1800 C.3   237  LEU237      0.0297
     73  CG        57.4770   33.1310   50.4710 C.3   237  LEU237      0.0022
     74  CD1       56.5660   32.5270   51.5150 C.3   237  LEU237      0.0001
     75  CD2       57.4650   32.3150   49.1950 C.3   237  LEU237      0.0001
     76  N         58.8920   37.8070   45.6050 N.3   240  SER240     -0.1217
     77  CA        58.5100   36.9330   44.5120 C.3   240  SER240      0.1889
     78  C         57.1250   37.3510   44.0130 C.2   240  SER240      0.2288
     79  O         56.9330   37.6020   42.8280 O.2   240  SER240     -0.2866
     80  CB        58.4600   35.4870   45.0160 C.3   240  SER240      0.2089
     81  OG        57.8710   34.6480   44.0410 O.3   240  SER240     -0.2183
     82  N         61.6420   39.7050   41.9050 N.3   245  LEU245     -0.1231
     83  CA        62.6760   38.7620   41.4970 C.3   245  LEU245      0.1693
     84  C         62.7730   38.6440   39.9680 C.2   245  LEU245      0.2592
     85  O         63.8690   38.5370   39.4140 O.2   245  LEU245     -0.2718
     86  CB        62.4090   37.3840   42.1280 C.3   245  LEU245      0.0284
     87  CG        62.2780   37.4100   43.6450 C.3   245  LEU245      0.0019
     88  CD1       62.0300   35.9940   44.1910 C.3   245  LEU245      0.0001
     89  CD2       63.5330   38.0030   44.2860 C.3   245  LEU245      0.0001
     90  N         61.6230   38.6910   39.2970 N.am  246  ASP246     -0.1974
     91  CA        61.5910   38.6730   37.8330 C.3   246  ASP246      0.1709
     92  C         62.2510   39.9120   37.2230 C.2   246  ASP246      0.2293
     93  O         63.0290   39.8100   36.2640 O.2   246  ASP246     -0.2864
     94  CB        60.1560   38.5560   37.3350 C.3   246  ASP246      0.1436
     95  CG        59.5190   37.2160   37.6830 C.2   246  ASP246      0.3671
     96  OD1       60.2140   36.1700   37.6220 O.co2 246  ASP246     -0.2456
     97  OD2       58.3060   37.2230   37.9920 O.co2 246  ASP246     -0.2456
@<TRIPOS>BOND
     1    93    92    2
     2    92    91    1
     3    94    95    1
     4    94    91    1
     5    96    95   ar
     6    95    97   ar
     7    91    90    1
     8    41    40    1
     9    39    38    2
    10    46    47    1
    11    46    43    1
    12    42    43    1
    13    43    44    1
    14    38    37    1
    15    40    37    1
    16    90    84   am
    17    85    84    2
    18    35    34    1
    19    34    33    1
    20    37    36    1
    21    84    83    1
    22    33    32    1
    23    36    30   am
    24    44    48   am
    25    44    45    2
    26    48    49    1
    27    51    50    2
    28    55    56    1
    29    55    54    1
    30    83    82    1
    31    83    86    1
    32    32    29    1
    33    30    29    1
    34    30    31    2
    35    29    28    1
    36    53    54    1
    37    53    52    1
    38    49    50    1
    39    49    52    1
    40    86    87    1
    41    50    57   am
    42    79    78    2
    43    20    19    2
    44    28    19   am
    45    57    58    1
    46    19    18    1
    47    87    88    1
    48    87    89    1
    49    58    59    1
    50    78    77    1
    51    81    80    1
    52    59    60    2
    53    77    80    1
    54    77    76    1
    55    25    23   ar
    56    25    27   ar
    57    23    22   ar
    58    18    21    1
    59    18    17    1
    60    22    21    1
    61    22    24   ar
    62    27    26   ar
    63    17    12   am
    64    14    15    1
    65    14    11    1
    66    13    12    2
    67    12    11    1
    68    15    16    1
    69    24    26   ar
    70    11    10    1
    71    16    10    1
    72    71    70    2
    73    64    63    2
    74    10     3   am
    75    66    65    1
    76    70    69    1
    77    63    62    1
    78    63    68   am
    79     3     4    2
    80     3     2    1
    81    75    73    1
    82    69    68    1
    83    69    72    1
    84    62    65    1
    85    62    61    1
    86    65    67    1
    87     5     2    1
    88     5     6    1
    89    72    73    1
    90     2     1    1
    91    73    74    1
    92     7     6    1
    93     7     8    1
    94     8     9    1
