@<TRIPOS>MOLECULE
tmp/2xx9B01.pdb
 89 86 0 0 0
SMALL
GASTEIGER

@<TRIPOS>ATOM
      1  N         61.2850   82.3000   61.6250 N.3   104  LYS104     -0.1231
      2  CA        60.6370   82.6430   60.3590 C.3   104  LYS104      0.1678
      3  C         61.5130   82.0680   59.2230 C.2   104  LYS104      0.2434
      4  O         62.7190   81.8800   59.4020 O.2   104  LYS104     -0.2733
      5  CB        60.4660   84.1570   60.2490 C.3   104  LYS104      0.0284
      6  CG        59.4250   84.7610   61.2210 C.3   104  LYS104      0.0035
      7  CD        58.0800   84.2600   60.8820 C.3   104  LYS104      0.0206
      8  CE        56.9920   84.9250   61.7270 C.3   104  LYS104      0.1093
      9  NZ        57.1880   84.8340   63.1700 N.3   104  LYS104     -0.1314
     10  N         60.9200   81.7640   58.0800 N.am  105  PRO105     -0.2718
     11  CA        61.7020   81.1070   57.0270 C.3   105  PRO105      0.1535
     12  C         62.7770   82.0320   56.4520 C.2   105  PRO105      0.2599
     13  O         62.5800   83.2540   56.3530 O.2   105  PRO105     -0.2715
     14  CB        60.6610   80.7530   55.9670 C.3   105  PRO105      0.0310
     15  CG        59.4310   81.5290   56.3390 C.3   105  PRO105      0.0237
     16  CD        59.4890   81.8540   57.7460 C.3   105  PRO105      0.0939
     17  N         63.9050   81.4380   56.0920 N.am  106  PHE106     -0.1960
     18  CA        64.9470   82.1560   55.4150 C.3   106  PHE106      0.1771
     19  C         64.9900   81.8710   53.9070 C.2   106  PHE106      0.2619
     20  O         65.7230   82.5240   53.2060 O.2   106  PHE106     -0.2715
     21  CB        66.3040   81.9020   56.0910 C.3   106  PHE106      0.0574
     22  CG        66.8120   80.4730   55.9900 C.ar  106  PHE106     -0.0200
     23  CD1       67.4790   80.0260   54.8360 C.ar  106  PHE106     -0.0042
     24  CD2       66.6560   79.6040   57.0220 C.ar  106  PHE106     -0.0042
     25  CE1       67.9760   78.7370   54.7400 C.ar  106  PHE106     -0.0003
     26  CE2       67.1530   78.2880   56.9360 C.ar  106  PHE106     -0.0003
     27  CZ        67.8170   77.8670   55.7630 C.ar  106  PHE106     -0.0000
     28  N         64.2760   80.8360   53.4530 N.am  107  MET107     -0.1963
     29  CA        64.0890   80.5550   52.0250 C.3   107  MET107      0.1736
     30  C         62.6380   80.1420   51.8750 C.2   107  MET107      0.2617
     31  O         62.1220   79.3690   52.6830 O.2   107  MET107     -0.2715
     32  CB        64.9710   79.3850   51.4900 C.3   107  MET107      0.0427
     33  CG        66.4960   79.4290   51.6880 C.3   107  MET107      0.0599
     34  SD        67.4230   78.3900   50.4540 S.3   107  MET107     -0.1393
     35  CE        66.9990   79.3490   49.0220 C.3   107  MET107      0.0692
     36  N         62.2520   80.1880   50.5900 N.am  108  SER108     -0.1950
     37  CA        61.0570   79.5130   50.1430 C.3   108  SER108      0.1924
     38  C         61.4350   78.2720   49.3000 C.2   108  SER108      0.2314
     39  O         62.5810   78.1380   48.8050 O.2   108  SER108     -0.2863
     40  CB        60.1950   80.5190   49.3500 C.3   108  SER108      0.2116
     41  OG        58.9310   79.9960   48.9640 O.3   108  SER108     -0.2180
     42  N         54.0570   74.7490   48.9380 N.3   217  SER217     -0.1202
     43  CA        54.7210   76.0340   49.1670 C.3   217  SER217      0.2020
     44  C         55.0130   76.2500   50.6470 C.2   217  SER217      0.2619
     45  O         54.1090   76.4670   51.4660 O.2   217  SER217     -0.2717
     46  CB        53.8860   77.1870   48.6090 C.3   217  SER217      0.2103
     47  OG        54.5370   78.4240   48.8010 O.3   217  SER217     -0.2182
     48  N         56.3000   76.2450   50.9700 N.am  218  LYS218     -0.1965
     49  CA        56.7330   76.2430   52.3390 C.3   218  LYS218      0.1728
     50  C         58.0820   76.8900   52.4860 C.2   218  LYS218      0.2616
     51  O         58.5310   77.6020   51.5860 O.2   218  LYS218     -0.2715
     52  CB        56.7270   74.8140   52.8820 C.3   218  LYS218      0.0311
     53  CG        57.5620   73.8500   52.1280 C.3   218  LYS218      0.0038
     54  CD        56.9770   72.4990   52.3370 C.3   218  LYS218      0.0206
     55  CE        57.7980   71.4140   51.6140 C.3   218  LYS218      0.1093
     56  NZ        57.0500   70.0970   51.6630 N.3   218  LYS218     -0.1314
     57  N         58.6920   76.7430   53.6700 N.am  219  GLY219     -0.1955
     58  CA        59.9800   77.3830   53.8950 C.3   219  GLY219      0.1869
     59  C         60.9490   76.5710   54.6940 C.2   219  GLY219      0.2309
     60  O         60.5500   75.6250   55.3680 O.2   219  GLY219     -0.2863
     61  N         67.0380   86.5050   61.3990 N.3   238  VAL238     -0.1231
     62  CA        66.5380   86.1020   60.0930 C.3   238  VAL238      0.1692
     63  C         65.7760   87.2410   59.4100 C.2   238  VAL238      0.2591
     64  O         65.9920   87.5140   58.2320 O.2   238  VAL238     -0.2718
     65  CB        65.6660   84.8470   60.1570 C.3   238  VAL238      0.0266
     66  CG1       64.9610   84.6310   58.7950 C.3   238  VAL238      0.0020
     67  CG2       66.5280   83.6100   60.6100 C.3   238  VAL238      0.0020
     68  N         64.9160   87.9320   60.1520 N.am  239  LEU239     -0.1980
     69  CA        64.1390   89.0420   59.5760 C.3   239  LEU239      0.1596
     70  C         65.0510   90.1840   59.1200 C.2   239  LEU239      0.2287
     71  O         64.8260   90.7840   58.0630 O.2   239  LEU239     -0.2864
     72  CB        63.0990   89.5450   60.5800 C.3   239  LEU239      0.0297
     73  CG        61.9630   88.5720   60.8860 C.3   239  LEU239      0.0022
     74  CD1       60.9900   89.1660   61.8860 C.3   239  LEU239      0.0001
     75  CD2       61.2250   88.1460   59.6080 C.3   239  LEU239      0.0001
     76  N         66.7880   89.1740   55.9390 N.3   242  SER242     -0.1217
     77  CA        65.7990   89.2850   54.8760 C.3   242  SER242      0.1889
     78  C         65.6920   90.7560   54.4000 C.2   242  SER242      0.2288
     79  O         65.8940   91.0480   53.2180 O.2   242  SER242     -0.2866
     80  CB        64.4220   88.7350   55.3260 C.3   242  SER242      0.2089
     81  OG        63.4490   88.9820   54.3190 O.3   242  SER242     -0.2183
     82  N         69.8350   87.6830   52.4150 N.3   247  LEU247     -0.1245
     83  CA        69.4030   86.3780   51.9570 C.3   247  LEU247      0.1561
     84  C         69.3420   86.3050   50.3980 C.2   247  LEU247      0.2260
     85  O         69.7040   85.2730   49.7970 O.2   247  LEU247     -0.2867
     86  CB        68.0670   86.0020   52.6300 C.3   247  LEU247      0.0270
     87  CG        68.0390   85.9560   54.1640 C.3   247  LEU247      0.0019
     88  CD1       66.5980   85.6800   54.6650 C.3   247  LEU247      0.0001
     89  CD2       69.0590   84.9070   54.6790 C.3   247  LEU247      0.0001
@<TRIPOS>BOND
     1    46    47    1
     2    46    43    1
     3    39    38    2
     4    42    43    1
     5    41    40    1
     6    35    34    1
     7    43    44    1
     8    38    37    1
     9    40    37    1
    10    85    84    2
    11    37    36    1
    12    84    83    1
    13    34    33    1
    14    36    30   am
    15    44    48   am
    16    44    45    2
    17    48    49    1
    18    32    33    1
    19    32    29    1
    20    51    50    2
    21    55    56    1
    22    55    54    1
    23    30    29    1
    24    30    31    2
    25    83    82    1
    26    83    86    1
    27    29    28    1
    28    53    54    1
    29    53    52    1
    30    49    50    1
    31    49    52    1
    32    50    57   am
    33    86    87    1
    34    20    19    2
    35    79    78    2
    36    28    19   am
    37    57    58    1
    38    58    59    1
    39    19    18    1
    40    87    88    1
    41    87    89    1
    42    81    80    1
    43    78    77    1
    44    59    60    2
    45    25    23   ar
    46    25    27   ar
    47    23    22   ar
    48    77    80    1
    49    77    76    1
    50    18    21    1
    51    18    17    1
    52    27    26   ar
    53    14    15    1
    54    14    11    1
    55    22    21    1
    56    22    24   ar
    57    17    12   am
    58    15    16    1
    59    13    12    2
    60    12    11    1
    61    26    24   ar
    62    11    10    1
    63    16    10    1
    64    71    70    2
    65    10     3   am
    66    64    63    2
    67    66    65    1
    68    70    69    1
    69     3     4    2
    70     3     2    1
    71    63    62    1
    72    63    68   am
    73    69    68    1
    74    69    72    1
    75    75    73    1
    76    62    65    1
    77    62    61    1
    78    65    67    1
    79     5     2    1
    80     5     6    1
    81     2     1    1
    82    72    73    1
    83     7     6    1
    84     7     8    1
    85    73    74    1
    86     8     9    1
