@<TRIPOS>MOLECULE
tmp/2xxaA00.pdb
 139 127 0 0 0
SMALL
GASTEIGER

@<TRIPOS>ATOM
      1  N        -44.0090    0.1730   12.2480 N.3   106  GLN106     -0.1231
      2  CA       -44.8830   -0.7880   11.5780 C.3   106  GLN106      0.1698
      3  C        -44.4970   -2.2280   11.9330 C.2   106  GLN106      0.2593
      4  O        -43.3650   -2.6490   11.6760 O.2   106  GLN106     -0.2718
      5  CB       -44.8350   -0.5790   10.0500 C.3   106  GLN106      0.0381
      6  CG       -45.6200    0.6400    9.5280 C.3   106  GLN106      0.0905
      7  CD       -44.9110    1.9940    9.5790 C.2   106  GLN106      0.2608
      8  OE1      -43.9230    2.2030   10.2980 O.2   106  GLN106     -0.2717
      9  NE2      -45.4410    2.9750    8.8450 N.am  106  GLN106     -0.0878
     10  N        -45.4330   -2.9370   12.5620 N.am  107  GLY107     -0.1942
     11  CA       -45.2990   -4.3410   12.9490 C.3   107  GLY107      0.2014
     12  C        -44.2870   -4.6860   14.0210 C.2   107  GLY107      0.2639
     13  O        -43.5870   -5.6970   13.9010 O.2   107  GLY107     -0.2714
     14  N        -44.2300   -3.8860   15.0950 N.am  108  ALA108     -0.1963
     15  CA       -43.3040   -4.1200   16.2070 C.3   108  ALA108      0.1728
     16  C        -43.8400   -5.1690   17.1960 C.2   108  ALA108      0.2617
     17  O        -43.0500   -5.9090   17.7810 O.2   108  ALA108     -0.2715
     18  CB       -43.0210   -2.8170   16.9350 C.3   108  ALA108      0.0334
     19  N        -45.1620   -5.2090   17.3650 N.am  109  GLY109     -0.1940
     20  CA       -45.8560   -6.1220   18.2710 C.3   109  GLY109      0.2014
     21  C        -46.7420   -5.4000   19.2650 C.2   109  GLY109      0.2639
     22  O        -46.8370   -5.8140   20.4220 O.2   109  GLY109     -0.2714
     23  N        -47.3970   -4.3170   18.8150 N.am  110  LYS110     -0.1963
     24  CA       -48.2400   -3.4460   19.6300 C.3   110  LYS110      0.1728
     25  C        -49.5380   -4.1210   20.0860 C.2   110  LYS110      0.2617
     26  O        -49.7080   -4.3270   21.2860 O.2   110  LYS110     -0.2715
     27  CB       -48.5730   -2.1420   18.8800 C.3   110  LYS110      0.0311
     28  CG       -47.3680   -1.2630   18.5490 C.3   110  LYS110      0.0038
     29  CD       -47.7440   -0.0080   17.7400 C.3   110  LYS110      0.0206
     30  CE       -48.0450   -0.2480   16.2740 C.3   110  LYS110      0.1093
     31  NZ       -46.9140   -0.8910   15.5570 N.3   110  LYS110     -0.1314
     32  N        -50.4500   -4.4490   19.1430 N.am  111  THR111     -0.1937
     33  CA       -51.7740   -5.0360   19.4060 C.3   111  THR111      0.2028
     34  C        -51.6980   -6.3490   20.2150 C.2   111  THR111      0.2642
     35  O        -52.5470   -6.5570   21.0870 O.2   111  THR111     -0.2714
     36  CB       -52.5460   -5.2500   18.1010 C.3   111  THR111      0.1808
     37  OG1      -52.2890   -4.1670   17.2080 O.3   111  THR111     -0.2208
     38  CG2      -54.0410   -5.3480   18.3260 C.3   111  THR111      0.0379
     39  N        -50.6840   -7.2150   19.9370 N.am  112  THR112     -0.1950
     40  CA       -50.4720   -8.4910   20.6480 C.3   112  THR112      0.1897
     41  C        -50.1320   -8.1910   22.1190 C.2   112  THR112      0.2313
     42  O        -50.7480   -8.7880   23.0090 O.2   112  THR112     -0.2863
     43  CB       -49.4000   -9.3610   19.9470 C.3   112  THR112      0.1794
     44  OG1      -49.7770   -9.5490   18.5820 O.3   112  THR112     -0.2208
     45  CG2      -49.2250  -10.7270   20.5990 C.3   112  THR112      0.0378
     46  N        -51.5550   -9.0600   25.6980 N.3   116  LYS116     -0.1245
     47  CA       -50.7210   -9.6680   26.7520 C.3   116  LYS116      0.1561
     48  C        -50.7420   -8.8090   28.0170 C.2   116  LYS116      0.2260
     49  O        -50.6080   -9.3560   29.1140 O.2   116  LYS116     -0.2867
     50  CB       -49.2700   -9.8870   26.2810 C.3   116  LYS116      0.0271
     51  CG       -49.0870  -11.0330   25.2710 C.3   116  LYS116      0.0035
     52  CD       -47.6140  -11.2440   24.8080 C.3   116  LYS116      0.0206
     53  CE       -47.0920  -10.2380   23.7850 C.3   116  LYS116      0.1093
     54  NZ       -45.6870  -10.5130   23.3790 N.3   116  LYS116     -0.1314
     55  N        -55.8220    2.1580   15.0820 N.3   135  ASP135     -0.1239
     56  CA       -55.3040    1.6420   13.8150 C.3   135  ASP135      0.1674
     57  C        -56.4840    1.5000   12.8680 C.2   135  ASP135      0.2266
     58  O        -57.3020    0.5920   13.0170 O.2   135  ASP135     -0.2867
     59  CB       -54.5310    0.3060   13.9810 C.3   135  ASP135      0.1410
     60  CG       -53.7190   -0.1480   12.7570 C.2   135  ASP135      0.3668
     61  OD1      -54.1100    0.1890   11.6190 O.co2 135  ASP135     -0.2456
     62  OD2      -52.6880   -0.8400   12.9440 O.co2 135  ASP135     -0.2456
     63  N        -54.2220   -0.4260    8.9410 N.3   138  ARG138     -0.1245
     64  CA       -53.9250   -1.8550    8.7570 C.3   138  ARG138      0.1563
     65  C        -55.2490   -2.6250    8.5590 C.2   138  ARG138      0.2260
     66  O        -56.1840   -2.4400    9.3520 O.2   138  ARG138     -0.2867
     67  CB       -53.1040   -2.4280    9.9450 C.3   138  ARG138      0.0307
     68  CG       -52.5220   -3.8380    9.7280 C.3   138  ARG138      0.0489
     69  CD       -53.0640   -4.8450   10.7320 C.3   138  ARG138      0.2205
     70  NE       -52.4210   -6.1550   10.6200 N.pl3 138  ARG138     -0.0865
     71  CZ       -51.3380   -6.5180   11.3000 C.cat 138  ARG138      0.5346
     72  NH1      -50.7630   -5.6740   12.1400 N.pl3 138  ARG138      0.1354
     73  NH2      -50.8200   -7.7280   11.1410 N.pl3 138  ARG138      0.1354
     74  N        -57.3260   -4.5780   11.6150 N.3   141  ALA141     -0.1245
     75  CA       -56.5150   -4.3440   12.8110 C.3   141  ALA141      0.1562
     76  C        -57.4260   -4.1610   14.0360 C.2   141  ALA141      0.2260
     77  O        -57.0150   -4.4310   15.1710 O.2   141  ALA141     -0.2867
     78  CB       -55.6470   -3.1200   12.6140 C.3   141  ALA141      0.0290
     79  N        -58.6600   -7.5780   14.9860 N.3   144  GLN144     -0.1245
     80  CA       -57.5250   -8.2660   15.5920 C.3   144  GLN144      0.1566
     81  C        -57.5630   -8.0540   17.1010 C.2   144  GLN144      0.2260
     82  O        -57.4890   -9.0340   17.8370 O.2   144  GLN144     -0.2867
     83  CB       -56.1970   -7.7770   14.9860 C.3   144  GLN144      0.0367
     84  CG       -55.0090   -8.7030   15.2550 C.3   144  GLN144      0.0905
     85  CD       -53.6640   -8.0110   15.1810 C.2   144  GLN144      0.2608
     86  OE1      -53.4130   -7.1570   14.3220 O.2   144  GLN144     -0.2717
     87  NE2      -52.7520   -8.3990   16.0620 N.am  144  GLN144     -0.0878
     88  N        -52.4450    1.8990   18.7150 N.3   188  THR188     -0.1218
     89  CA       -52.3440    2.7880   17.5510 C.3   188  THR188      0.1862
     90  C        -51.7150    2.0470   16.3630 C.2   188  THR188      0.2287
     91  O        -51.1400    0.9710   16.5310 O.2   188  THR188     -0.2866
     92  CB       -51.5640    4.0810   17.8770 C.3   188  THR188      0.1770
     93  OG1      -50.1970    3.7800   18.1810 O.3   188  THR188     -0.2211
     94  CG2      -52.2170    4.9140   18.9770 C.3   188  THR188      0.0375
     95  N        -49.2530    1.4390   12.8060 N.3   190  GLY190     -0.1225
     96  CA       -47.8340    1.3990   12.5020 C.3   190  GLY190      0.1811
     97  C        -47.4330    2.7450   11.9320 C.2   190  GLY190      0.2280
     98  O        -48.0120    3.1950   10.9370 O.2   190  GLY190     -0.2866
     99  N        -40.2480   -6.8390   22.2240 N.3   245  THR245     -0.1203
    100  CA       -40.9660   -8.0010   21.6940 C.3   245  THR245      0.1994
    101  C        -40.0640   -8.9130   20.8710 C.2   245  THR245      0.2617
    102  O        -39.0580   -8.4570   20.3310 O.2   245  THR245     -0.2717
    103  CB       -42.1620   -7.5340   20.8410 C.3   245  THR245      0.1784
    104  OG1      -41.7240   -6.5350   19.9120 O.3   245  THR245     -0.2211
    105  CG2      -43.3330   -7.0050   21.6940 C.3   245  THR245      0.0376
    106  N        -40.4620  -10.2010   20.7620 N.am  246  LYS246     -0.1979
    107  CA       -39.7960  -11.2950   20.0350 C.3   246  LYS246      0.1596
    108  C        -38.4210  -11.6250   20.6710 C.2   246  LYS246      0.2287
    109  O        -37.4810  -12.0280   19.9760 O.2   246  LYS246     -0.2864
    110  CB       -39.6810  -10.9850   18.5230 C.3   246  LYS246      0.0298
    111  CG       -41.0240  -10.9330   17.8240 C.3   246  LYS246      0.0038
    112  CD       -41.0040   -9.9990   16.6450 C.3   246  LYS246      0.0206
    113  CE       -42.3220   -9.2680   16.5350 C.3   246  LYS246      0.1093
    114  NZ       -42.3930   -8.4070   15.3220 N.3   246  LYS246     -0.1314
    115  N        -37.8640  -14.1300   22.5480 N.3   248  ASP248     -0.1239
    116  CA       -37.7460  -15.5950   22.4980 C.3   248  ASP248      0.1674
    117  C        -36.7950  -16.0570   21.3800 C.2   248  ASP248      0.2266
    118  O        -36.2740  -17.1730   21.4390 O.2   248  ASP248     -0.2867
    119  CB       -39.1310  -16.2430   22.3130 C.3   248  ASP248      0.1410
    120  CG       -39.9190  -15.7200   21.1270 C.2   248  ASP248      0.3668
    121  OD1      -40.3350  -14.5370   21.1610 O.co2 248  ASP248     -0.2456
    122  OD2      -40.1390  -16.4940   20.1790 O.co2 248  ASP248     -0.2456
    123  N        -41.6030   -9.6460   25.7320 N.3   271  GLY271     -0.1225
    124  CA       -42.4610  -10.6200   25.0730 C.3   271  GLY271      0.1811
    125  C        -41.6500  -11.8470   24.7340 C.2   271  GLY271      0.2280
    126  O        -40.5750  -11.7160   24.1480 O.2   271  GLY271     -0.2866
    127  N        -43.1040  -14.8020   23.1300 N.3   273  GLY273     -0.1210
    128  CA       -43.9090  -15.6370   22.2370 C.3   273  GLY273      0.1956
    129  C        -45.1460  -14.9610   21.6830 C.2   273  GLY273      0.2611
    130  O        -45.4850  -13.8400   22.0820 O.2   273  GLY273     -0.2717
    131  N        -45.8190  -15.6410   20.7400 N.am  274  GLU274     -0.1979
    132  CA       -47.0270  -15.1370   20.0820 C.3   274  GLU274      0.1602
    133  C        -48.2380  -15.1770   20.9990 C.2   274  GLU274      0.2287
    134  O        -49.1300  -14.3400   20.8610 O.2   274  GLU274     -0.2864
    135  CB       -47.3390  -15.9550   18.8280 C.3   274  GLU274      0.0415
    136  CG       -46.4000  -15.7360   17.6640 C.3   274  GLU274      0.1163
    137  CD       -46.9610  -16.2390   16.3490 C.2   274  GLU274      0.3649
    138  OE1      -47.7190  -15.4800   15.7000 O.co2 274  GLU274     -0.2457
    139  OE2      -46.6020  -17.3680   15.9400 O.co2 274  GLU274     -0.2457
@<TRIPOS>BOND
     1    65    64    1
     2    65    66    2
     3    64    63    1
     4    64    67    1
     5     9     7   am
     6     6     7    1
     7     6     5    1
     8     7     8    2
     9    68    67    1
    10    68    69    1
    11     5     2    1
    12    70    69    1
    13    70    71    2
    14    98    97    2
    15    73    71    1
    16    71    72    1
    17     2     3    1
    18     2     1    1
    19    74    75    1
    20    61    60   ar
    21     4     3    2
    22    97    96    1
    23     3    10   am
    24    96    95    1
    25    10    11    1
    26    78    75    1
    27    60    62   ar
    28    60    59    1
    29    75    76    1
    30    57    58    2
    31    57    56    1
    32    11    12    1
    33    56    59    1
    34    56    55    1
    35    13    12    2
    36    12    14   am
    37    76    77    2
    38    86    85    2
    39    83    84    1
    40    83    80    1
    41    79    80    1
    42    14    15    1
    43    85    84    1
    44    85    87   am
    45   114   113    1
    46    31    30    1
    47    80    81    1
    48   138   137   ar
    49   139   137   ar
    50    15    18    1
    51    15    16    1
    52    30    29    1
    53   137   136    1
    54    90    91    2
    55    90    89    1
    56   113   112    1
    57   112   111    1
    58    81    82    2
    59    16    19   am
    60    16    17    2
    61    37    36    1
    62    19    20    1
    63    89    92    1
    64    89    88    1
    65   136   135    1
    66    29    28    1
    67   111   110    1
    68    92    93    1
    69    92    94    1
    70    36    38    1
    71    36    33    1
    72    20    21    1
    73   110   107    1
    74    28    27    1
    75    44    43    1
    76    23    21   am
    77    23    24    1
    78   135   132    1
    79    27    24    1
    80    32    33    1
    81    32    25   am
    82    21    22    2
    83    33    34    1
    84    24    25    1
    85   104   103    1
    86    39    34   am
    87    39    40    1
    88    43    45    1
    89    43    40    1
    90   109   108    2
    91   107   108    1
    92   107   106    1
    93   132   131    1
    94   132   133    1
    95    25    26    2
    96   122   120   ar
    97    34    35    2
    98   102   101    2
    99    40    41    1
   100   131   129   am
   101   106   101   am
   102   103   105    1
   103   103   100    1
   104   134   133    2
   105   101   100    1
   106   120   121   ar
   107   120   119    1
   108   117   118    2
   109   117   116    1
   110   129   130    2
   111   129   128    1
   112   100    99    1
   113    41    42    2
   114   128   127    1
   115   119   116    1
   116   116   115    1
   117    54    53    1
   118    53    52    1
   119   126   125    2
   120   125   124    1
   121    52    51    1
   122   124   123    1
   123    51    50    1
   124    46    47    1
   125    50    47    1
   126    47    48    1
   127    48    49    2
