@<TRIPOS>MOLECULE
tmp/2xxaD01.pdb
 135 124 0 0 0
SMALL
GASTEIGER

@<TRIPOS>ATOM
      1  N        -35.5900  -22.2260   99.2250 N.3    88  ASN88      -0.1225
      2  CA       -34.4120  -21.4040   98.9900 C.3    88  ASN88       0.1785
      3  C        -34.5640  -20.0100   99.5930 C.2    88  ASN88       0.2598
      4  O        -35.5100  -19.2900   99.2620 O.2    88  ASN88      -0.2718
      5  CB       -34.1580  -21.3030   97.4930 C.3    88  ASN88       0.1169
      6  CG       -34.0700  -22.6440   96.8220 C.2    88  ASN88       0.2627
      7  OD1      -35.0680  -23.3480   96.6200 O.2    88  ASN88      -0.2716
      8  ND2      -32.8600  -23.0410   96.5110 N.am   88  ASN88      -0.0877
      9  N        -33.6410  -19.6680  100.4920 N.am   89  GLY89      -0.1942
     10  CA       -33.5800  -18.3730  101.1580 C.3    89  GLY89       0.2014
     11  C        -34.7370  -18.0400  102.0750 C.2    89  GLY89       0.2639
     12  O        -35.5840  -17.2100  101.7290 O.2    89  GLY89      -0.2714
     13  N        -34.7700  -18.6670  103.2560 N.am   90  VAL90      -0.1963
     14  CA       -35.8100  -18.4100  104.2540 C.3    90  VAL90       0.1727
     15  C        -35.1740  -18.0840  105.6050 C.2    90  VAL90       0.2617
     16  O        -35.8620  -17.5980  106.5020 O.2    90  VAL90      -0.2715
     17  CB       -36.8570  -19.5400  104.3750 C.3    90  VAL90       0.0290
     18  CG1      -37.9160  -19.4200  103.2870 C.3    90  VAL90       0.0023
     19  CG2      -36.2070  -20.9200  104.3740 C.3    90  VAL90       0.0023
     20  N        -33.8740  -18.3300  105.7240 N.am   91  GLY91      -0.1940
     21  CA       -33.1240  -18.0430  106.9380 C.3    91  GLY91       0.2014
     22  C        -32.6080  -19.2580  107.6730 C.2    91  GLY91       0.2639
     23  O        -32.1870  -19.1270  108.8230 O.2    91  GLY91      -0.2714
     24  N        -32.6050  -20.4380  107.0090 N.am   92  LYS92      -0.1963
     25  CA       -32.1970  -21.7440  107.5540 C.3    92  LYS92       0.1728
     26  C        -30.8670  -21.7090  108.3210 C.2    92  LYS92       0.2617
     27  O        -30.8590  -21.9770  109.5240 O.2    92  LYS92      -0.2715
     28  CB       -32.1100  -22.8050  106.4430 C.3    92  LYS92       0.0311
     29  CG       -33.4630  -23.2130  105.8580 C.3    92  LYS92       0.0038
     30  CD       -33.3820  -24.4470  104.9370 C.3    92  LYS92       0.0206
     31  CE       -32.6610  -24.2290  103.6170 C.3    92  LYS92       0.1093
     32  NZ       -33.2900  -23.1650  102.7870 N.3    92  LYS92      -0.1314
     33  N        -29.7650  -21.3660  107.6310 N.am   93  THR93      -0.1937
     34  CA       -28.4060  -21.3230  108.1740 C.3    93  THR93       0.2028
     35  C        -28.2910  -20.3170  109.3420 C.2    93  THR93       0.2642
     36  O        -27.6980  -20.6610  110.3690 O.2    93  THR93      -0.2714
     37  CB       -27.4110  -21.0190  107.0400 C.3    93  THR93       0.1808
     38  OG1      -27.6480  -21.9260  105.9630 O.3    93  THR93      -0.2208
     39  CG2      -25.9530  -21.1310  107.4770 C.3    93  THR93       0.0379
     40  N        -28.8640  -19.0970  109.1860 N.am   94  THR94      -0.1950
     41  CA       -28.8420  -18.0270  110.1970 C.3    94  THR94       0.1897
     42  C        -29.5880  -18.4920  111.4640 C.2    94  THR94       0.2313
     43  O        -29.0870  -18.2650  112.5700 O.2    94  THR94      -0.2863
     44  CB       -29.4080  -16.7110  109.6130 C.3    94  THR94       0.1794
     45  OG1      -28.6530  -16.3600  108.4500 O.3    94  THR94      -0.2208
     46  CG2      -29.3570  -15.5480  110.5950 C.3    94  THR94       0.0378
     47  N        -28.6040  -18.8910  115.6140 N.3    98  LYS98      -0.1245
     48  CA       -29.4730  -18.3450  116.6610 C.3    98  LYS98       0.1561
     49  C        -29.8650  -19.4580  117.6480 C.2    98  LYS98       0.2260
     50  O        -29.8600  -19.2360  118.8620 O.2    98  LYS98      -0.2867
     51  CB       -30.7470  -17.7190  116.0540 C.3    98  LYS98       0.0271
     52  CG       -30.5610  -16.5230  115.1180 C.3    98  LYS98       0.0035
     53  CD       -31.9290  -16.0930  114.5730 C.3    98  LYS98       0.0206
     54  CE       -31.8720  -15.2570  113.3220 C.3    98  LYS98       0.1093
     55  NZ       -33.2050  -15.1660  112.6650 N.3    98  LYS98      -0.1314
     56  N        -25.5570  -27.9630  103.0820 N.3   116  ASP116     -0.1239
     57  CA       -25.8340  -27.2980  101.8090 C.3   116  ASP116      0.1674
     58  C        -24.5580  -27.3820  100.9500 C.2   116  ASP116      0.2266
     59  O        -23.8610  -26.3850  100.7490 O.2   116  ASP116     -0.2867
     60  CB       -26.3290  -25.8470  102.0220 C.3   116  ASP116      0.1410
     61  CG       -26.7840  -25.0730  100.7800 C.2   116  ASP116      0.3668
     62  OD1      -26.6590  -25.6120   99.6520 O.co2 116  ASP116     -0.2456
     63  OD2      -27.2760  -23.9340  100.9400 O.co2 116  ASP116     -0.2456
     64  N        -25.1000  -24.9970   97.2850 N.3   119  ARG119     -0.1245
     65  CA       -24.9600  -23.5440   97.1560 C.3   119  ARG119      0.1563
     66  C        -23.5330  -23.0990   97.4830 C.2   119  ARG119      0.2260
     67  O        -22.8920  -23.6560   98.3820 O.2   119  ARG119     -0.2867
     68  CB       -25.9750  -22.7760   98.0150 C.3   119  ARG119      0.0307
     69  CG       -26.3710  -21.4500   97.3660 C.3   119  ARG119      0.0489
     70  CD       -26.8250  -20.3940   98.3510 C.3   119  ARG119      0.2205
     71  NE       -25.7480  -19.9530   99.2340 N.pl3 119  ARG119     -0.0865
     72  CZ       -25.7550  -20.0970  100.5540 C.cat 119  ARG119      0.5346
     73  NH1      -26.7960  -20.6590  101.1600 N.pl3 119  ARG119      0.1354
     74  NH2      -24.7320  -19.6730  101.2800 N.pl3 119  ARG119      0.1354
     75  N        -20.2340  -20.1730  105.2220 N.3   125  GLN125     -0.1245
     76  CA       -21.2720  -19.3980  105.9120 C.3   125  GLN125      0.1566
     77  C        -21.6220  -20.0310  107.2590 C.2   125  GLN125      0.2260
     78  O        -21.6910  -19.3130  108.2550 O.2   125  GLN125     -0.2867
     79  CB       -22.5330  -19.2650  105.0420 C.3   125  GLN125      0.0367
     80  CG       -23.5870  -18.3090  105.6170 C.3   125  GLN125      0.0905
     81  CD       -24.9800  -18.5130  105.0640 C.2   125  GLN125      0.2608
     82  OE1      -25.1810  -19.0290  103.9580 O.2   125  GLN125     -0.2717
     83  NE2      -25.9810  -18.0710  105.8120 N.am  125  GLN125     -0.0878
     84  N        -29.3240  -28.2500  105.4740 N.3   169  THR169     -0.1218
     85  CA       -29.5900  -28.8040  104.1350 C.3   169  THR169      0.1862
     86  C        -29.6540  -27.6540  103.1170 C.2   169  THR169      0.2287
     87  O        -29.6600  -26.4800  103.5010 O.2   169  THR169     -0.2866
     88  CB       -30.8780  -29.6750  104.0700 C.3   169  THR169      0.1770
     89  OG1      -32.0560  -28.8820  104.2640 O.3   169  THR169     -0.2211
     90  CG2      -30.8480  -30.8850  105.0030 C.3   169  THR169      0.0375
     91  N        -31.3380  -25.2940   99.9370 N.3   171  GLY171     -0.1225
     92  CA       -32.6050  -24.6390   99.6460 C.3   171  GLY171      0.1811
     93  C        -33.3040  -25.4510   98.5800 C.2   171  GLY171      0.2280
     94  O        -32.7780  -25.6040   97.4720 O.2   171  GLY171     -0.2866
     95  N        -39.4430  -17.0440  110.5240 N.3   232  THR232     -0.1203
     96  CA       -38.3560  -16.0650  110.4390 C.3   232  THR232      0.1994
     97  C        -38.7360  -14.8290  109.6080 C.2   232  THR232      0.2617
     98  O        -39.7290  -14.8610  108.8750 O.2   232  THR232     -0.2717
     99  CB       -37.1010  -16.7350  109.8630 C.3   232  THR232      0.1784
    100  OG1      -37.4570  -17.5010  108.7060 O.3   232  THR232     -0.2211
    101  CG2      -36.3850  -17.6100  110.8890 C.3   232  THR232      0.0376
    102  N        -37.9260  -13.7400  109.7390 N.am  233  LYS233     -0.1979
    103  CA       -38.0470  -12.4360  109.0610 C.3   233  LYS233      0.1596
    104  C        -39.4020  -11.7870  109.3990 C.2   233  LYS233      0.2287
    105  O        -40.0340  -11.1340  108.5650 O.2   233  LYS233     -0.2864
    106  CB       -37.8250  -12.5640  107.5350 C.3   233  LYS233      0.0298
    107  CG       -36.4790  -13.1770  107.1630 C.3   233  LYS233      0.0038
    108  CD       -36.3160  -13.3780  105.6750 C.3   233  LYS233      0.0206
    109  CE       -35.2950  -14.4470  105.3980 C.3   233  LYS233      0.1093
    110  NZ       -35.1720  -14.7340  103.9480 N.3   233  LYS233     -0.1314
    111  N        -39.6610   -9.5420  111.8240 N.3   235  ASP235     -0.1239
    112  CA       -39.2910   -8.2150  112.3310 C.3   235  ASP235      0.1674
    113  C        -39.7500   -7.0520  111.4210 C.2   235  ASP235      0.2266
    114  O        -39.8250   -5.9140  111.8920 O.2   235  ASP235     -0.2867
    115  CB       -37.7680   -8.1220  112.5810 C.3   235  ASP235      0.1410
    116  CG       -36.8690   -8.7280  111.5120 C.2   235  ASP235      0.3668
    117  OD1      -37.0280   -9.9360  111.2130 O.co2 235  ASP235     -0.2456
    118  OD2      -35.9430   -8.0270  111.0500 O.co2 235  ASP235     -0.2456
    119  N        -38.0260  -15.8120  114.2690 N.3   258  GLY258     -0.1225
    120  CA       -36.8920  -15.0050  113.8270 C.3   258  GLY258      0.1811
    121  C        -37.2570  -13.5400  113.7140 C.2   258  GLY258      0.2280
    122  O        -38.1280  -13.1770  112.9170 O.2   258  GLY258     -0.2866
    123  N        -34.7570  -10.7470  113.4560 N.3   260  GLY260     -0.1210
    124  CA       -33.5210  -10.0270  113.1720 C.3   260  GLY260      0.1956
    125  C        -32.4040  -10.8850  112.6160 C.2   260  GLY260      0.2611
    126  O        -32.5170  -12.1120  112.5770 O.2   260  GLY260     -0.2717
    127  N        -31.3140  -10.2320  112.1840 N.am  261  GLU261     -0.1979
    128  CA       -30.1420  -10.8870  111.5940 C.3   261  GLU261      0.1602
    129  C        -29.0730  -11.2080  112.6560 C.2   261  GLU261      0.2287
    130  O        -28.1770  -12.0100  112.3860 O.2   261  GLU261     -0.2864
    131  CB       -29.5490  -10.0230  110.4670 C.3   261  GLU261      0.0415
    132  CG       -30.4630   -9.8930  109.2600 C.3   261  GLU261      0.1163
    133  CD       -29.9280   -9.0420  108.1270 C.2   261  GLU261      0.3649
    134  OE1      -30.0020   -7.7960  108.2290 O.co2 261  GLU261     -0.2457
    135  OE2      -29.4490   -9.6230  107.1270 O.co2 261  GLU261     -0.2457
@<TRIPOS>BOND
     1     8     6   am
     2     7     6    2
     3     6     5    1
     4    65    64    1
     5    65    66    1
     6    65    68    1
     7    69    68    1
     8    69    70    1
     9    94    93    2
    10    66    67    2
    11     5     2    1
    12    70    71    1
    13    93    92    1
    14     2     1    1
    15     2     3    1
    16    71    72    2
    17     4     3    2
    18     3     9   am
    19    92    91    1
    20    62    61   ar
    21     9    10    1
    22    72    73    1
    23    72    74    1
    24    59    58    2
    25    61    63   ar
    26    61    60    1
    27    58    57    1
    28    10    11    1
    29    12    11    2
    30    57    60    1
    31    57    56    1
    32    11    13   am
    33    32    31    1
    34    86    87    2
    35    86    85    1
    36    13    14    1
    37    18    17    1
    38    31    30    1
    39   110   109    1
    40    82    81    2
    41    88    85    1
    42    88    89    1
    43    88    90    1
    44    85    84    1
    45    14    17    1
    46    14    15    1
    47    19    17    1
    48    30    29    1
    49    79    80    1
    50    79    76    1
    51    81    80    1
    52    81    83   am
    53    75    76    1
    54   109   108    1
    55    15    20   am
    56    15    16    2
    57   108   107    1
    58    20    21    1
    59    29    28    1
    60    76    77    1
    61    38    37    1
    62    28    25    1
    63    21    22    1
    64    24    25    1
    65    24    22   am
    66    37    39    1
    67    37    34    1
    68   135   133   ar
    69   107   106    1
    70    77    78    2
    71   106   103    1
    72    25    26    1
    73    33    34    1
    74    33    26   am
    75    22    23    2
    76   133   134   ar
    77   133   132    1
    78    34    35    1
    79    26    27    2
    80    45    44    1
    81   105   104    2
    82   100    99    1
    83    98    97    2
    84   103   104    1
    85   103   102    1
    86    40    35   am
    87    40    41    1
    88   132   131    1
    89    35    36    2
    90    97   102   am
    91    97    96    1
    92    44    41    1
    93    44    46    1
    94    99    96    1
    95    99   101    1
    96    41    42    1
    97    96    95    1
    98   131   128    1
    99   118   116   ar
   100   117   116   ar
   101   113   114    2
   102   113   112    1
   103    42    43    2
   104   116   115    1
   105   128   127    1
   106   128   129    1
   107   111   112    1
   108   127   125   am
   109   112   115    1
   110   130   129    2
   111   126   125    2
   112   125   124    1
   113    55    54    1
   114   122   121    2
   115   124   123    1
   116    54    53    1
   117   121   120    1
   118   120   119    1
   119    53    52    1
   120    52    51    1
   121    47    48    1
   122    51    48    1
   123    48    49    1
   124    49    50    2
