@<TRIPOS>MOLECULE
tmp/2xxbA00.pdb
 129 122 0 0 0
SMALL
GASTEIGER

@<TRIPOS>ATOM
      1  N          7.8490  -28.2480  -12.5170 N.3     6  VAL6       -0.1231
      2  CA         7.8750  -28.3910  -11.0680 C.3     6  VAL6        0.1692
      3  C          6.5570  -27.9300  -10.4770 C.2     6  VAL6        0.2592
      4  O          6.1500  -26.7960  -10.6930 O.2     6  VAL6       -0.2718
      5  CB         8.9940  -27.5750  -10.4290 C.3     6  VAL6        0.0266
      6  CG1        8.9610  -27.7590   -8.9070 C.3     6  VAL6        0.0020
      7  CG2       10.3260  -27.9730  -11.0150 C.3     6  VAL6        0.0020
      8  N          5.9160  -28.7990   -9.7040 N.am    7  GLY7       -0.1957
      9  CA         4.5370  -28.5900   -9.2890 C.3     7  GLY7        0.1869
     10  C          3.6580  -29.3850  -10.2350 C.2     7  GLY7        0.2309
     11  O          3.2900  -28.9240  -11.3150 O.2     7  GLY7       -0.2863
     12  N          0.5040  -30.3330  -10.1220 N.3     9  GLY9       -0.1210
     13  CA        -0.9010  -30.2120   -9.7750 C.3     9  GLY9        0.1956
     14  C         -1.7450  -30.0550  -11.0310 C.2     9  GLY9        0.2612
     15  O         -1.3690  -30.5410  -12.1070 O.2     9  GLY9       -0.2717
     16  N         -2.8800  -29.3770  -10.9170 N.am   10  MET10      -0.1965
     17  CA        -3.6960  -29.1820  -12.1090 C.3    10  MET10       0.1736
     18  C         -2.9230  -28.4100  -13.1660 C.2    10  MET10       0.2616
     19  O         -2.8460  -28.8460  -14.3070 O.2    10  MET10      -0.2715
     20  CB        -5.0280  -28.5180  -11.7900 C.3    10  MET10       0.0427
     21  CG        -5.9320  -29.3610  -10.8800 C.3    10  MET10       0.0599
     22  SD        -6.0200  -31.1240  -11.3240 S.3    10  MET10      -0.1393
     23  CE        -6.5200  -31.0110  -13.0250 C.3    10  MET10       0.0692
     24  N         -2.3230  -27.2820  -12.7810 N.am   11  VAL11      -0.1963
     25  CA        -1.6430  -26.4260  -13.7620 C.3    11  VAL11       0.1727
     26  C         -0.4440  -27.1160  -14.4060 C.2    11  VAL11       0.2616
     27  O         -0.3040  -27.1070  -15.6280 O.2    11  VAL11      -0.2715
     28  CB        -1.1960  -25.0880  -13.1480 C.3    11  VAL11       0.0290
     29  CG1       -0.3310  -24.3010  -14.1300 C.3    11  VAL11       0.0023
     30  CG2       -2.4040  -24.2770  -12.7050 C.3    11  VAL11       0.0023
     31  N          0.3960  -27.7320  -13.5770 N.am   12  GLY12      -0.1955
     32  CA         1.5700  -28.4440  -14.0460 C.3    12  GLY12       0.1869
     33  C          1.2490  -29.6710  -14.8860 C.2    12  GLY12       0.2309
     34  O          1.8540  -29.8740  -15.9390 O.2    12  GLY12      -0.2863
     35  N          7.8010  -32.9700  -11.5170 N.3    31  VAL31      -0.1231
     36  CA         8.3520  -33.0050  -10.1620 C.3    31  VAL31       0.1692
     37  C          7.3740  -32.3990   -9.1610 C.2    31  VAL31       0.2592
     38  O          6.7730  -31.3610   -9.4310 O.2    31  VAL31      -0.2718
     39  CB         9.6830  -32.2570  -10.0890 C.3    31  VAL31       0.0266
     40  CG1       10.3290  -32.4290   -8.7090 C.3    31  VAL31       0.0020
     41  CG2       10.6130  -32.7610  -11.1660 C.3    31  VAL31       0.0020
     42  N          7.2070  -33.0550   -8.0150 N.am   32  ASP32      -0.1960
     43  CA         6.2860  -32.5780   -6.9850 C.3    32  ASP32       0.1840
     44  C          6.6880  -33.0830   -5.5930 C.2    32  ASP32       0.2622
     45  O          7.2820  -34.1510   -5.4710 O.2    32  ASP32      -0.2715
     46  CB         4.8510  -33.0020   -7.3250 C.3    32  ASP32       0.1450
     47  CG         3.8110  -32.1830   -6.5820 C.2    32  ASP32       0.3671
     48  OD1        3.7010  -32.3240   -5.3410 O.co2  32  ASP32      -0.2456
     49  OD2        3.1000  -31.4000   -7.2390 O.co2  32  ASP32      -0.2456
     50  N          6.3720  -32.3150   -4.5470 N.am   33  LEU33      -0.1963
     51  CA         6.6270  -32.7650   -3.1760 C.3    33  LEU33       0.1728
     52  C          5.9110  -34.0790   -2.9110 C.2    33  LEU33       0.2616
     53  O          6.4180  -34.9540   -2.1910 O.2    33  LEU33      -0.2715
     54  CB         6.1360  -31.7460   -2.1580 C.3    33  LEU33       0.0311
     55  CG         6.9390  -30.4840   -1.8990 C.3    33  LEU33       0.0022
     56  CD1        6.4290  -29.8730   -0.6110 C.3    33  LEU33       0.0001
     57  CD2        8.4280  -30.7820   -1.8010 C.3    33  LEU33       0.0001
     58  N          4.7110  -34.1910   -3.4790 N.am   34  ASP34      -0.1971
     59  CA         3.9040  -35.3890   -3.3620 C.3    34  ASP34       0.1709
     60  C          4.3050  -36.2560   -4.5320 C.2    34  ASP34       0.2293
     61  O          3.7970  -36.0890   -5.6530 O.2    34  ASP34      -0.2864
     62  CB         2.4170  -35.0330   -3.4210 C.3    34  ASP34       0.1436
     63  CG         1.5160  -36.2340   -3.1940 C.2    34  ASP34       0.3671
     64  OD1        2.0390  -37.3420   -2.9570 O.co2  34  ASP34      -0.2456
     65  OD2        0.2800  -36.0600   -3.2450 O.co2  34  ASP34      -0.2456
     66  N          1.6300  -38.2430   -6.4520 N.3    37  LEU37      -0.1245
     67  CA         0.7800  -37.4140   -7.2900 C.3    37  LEU37       0.1561
     68  C          1.4640  -37.2460   -8.6460 C.2    37  LEU37       0.2260
     69  O          0.8500  -37.3700   -9.7010 O.2    37  LEU37      -0.2867
     70  CB         0.6140  -36.0290   -6.6610 C.3    37  LEU37       0.0270
     71  CG        -0.1510  -34.9910   -7.4740 C.3    37  LEU37       0.0019
     72  CD1       -1.5410  -35.5190   -7.8000 C.3    37  LEU37       0.0001
     73  CD2       -0.2390  -33.6590   -6.7160 C.3    37  LEU37       0.0001
     74  N         14.3690  -33.2680   -8.5300 N.3    62  TYR62      -0.1241
     75  CA        15.0520  -32.1230   -9.1370 C.3    62  TYR62       0.1605
     76  C         16.2650  -32.5530   -9.9510 C.2    62  TYR62       0.2264
     77  O         16.5130  -32.0240  -11.0290 O.2    62  TYR62      -0.2867
     78  CB        15.4620  -31.0870   -8.0820 C.3    62  TYR62       0.0534
     79  CG        14.2920  -30.4820   -7.3490 C.ar   62  TYR62      -0.0201
     80  CD1       13.5830  -29.3970   -7.8810 C.ar   62  TYR62      -0.0009
     81  CD2       13.8740  -31.0040   -6.1290 C.ar   62  TYR62      -0.0009
     82  CE1       12.4900  -28.8480   -7.1960 C.ar   62  TYR62       0.0417
     83  CE2       12.7960  -30.4600   -5.4430 C.ar   62  TYR62       0.0417
     84  CZ        12.1030  -29.3930   -5.9760 C.ar   62  TYR62       0.1957
     85  OH        11.0330  -28.8820   -5.2640 O.3    62  TYR62      -0.2866
     86  N          5.3040  -24.3900  -11.6810 N.3    74  ALA74      -0.1231
     87  CA         3.8660  -24.4270  -11.4580 C.3    74  ALA74       0.1694
     88  C          3.5590  -24.8820  -10.0350 C.2    74  ALA74       0.2592
     89  O          2.4690  -25.3710   -9.7520 O.2    74  ALA74      -0.2718
     90  CB         3.2030  -25.3320  -12.4720 C.3    74  ALA74       0.0304
     91  N          4.5380  -24.7060   -9.1490 N.am   75  ALA75      -0.1966
     92  CA         4.4510  -25.1620   -7.7640 C.3    75  ALA75       0.1728
     93  C          3.7950  -24.1050   -6.9050 C.2    75  ALA75       0.2617
     94  O          3.9200  -22.9100   -7.1770 O.2    75  ALA75      -0.2715
     95  CB         5.8450  -25.4850   -7.2250 C.3    75  ALA75       0.0334
     96  N          3.1030  -24.5410   -5.8590 N.am   76  GLY76      -0.1940
     97  CA         2.3840  -23.6140   -5.0040 C.3    76  GLY76       0.2014
     98  C          1.5710  -24.3370   -3.9560 C.2    76  GLY76       0.2638
     99  O          1.3060  -25.5290   -4.1000 O.2    76  GLY76      -0.2714
    100  N          1.1830  -23.6200   -2.9040 N.am   77  VAL77      -0.1977
    101  CA         0.4480  -24.2180   -1.7940 C.3    77  VAL77       0.1596
    102  C         -1.0390  -23.8990   -1.8990 C.2    77  VAL77       0.2287
    103  O         -1.4390  -23.0120   -2.6470 O.2    77  VAL77      -0.2864
    104  CB         0.9740  -23.7260   -0.4270 C.3    77  VAL77       0.0276
    105  CG1        2.4990  -23.7490   -0.3930 C.3    77  VAL77       0.0022
    106  CG2        0.4660  -22.3230   -0.1410 C.3    77  VAL77       0.0022
    107  N          8.0660  -21.1890   -1.0570 N.3    95  VAL95      -0.1245
    108  CA         8.1680  -22.3830   -1.9000 C.3    95  VAL95       0.1561
    109  C          9.2030  -22.1500   -3.0020 C.2    95  VAL95       0.2260
    110  O         10.0470  -23.0120   -3.2820 O.2    95  VAL95      -0.2867
    111  CB         6.8040  -22.7480   -2.5400 C.3    95  VAL95       0.0252
    112  CG1        6.9680  -23.7890   -3.6350 C.3    95  VAL95       0.0019
    113  CG2        5.8180  -23.2380   -1.4940 C.3    95  VAL95       0.0019
    114  N         12.8070  -22.1890   -2.2900 N.3    98  GLN98      -0.1231
    115  CA        13.2280  -23.5870   -2.2290 C.3    98  GLN98       0.1698
    116  C         13.4540  -24.1670   -3.6230 C.2    98  GLN98       0.2592
    117  O         14.4600  -24.8290   -3.8770 O.2    98  GLN98      -0.2718
    118  CB        12.1980  -24.4320   -1.4760 C.3    98  GLN98       0.0381
    119  CG        12.2910  -24.3400    0.0450 C.3    98  GLN98       0.0905
    120  CD        13.5950  -24.8930    0.5810 C.2    98  GLN98       0.2608
    121  OE1       14.2530  -25.7100   -0.0680 O.2    98  GLN98      -0.2717
    122  NE2       13.9760  -24.4510    1.7720 N.am   98  GLN98      -0.0878
    123  N         12.5120  -23.9030   -4.5220 N.am   99  VAL99      -0.1980
    124  CA        12.4870  -24.5400   -5.8330 C.3    99  VAL99       0.1595
    125  C         13.5810  -24.0340   -6.7870 C.2    99  VAL99       0.2287
    126  O         14.2740  -24.8270   -7.4150 O.2    99  VAL99      -0.2864
    127  CB        11.1030  -24.3710   -6.4800 C.3    99  VAL99       0.0276
    128  CG1       11.1270  -24.8240   -7.9290 C.3    99  VAL99       0.0022
    129  CG2       10.0550  -25.1510   -5.6930 C.3    99  VAL99       0.0022
@<TRIPOS>BOND
     1    34    33    2
     2    27    26    2
     3    33    32    1
     4    26    25    1
     5    26    31   am
     6    19    18    2
     7    29    28    1
     8    32    31    1
     9    25    28    1
    10    25    24    1
    11    18    24   am
    12    18    17    1
    13    28    30    1
    14    23    22    1
    15     1     2    1
    16    90    87    1
    17    17    20    1
    18    17    16    1
    19    15    14    2
    20    20    21    1
    21    86    87    1
    22    35    36    1
    23    87    88    1
    24    22    21    1
    25    11    10    2
    26    41    39    1
    27     2     3    1
    28     2     5    1
    29    14    16   am
    30    14    13    1
    31    77    76    2
    32     7     5    1
    33     4     3    2
    34     3     8   am
    35     5     6    1
    36    10     9    1
    37    36    39    1
    38    36    37    1
    39    12    13    1
    40    39    40    1
    41    88    89    2
    42    88    91   am
    43    76    75    1
    44     8     9    1
    45    69    68    2
    46    38    37    2
    47    37    42   am
    48    91    92    1
    49    75    74    1
    50    75    78    1
    51    68    67    1
    52    78    79    1
    53    42    43    1
    54   128   127    1
    55    80    79   ar
    56    80    82   ar
    57    72    71    1
    58    92    95    1
    59    92    93    1
    60    71    73    1
    61    71    70    1
    62   126   125    2
    63    79    81   ar
    64    46    43    1
    65    46    47    1
    66    67    70    1
    67    67    66    1
    68    49    47   ar
    69    82    84   ar
    70    94    93    2
    71    43    44    1
    72    93    96   am
    73   125   124    1
    74    47    48   ar
    75   127   124    1
    76   127   129    1
    77    81    83   ar
    78    84    83   ar
    79    84    85    1
    80    96    97    1
    81   124   123    1
    82    61    60    2
    83    44    45    2
    84    44    50   am
    85    97    98    1
    86    50    51    1
    87    60    59    1
    88   123   116   am
    89    99    98    2
    90    98   100   am
    91   117   116    2
    92   112   111    1
    93   116   115    1
    94    58    59    1
    95    58    52   am
    96    62    59    1
    97    62    63    1
    98   110   109    2
    99    65    63   ar
   100    63    64   ar
   101    51    52    1
   102    51    54    1
   103   109   108    1
   104    52    53    2
   105   100   101    1
   106   103   102    2
   107   111   108    1
   108   111   113    1
   109   114   115    1
   110   115   118    1
   111    54    55    1
   112   108   107    1
   113   102   101    1
   114    55    57    1
   115    55    56    1
   116   101   104    1
   117   118   119    1
   118   104   105    1
   119   104   106    1
   120   121   120    2
   121   119   120    1
   122   120   122   am
