@<TRIPOS>MOLECULE
tmp/2xxfB02.pdb
 81 78 0 0 0
SMALL
GASTEIGER

@<TRIPOS>ATOM
      1  N         16.6500    2.9650  131.8930 N.3     9  LYS9       -0.1231
      2  CA        16.7880    2.9230  133.3440 C.3     9  LYS9        0.1693
      3  C         18.1490    2.3660  133.6370 C.2     9  LYS9        0.2592
      4  O         18.5460    1.3620  133.0620 O.2     9  LYS9       -0.2718
      5  CB        15.6900    2.0600  133.9500 C.3     9  LYS9        0.0285
      6  CG        14.2930    2.6380  133.8300 C.3     9  LYS9        0.0035
      7  CD        13.3070    1.7270  134.6510 C.3     9  LYS9        0.0206
      8  CE        11.8530    2.0650  134.3840 C.3     9  LYS9        0.1093
      9  NZ        11.3060    3.0840  135.3320 N.3     9  LYS9       -0.1314
     10  N         18.9170    3.0160  134.5260 N.am   10  VAL10      -0.1966
     11  CA        20.2450    2.5320  134.8250 C.3    10  VAL10       0.1727
     12  C         20.3390    2.0400  136.2450 C.2    10  VAL10       0.2616
     13  O         19.8370    2.7080  137.1820 O.2    10  VAL10      -0.2715
     14  CB        21.2790    3.6710  134.7200 C.3    10  VAL10       0.0290
     15  CG1       22.6030    3.2430  135.3070 C.3    10  VAL10       0.0023
     16  CG2       21.4410    4.1390  133.2400 C.3    10  VAL10       0.0023
     17  N         21.0530    0.9430  136.4290 N.am   11  THR11      -0.1951
     18  CA        21.2860    0.3890  137.7500 C.3    11  THR11       0.1897
     19  C         22.6550    0.8980  138.1970 C.2    11  THR11       0.2313
     20  O         23.6620    0.6960  137.5420 O.2    11  THR11      -0.2863
     21  CB        21.2200   -1.1390  137.7120 C.3    11  THR11       0.1794
     22  OG1       19.8760   -1.5410  137.3770 O.3    11  THR11      -0.2208
     23  CG2       21.6640   -1.7800  139.0510 C.3    11  THR11       0.0378
     24  N         16.9420    7.3470  133.6440 N.3    33  GLU33      -0.1231
     25  CA        16.3200    7.2690  134.9350 C.3    33  GLU33       0.1699
     26  C         17.2520    6.6190  135.9350 C.2    33  GLU33       0.2592
     27  O         17.8100    5.5550  135.6870 O.2    33  GLU33      -0.2718
     28  CB        15.0150    6.4780  134.8400 C.3    33  GLU33       0.0402
     29  CG        13.9060    7.2590  134.1910 C.3    33  GLU33       0.1161
     30  CD        12.6470    6.4140  134.0340 C.2    33  GLU33       0.3649
     31  OE1       12.3550    5.6050  134.9310 O.co2  33  GLU33      -0.2457
     32  OE2       11.9700    6.5580  132.9840 O.co2  33  GLU33      -0.2457
     33  N         17.4040    7.2720  137.0960 N.am   34  PHE34      -0.1962
     34  CA        18.1710    6.7350  138.2020 C.3    34  PHE34       0.1771
     35  C         17.3570    6.8320  139.4810 C.2    34  PHE34       0.2620
     36  O         16.4640    7.6710  139.5820 O.2    34  PHE34      -0.2715
     37  CB        19.4220    7.5950  138.4380 C.3    34  PHE34       0.0574
     38  CG        20.3990    7.6470  137.3000 C.ar   34  PHE34      -0.0200
     39  CD1       21.4230    6.7290  137.2210 C.ar   34  PHE34      -0.0042
     40  CD2       20.3370    8.6670  136.3580 C.ar   34  PHE34      -0.0042
     41  CE1       22.3570    6.7770  136.2100 C.ar   34  PHE34      -0.0003
     42  CE2       21.3140    8.7430  135.3300 C.ar   34  PHE34      -0.0003
     43  CZ        22.2880    7.7910  135.2520 C.ar   34  PHE34      -0.0000
     44  N         17.6770    6.0020  140.4690 N.am   35  THR35      -0.1951
     45  CA        17.0720    6.1520  141.8230 C.3    35  THR35       0.1897
     46  C         18.2120    6.0830  142.8350 C.2    35  THR35       0.2313
     47  O         19.1430    5.2710  142.6800 O.2    35  THR35      -0.2863
     48  CB        16.0080    5.0640  142.1070 C.3    35  THR35       0.1794
     49  OG1       15.3640    5.3490  143.3630 O.3    35  THR35      -0.2208
     50  CG2       16.6950    3.7440  142.1490 C.3    35  THR35       0.0378
     51  N         17.0300   11.8820  135.0810 N.3    75  GLN75      -0.1231
     52  CA        15.7790   11.8360  135.8430 C.3    75  GLN75       0.1698
     53  C         16.0150   10.9810  137.0740 C.2    75  GLN75       0.2592
     54  O         16.0930    9.7560  137.0060 O.2    75  GLN75      -0.2718
     55  CB        14.6310   11.2760  134.9790 C.3    75  GLN75       0.0381
     56  CG        13.3040   11.3110  135.7020 C.3    75  GLN75       0.0905
     57  CD        12.1110   11.3530  134.7810 C.2    75  GLN75       0.2608
     58  OE1       11.9840   12.2700  133.9290 O.2    75  GLN75      -0.2717
     59  NE2       11.1900   10.3990  134.9610 N.am   75  GLN75      -0.0878
     60  N         16.2200   11.6530  138.2050 N.am   76  LEU76      -0.1966
     61  CA        16.5140   11.0020  139.4570 C.3    76  LEU76       0.1728
     62  C         15.2990   11.0000  140.3930 C.2    76  LEU76       0.2616
     63  O         14.7070   12.0560  140.6680 O.2    76  LEU76      -0.2715
     64  CB        17.6440   11.7640  140.1800 C.3    76  LEU76       0.0311
     65  CG        18.0490   11.2100  141.5800 C.3    76  LEU76       0.0022
     66  CD1       18.7550    9.8860  141.4800 C.3    76  LEU76       0.0001
     67  CD2       18.9060   12.2270  142.3860 C.3    76  LEU76       0.0001
     68  N         15.0170    9.8240  140.9310 N.am   77  THR77      -0.1951
     69  CA        14.1370    9.6550  142.0470 C.3    77  THR77       0.1897
     70  C         15.0060    9.5920  143.2970 C.2    77  THR77       0.2313
     71  O         15.8440    8.6950  143.4570 O.2    77  THR77      -0.2863
     72  CB        13.2010    8.4080  141.9120 C.3    77  THR77       0.1794
     73  OG1       12.4420    8.5640  140.7000 O.3    77  THR77      -0.2208
     74  CG2       12.2440    8.3400  143.0890 C.3    77  THR77       0.0378
     75  N         11.0680   13.2560  142.3940 N.3   114  THR114     -0.1218
     76  CA        11.7120   12.9800  141.1130 C.3   114  THR114      0.1862
     77  C         11.9890   14.2560  140.3570 C.2   114  THR114      0.2287
     78  O         11.0870   15.0920  140.1560 O.2   114  THR114     -0.2866
     79  CB        10.8620   12.0330  140.2690 C.3   114  THR114      0.1770
     80  OG1       10.5850   10.8380  141.0310 O.3   114  THR114     -0.2211
     81  CG2       11.6090   11.6390  138.9610 C.3   114  THR114      0.0375
@<TRIPOS>BOND
     1     1     2    1
     2    32    30   ar
     3     4     3    2
     4    16    14    1
     5     2     3    1
     6     2     5    1
     7     3    10   am
     8    24    25    1
     9     6     5    1
    10     6     7    1
    11    58    57    2
    12    30    29    1
    13    30    31   ar
    14    29    28    1
    15     8     7    1
    16     8     9    1
    17    10    11    1
    18    14    11    1
    19    14    15    1
    20    57    59   am
    21    57    56    1
    22    11    12    1
    23    28    25    1
    24    25    26    1
    25    55    56    1
    26    55    52    1
    27    51    52    1
    28    43    42   ar
    29    43    41   ar
    30    42    40   ar
    31    27    26    2
    32    52    53    1
    33    26    33   am
    34    41    39   ar
    35    12    17   am
    36    12    13    2
    37    40    38   ar
    38    17    18    1
    39    54    53    2
    40    53    60   am
    41    33    34    1
    42    39    38   ar
    43    38    37    1
    44    22    21    1
    45    20    19    2
    46    21    18    1
    47    21    23    1
    48    18    19    1
    49    34    37    1
    50    34    35    1
    51    60    61    1
    52    81    79    1
    53    61    64    1
    54    61    62    1
    55    35    36    2
    56    35    44   am
    57    78    77    2
    58    64    65    1
    59    79    80    1
    60    79    76    1
    61    77    76    1
    62    62    63    2
    63    62    68   am
    64    44    45    1
    65    73    72    1
    66    68    69    1
    67    76    75    1
    68    66    65    1
    69    65    67    1
    70    45    48    1
    71    45    46    1
    72    72    69    1
    73    72    74    1
    74    69    70    1
    75    48    50    1
    76    48    49    1
    77    47    46    2
    78    70    71    2
