@<TRIPOS>MOLECULE
tmp/2xxhA01.pdb
 89 86 0 0 0
SMALL
GASTEIGER

@<TRIPOS>ATOM
      1  N         62.9280   29.6790   51.3830 N.3   104  LYS104     -0.1231
      2  CA        62.3620   29.2670   50.1040 C.3   104  LYS104      0.1681
      3  C         63.2310   29.8270   48.9610 C.2   104  LYS104      0.2471
      4  O         63.8660   30.8930   49.1000 O.2   104  LYS104     -0.2730
      5  CB        60.9200   29.7570   49.9690 C.3   104  LYS104      0.0284
      6  CG        59.9230   29.0890   50.9150 C.3   104  LYS104      0.0035
      7  CD        59.8160   27.5950   50.6650 C.3   104  LYS104      0.0206
      8  CE        58.7880   26.9450   51.5970 C.3   104  LYS104      0.1093
      9  NZ        59.0440   27.1840   53.0480 N.3   104  LYS104     -0.1314
     10  N         63.2860   29.1160   47.8330 N.am  105  PRO105     -0.2492
     11  CA        64.2050   29.5610   46.7810 C.3   105  PRO105      0.1619
     12  C         63.8550   30.9270   46.1850 C.2   105  PRO105      0.2605
     13  O         62.6700   31.2830   46.0510 O.2   105  PRO105     -0.2715
     14  CB        64.1100   28.4770   45.7060 C.3   105  PRO105      0.0570
     15  CG        63.0630   27.5370   46.1420 C.2   105  PRO105     -0.0077
     16  CD        62.5610   27.8750   47.4880 C.2   105  PRO105      0.0634
     17  N         64.8850   31.7080   45.8640 N.am  106  PHE106     -0.1960
     18  CA        64.6760   32.9660   45.1790 C.3   106  PHE106      0.1771
     19  C         64.9500   32.8720   43.6690 C.2   106  PHE106      0.2619
     20  O         64.6740   33.8190   42.9240 O.2   106  PHE106     -0.2715
     21  CB        65.4800   34.0890   45.8640 C.3   106  PHE106      0.0574
     22  CG        66.9800   33.9160   45.7920 C.ar  106  PHE106     -0.0200
     23  CD1       67.6910   34.3450   44.6670 C.ar  106  PHE106     -0.0042
     24  CD2       67.6840   33.3510   46.8500 C.ar  106  PHE106     -0.0042
     25  CE1       69.0780   34.1910   44.6010 C.ar  106  PHE106     -0.0003
     26  CE2       69.0730   33.2020   46.7950 C.ar  106  PHE106     -0.0003
     27  CZ        69.7690   33.6200   45.6730 C.ar  106  PHE106     -0.0000
     28  N         65.4680   31.7240   43.2290 N.am  107  MET107     -0.1963
     29  CA        65.7960   31.5190   41.8250 C.3   107  MET107      0.1736
     30  C         65.7930   30.0300   41.5470 C.2   107  MET107      0.2617
     31  O         66.1710   29.2320   42.4090 O.2   107  MET107     -0.2715
     32  CB        67.1810   32.1170   41.5100 C.3   107  MET107      0.0427
     33  CG        67.4830   32.3310   40.0100 C.3   107  MET107      0.0599
     34  SD        69.0210   33.2470   39.6890 S.3   107  MET107     -0.1393
     35  CE        68.5610   34.9190   40.0970 C.3   107  MET107      0.0692
     36  N         65.3600   29.6600   40.3440 N.am  108  SER108     -0.1950
     37  CA        65.3210   28.2680   39.9080 C.3   108  SER108      0.1924
     38  C         66.4440   28.0370   38.9030 C.2   108  SER108      0.2314
     39  O         66.6930   28.8850   38.0440 O.2   108  SER108     -0.2863
     40  CB        63.9870   27.9930   39.2340 C.3   108  SER108      0.2116
     41  OG        63.9390   28.6730   37.9950 O.3   108  SER108     -0.2180
     42  N         66.8120   19.8590   38.6590 N.3   217  SER217     -0.1202
     43  CA        66.0140   21.0420   38.9420 C.3   217  SER217      0.2020
     44  C         66.1250   21.3410   40.4190 C.2   217  SER217      0.2619
     45  O         65.9390   20.4660   41.2600 O.2   217  SER217     -0.2717
     46  CB        64.5520   20.8310   38.5430 C.3   217  SER217      0.2103
     47  OG        63.8180   22.0460   38.6230 O.3   217  SER217     -0.2182
     48  N         66.4660   22.5840   40.7310 N.am  218  LYS218     -0.1965
     49  CA        66.6410   22.9880   42.1240 C.3   218  LYS218      0.1728
     50  C         66.6270   24.4930   42.2410 C.2   218  LYS218      0.2616
     51  O         66.2030   25.1860   41.3170 O.2   218  LYS218     -0.2715
     52  CB        67.9130   22.3840   42.7130 C.3   218  LYS218      0.0311
     53  CG        69.1550   22.7480   41.9840 C.3   218  LYS218      0.0038
     54  CD        70.1610   21.6270   42.1340 C.3   218  LYS218      0.0206
     55  CE        71.4320   21.9730   41.3800 C.3   218  LYS218      0.1093
     56  NZ        72.3990   20.8320   41.4010 N.3   218  LYS218     -0.1314
     57  N         67.1000   24.9970   43.3700 N.am  219  GLY219     -0.1955
     58  CA        66.9820   26.4180   43.6570 C.3   219  GLY219      0.1869
     59  C         68.1250   26.9570   44.4870 C.2   219  GLY219      0.2309
     60  O         68.8210   26.1920   45.1660 O.2   219  GLY219     -0.2863
     61  N         61.5340   36.8950   51.0680 N.3   238  VAL238     -0.1231
     62  CA        61.7150   36.2180   49.7780 C.3   238  VAL238      0.1692
     63  C         60.3650   35.9720   49.0900 C.2   238  VAL238      0.2591
     64  O         60.2060   36.2350   47.8930 O.2   238  VAL238     -0.2718
     65  CB        62.5310   34.9130   49.9100 C.3   238  VAL238      0.0266
     66  CG1       62.4880   34.1040   48.6210 C.3   238  VAL238      0.0020
     67  CG2       63.9630   35.2260   50.2890 C.3   238  VAL238      0.0020
     68  N         59.3940   35.4550   49.8370 N.am  239  LEU239     -0.1980
     69  CA        58.0840   35.2070   49.2360 C.3   239  LEU239      0.1596
     70  C         57.3680   36.4740   48.7900 C.2   239  LEU239      0.2287
     71  O         56.7390   36.4790   47.7390 O.2   239  LEU239     -0.2864
     72  CB        57.1850   34.3870   50.1620 C.3   239  LEU239      0.0297
     73  CG        57.6770   32.9620   50.4340 C.3   239  LEU239      0.0022
     74  CD1       56.7690   32.3110   51.4600 C.3   239  LEU239      0.0001
     75  CD2       57.7100   32.1360   49.1410 C.3   239  LEU239      0.0001
     76  N         59.1220   37.7020   45.6170 N.3   242  SER242     -0.1217
     77  CA        58.7460   36.8070   44.5350 C.3   242  SER242      0.1889
     78  C         57.3680   37.2150   44.0180 C.2   242  SER242      0.2288
     79  O         57.1760   37.4190   42.8210 O.2   242  SER242     -0.2866
     80  CB        58.6910   35.3590   45.0470 C.3   242  SER242      0.2089
     81  OG        58.1030   34.4940   44.0830 O.3   242  SER242     -0.2183
     82  N         61.9350   39.6600   41.9760 N.3   247  LEU247     -0.1245
     83  CA        62.9560   38.6900   41.5980 C.3   247  LEU247      0.1561
     84  C         63.0650   38.5350   40.0710 C.2   247  LEU247      0.2260
     85  O         64.1780   38.4710   39.5400 O.2   247  LEU247     -0.2867
     86  CB        62.7100   37.3440   42.2970 C.3   247  LEU247      0.0270
     87  CG        62.5800   37.4290   43.8300 C.3   247  LEU247      0.0019
     88  CD1       62.3170   36.0600   44.4430 C.3   247  LEU247      0.0001
     89  CD2       63.8050   38.0620   44.4850 C.3   247  LEU247      0.0001
@<TRIPOS>BOND
     1    41    40    1
     2    39    38    2
     3    46    47    1
     4    46    43    1
     5    42    43    1
     6    38    37    1
     7    43    44    1
     8    40    37    1
     9    85    84    2
    10    34    33    1
    11    34    35    1
    12    37    36    1
    13    33    32    1
    14    84    83    1
    15    36    30   am
    16    44    48   am
    17    44    45    2
    18    48    49    1
    19    51    50    2
    20    55    56    1
    21    55    54    1
    22    32    29    1
    23    30    29    1
    24    30    31    2
    25    83    82    1
    26    83    86    1
    27    29    28    1
    28    53    54    1
    29    53    52    1
    30    49    50    1
    31    49    52    1
    32    50    57   am
    33    86    87    1
    34    79    78    2
    35    20    19    2
    36    28    19   am
    37    57    58    1
    38    58    59    1
    39    19    18    1
    40    87    88    1
    41    87    89    1
    42    78    77    1
    43    81    80    1
    44    59    60    2
    45    77    80    1
    46    77    76    1
    47    25    23   ar
    48    25    27   ar
    49    23    22   ar
    50    18    21    1
    51    18    17    1
    52    27    26   ar
    53    14    15    1
    54    14    11    1
    55    22    21    1
    56    22    24   ar
    57    17    12   am
    58    13    12    2
    59    15    16    2
    60    12    11    1
    61    11    10    1
    62    26    24   ar
    63    16    10    1
    64    71    70    2
    65    10     3   am
    66    64    63    2
    67    66    65    1
    68    70    69    1
    69     3     4    2
    70     3     2    1
    71    63    62    1
    72    63    68   am
    73    75    73    1
    74    69    68    1
    75    69    72    1
    76    62    65    1
    77    62    61    1
    78    65    67    1
    79     5     2    1
    80     5     6    1
    81     2     1    1
    82    72    73    1
    83    73    74    1
    84     7     6    1
    85     7     8    1
    86     8     9    1
