@<TRIPOS>MOLECULE
tmp/2xxiB01.pdb
 89 86 0 0 0
SMALL
GASTEIGER

@<TRIPOS>ATOM
      1  N         60.9330   81.9590   61.4520 N.3   104  LYS104     -0.1231
      2  CA        60.2380   82.2730   60.2210 C.3   104  LYS104      0.1678
      3  C         61.1000   81.7400   59.0740 C.2   104  LYS104      0.2434
      4  O         62.3150   81.5820   59.2410 O.2   104  LYS104     -0.2733
      5  CB        60.0610   83.7820   60.0850 C.3   104  LYS104      0.0284
      6  CG        59.0760   84.4090   61.0520 C.3   104  LYS104      0.0035
      7  CD        57.7120   83.9180   60.7960 C.3   104  LYS104      0.0206
      8  CE        56.7020   84.6500   61.6250 C.3   104  LYS104      0.1093
      9  NZ        56.7940   84.3930   63.0920 N.3   104  LYS104     -0.1314
     10  N         60.4890   81.4350   57.9160 N.am  105  PRO105     -0.2718
     11  CA        61.2710   80.7920   56.8590 C.3   105  PRO105      0.1535
     12  C         62.3260   81.6990   56.2670 C.2   105  PRO105      0.2599
     13  O         62.1440   82.9290   56.1890 O.2   105  PRO105     -0.2715
     14  CB        60.2290   80.4390   55.7970 C.3   105  PRO105      0.0310
     15  CG        59.0100   81.1500   56.1630 C.3   105  PRO105      0.0237
     16  CD        59.0560   81.4980   57.5840 C.3   105  PRO105      0.0939
     17  N         63.4370   81.0920   55.8620 N.am  106  PHE106     -0.1960
     18  CA        64.4700   81.8170   55.1250 C.3   106  PHE106      0.1771
     19  C         64.5080   81.4990   53.6250 C.2   106  PHE106      0.2619
     20  O         65.2770   82.0990   52.8920 O.2   106  PHE106     -0.2715
     21  CB        65.8460   81.5840   55.7750 C.3   106  PHE106      0.0574
     22  CG        66.3420   80.1540   55.7260 C.ar  106  PHE106     -0.0200
     23  CD1       66.9820   79.6530   54.6040 C.ar  106  PHE106     -0.0042
     24  CD2       66.2100   79.3210   56.8280 C.ar  106  PHE106     -0.0042
     25  CE1       67.4410   78.3330   54.5670 C.ar  106  PHE106     -0.0003
     26  CE2       66.6650   78.0160   56.7900 C.ar  106  PHE106     -0.0003
     27  CZ        67.2640   77.5210   55.6790 C.ar  106  PHE106     -0.0000
     28  N         63.6780   80.5420   53.2120 N.am  107  MET107     -0.1963
     29  CA        63.5490   80.1310   51.8270 C.3   107  MET107      0.1736
     30  C         62.1270   79.6760   51.5710 C.2   107  MET107      0.2617
     31  O         61.4340   79.1830   52.4720 O.2   107  MET107     -0.2715
     32  CB        64.4610   78.9390   51.5240 C.3   107  MET107      0.0427
     33  CG        65.9340   79.2250   51.4650 C.3   107  MET107      0.0599
     34  SD        66.7570   78.0870   50.3300 S.3   107  MET107     -0.1393
     35  CE        66.1940   78.8030   48.7980 C.3   107  MET107      0.0692
     36  N         61.7020   79.8390   50.3270 N.am  108  SER108     -0.1950
     37  CA        60.4560   79.2690   49.8570 C.3   108  SER108      0.1924
     38  C         60.7510   78.1050   48.9140 C.2   108  SER108      0.2314
     39  O         61.6820   78.1650   48.0930 O.2   108  SER108     -0.2863
     40  CB        59.6550   80.3270   49.1100 C.3   108  SER108      0.2116
     41  OG        60.3810   80.7610   47.9720 O.3   108  SER108     -0.2180
     42  N         53.5420   74.4310   48.6890 N.3   217  SER217     -0.1202
     43  CA        54.2420   75.6790   48.9830 C.3   217  SER217      0.2020
     44  C         54.5590   75.7820   50.4730 C.2   217  SER217      0.2619
     45  O         53.6590   75.8450   51.3120 O.2   217  SER217     -0.2717
     46  CB        53.3950   76.8760   48.5480 C.3   217  SER217      0.2103
     47  OG        54.0810   78.0990   48.7750 O.3   217  SER217     -0.2182
     48  N         55.8520   75.8140   50.7850 N.am  218  LYS218     -0.1965
     49  CA        56.2840   75.8680   52.1670 C.3   218  LYS218      0.1728
     50  C         57.6490   76.4910   52.2750 C.2   218  LYS218      0.2616
     51  O         58.0800   77.1600   51.3460 O.2   218  LYS218     -0.2715
     52  CB        56.2530   74.4690   52.7600 C.3   218  LYS218      0.0311
     53  CG        57.0670   73.4880   51.9860 C.3   218  LYS218      0.0038
     54  CD        56.5450   72.1140   52.2140 C.3   218  LYS218      0.0206
     55  CE        57.3310   71.1100   51.3940 C.3   218  LYS218      0.1093
     56  NZ        56.6370   69.8070   51.4500 N.3   218  LYS218     -0.1314
     57  N         58.3010   76.2990   53.4130 N.am  219  GLY219     -0.1955
     58  CA        59.5390   77.0060   53.6710 C.3   219  GLY219      0.1869
     59  C         60.5020   76.1870   54.4860 C.2   219  GLY219      0.2309
     60  O         60.1110   75.2350   55.1550 O.2   219  GLY219     -0.2863
     61  N         66.7040   86.1370   61.2490 N.3   238  VAL238     -0.1231
     62  CA        66.2070   85.7200   59.9420 C.3   238  VAL238      0.1692
     63  C         65.4290   86.8520   59.2590 C.2   238  VAL238      0.2591
     64  O         65.6220   87.1250   58.0780 O.2   238  VAL238     -0.2718
     65  CB        65.3400   84.4210   60.0170 C.3   238  VAL238      0.0266
     66  CG1       64.6360   84.1650   58.6950 C.3   238  VAL238      0.0020
     67  CG2       66.2160   83.2420   60.3700 C.3   238  VAL238      0.0020
     68  N         64.5600   87.5220   60.0060 N.am  239  LEU239     -0.1980
     69  CA        63.7870   88.6220   59.4260 C.3   239  LEU239      0.1596
     70  C         64.6850   89.7730   58.9760 C.2   239  LEU239      0.2287
     71  O         64.4430   90.3660   57.9370 O.2   239  LEU239     -0.2864
     72  CB        62.7220   89.1190   60.4010 C.3   239  LEU239      0.0297
     73  CG        61.6510   88.0680   60.6860 C.3   239  LEU239      0.0022
     74  CD1       60.6960   88.6350   61.6880 C.3   239  LEU239      0.0001
     75  CD2       60.9240   87.6270   59.4320 C.3   239  LEU239      0.0001
     76  N         66.4440   88.7320   55.7550 N.3   242  SER242     -0.1217
     77  CA        65.4780   88.8330   54.6740 C.3   242  SER242      0.1889
     78  C         65.3550   90.2800   54.2060 C.2   242  SER242      0.2288
     79  O         65.4840   90.5550   53.0210 O.2   242  SER242     -0.2866
     80  CB        64.1090   88.3130   55.1190 C.3   242  SER242      0.2089
     81  OG        63.1310   88.5400   54.1150 O.3   242  SER242     -0.2183
     82  N         69.4240   87.1720   52.1120 N.3   247  LEU247     -0.1245
     83  CA        68.9750   85.8650   51.6910 C.3   247  LEU247      0.1561
     84  C         68.9340   85.7890   50.1470 C.2   247  LEU247      0.2260
     85  O         69.2780   84.7660   49.5640 O.2   247  LEU247     -0.2867
     86  CB        67.6010   85.5540   52.3050 C.3   247  LEU247      0.0270
     87  CG        67.5140   85.5520   53.8330 C.3   247  LEU247      0.0019
     88  CD1       66.0660   85.2320   54.2700 C.3   247  LEU247      0.0001
     89  CD2       68.4920   84.5740   54.4700 C.3   247  LEU247      0.0001
@<TRIPOS>BOND
     1    41    40    1
     2    39    38    2
     3    46    47    1
     4    46    43    1
     5    42    43    1
     6    35    34    1
     7    38    37    1
     8    43    44    1
     9    40    37    1
    10    85    84    2
    11    37    36    1
    12    84    83    1
    13    36    30   am
    14    34    33    1
    15    44    48   am
    16    44    45    2
    17    48    49    1
    18    51    50    2
    19    55    56    1
    20    55    54    1
    21    33    32    1
    22    32    29    1
    23    30    29    1
    24    30    31    2
    25    83    82    1
    26    83    86    1
    27    29    28    1
    28    53    54    1
    29    53    52    1
    30    49    50    1
    31    49    52    1
    32    50    57   am
    33    86    87    1
    34    20    19    2
    35    79    78    2
    36    28    19   am
    37    57    58    1
    38    19    18    1
    39    58    59    1
    40    87    88    1
    41    87    89    1
    42    81    80    1
    43    78    77    1
    44    59    60    2
    45    25    23   ar
    46    25    27   ar
    47    23    22   ar
    48    77    80    1
    49    77    76    1
    50    18    21    1
    51    18    17    1
    52    27    26   ar
    53    22    21    1
    54    22    24   ar
    55    14    15    1
    56    14    11    1
    57    17    12   am
    58    15    16    1
    59    13    12    2
    60    12    11    1
    61    26    24   ar
    62    11    10    1
    63    16    10    1
    64    10     3   am
    65    71    70    2
    66    64    63    2
    67    66    65    1
    68    70    69    1
    69     3     4    2
    70     3     2    1
    71    63    62    1
    72    63    68   am
    73    69    68    1
    74    69    72    1
    75    75    73    1
    76    62    65    1
    77    62    61    1
    78    65    67    1
    79     5     2    1
    80     5     6    1
    81     2     1    1
    82    72    73    1
    83    73    74    1
    84     7     6    1
    85     7     8    1
    86     8     9    1
