@<TRIPOS>MOLECULE
tmp/2xxlB00.pdb
 85 82 0 0 0
SMALL
GASTEIGER

@<TRIPOS>ATOM
      1  N         43.4840   54.6480   -6.3600 N.3   113  GLN113     -0.1245
      2  CA        44.1070   53.9830   -7.4960 C.3   113  GLN113      0.1566
      3  C         42.9630   53.1450   -8.0520 C.2   113  GLN113      0.2260
      4  O         42.2340   52.4920   -7.2880 O.2   113  GLN113     -0.2867
      5  CB        45.2260   53.0380   -7.0080 C.3   113  GLN113      0.0367
      6  CG        46.3260   53.7510   -6.1960 C.3   113  GLN113      0.0905
      7  CD        47.2640   54.6140   -7.0250 C.2   113  GLN113      0.2608
      8  OE1       47.0410   54.8930   -8.2180 O.2   113  GLN113     -0.2717
      9  NE2       48.3630   55.0450   -6.4090 N.am  113  GLN113     -0.0878
     10  N         44.8650   56.3460   -1.4320 N.3   147  TYR147     -0.1227
     11  CA        46.2310   56.8230   -1.2440 C.3   147  TYR147      0.1736
     12  C         46.4240   58.3170   -1.0180 C.2   147  TYR147      0.2595
     13  O         47.4910   58.7040   -0.5650 O.2   147  TYR147     -0.2718
     14  CB        47.1240   56.3220   -2.4210 C.3   147  TYR147      0.0548
     15  CG        46.9560   57.1230   -3.7000 C.ar  147  TYR147     -0.0200
     16  CD1       45.8250   56.9750   -4.4950 C.ar  147  TYR147     -0.0009
     17  CD2       47.9240   58.0350   -4.1050 C.ar  147  TYR147     -0.0009
     18  CE1       45.6590   57.7170   -5.6640 C.ar  147  TYR147      0.0417
     19  CE2       47.7780   58.7760   -5.2810 C.ar  147  TYR147      0.0417
     20  CZ        46.6440   58.6100   -6.0580 C.ar  147  TYR147      0.1957
     21  OH        46.4810   59.3430   -7.2040 O.3   147  TYR147     -0.2866
     22  N         45.4520   59.1560   -1.3840 N.am  148  GLU148     -0.1979
     23  CA        45.6160   60.6040   -1.1830 C.3   148  GLU148      0.1602
     24  C         44.3210   61.2410   -0.7600 C.2   148  GLU148      0.2287
     25  O         43.2500   60.7600   -1.1260 O.2   148  GLU148     -0.2864
     26  CB        46.0130   61.2850   -2.5160 C.3   148  GLU148      0.0415
     27  CG        47.4650   61.6730   -2.5770 C.3   148  GLU148      0.1163
     28  CD        47.9410   62.2240   -3.9060 C.2   148  GLU148      0.3649
     29  OE1       47.1690   62.9210   -4.6050 O.co2 148  GLU148     -0.2457
     30  OE2       49.0860   61.8900   -4.2750 O.co2 148  GLU148     -0.2457
     31  N         47.4560   68.1990   -1.4890 N.3   177  ASN177     -0.1225
     32  CA        47.3050   66.7770   -1.7940 C.3   177  ASN177      0.1785
     33  C         48.2380   66.0900   -0.8040 C.2   177  ASN177      0.2597
     34  O         49.4400   66.3510   -0.8120 O.2   177  ASN177     -0.2718
     35  CB        47.6940   66.4860   -3.2440 C.3   177  ASN177      0.1169
     36  CG        46.7230   67.1120   -4.2110 C.2   177  ASN177      0.2627
     37  OD1       45.5230   66.8130   -4.2080 O.2   177  ASN177     -0.2716
     38  ND2       47.1980   68.0800   -4.9720 N.am  177  ASN177     -0.0877
     39  N         47.6640   65.2940    0.0980 N.am  178  VAL178     -0.1966
     40  CA        48.3790   64.6650    1.2230 C.3   178  VAL178      0.1727
     41  C         48.1280   63.1610    1.2850 C.2   178  VAL178      0.2617
     42  O         47.0810   62.7040    0.8500 O.2   178  VAL178     -0.2715
     43  CB        48.0030   65.4350    2.5420 C.3   178  VAL178      0.0290
     44  CG1       46.4870   65.3920    2.8360 C.3   178  VAL178      0.0023
     45  CG2       48.8410   64.9730    3.7550 C.3   178  VAL178      0.0023
     46  N         49.1060   62.4090    1.7990 N.am  179  GLY179     -0.1940
     47  CA        49.0150   60.9580    1.9210 C.3   179  GLY179      0.2014
     48  C         48.3440   60.5280    3.2080 C.2   179  GLY179      0.2639
     49  O         48.0000   61.3640    4.0600 O.2   179  GLY179     -0.2714
     50  N         48.1430   59.2080    3.3530 N.am  180  ILE180     -0.1963
     51  CA        47.4500   58.6410    4.4990 C.3   180  ILE180      0.1727
     52  C         48.3630   57.6800    5.2300 C.2   180  ILE180      0.2616
     53  O         48.7770   56.6820    4.6520 O.2   180  ILE180     -0.2715
     54  CB        46.1310   57.9510    4.0440 C.3   180  ILE180      0.0290
     55  CG1       45.2000   58.9510    3.3150 C.3   180  ILE180      0.0022
     56  CG2       45.4150   57.2740    5.2340 C.3   180  ILE180      0.0023
     57  CD1       44.2150   58.3160    2.3390 C.3   180  ILE180      0.0001
     58  N         48.6280   57.9570    6.5030 N.am  181  GLU181     -0.1977
     59  CA        49.4580   57.0960    7.3230 C.3   181  GLU181      0.1602
     60  C         48.6520   55.9270    7.8870 C.2   181  GLU181      0.2287
     61  O         49.1570   54.7990    7.9290 O.2   181  GLU181     -0.2864
     62  CB        50.1030   57.9110    8.4470 C.3   181  GLU181      0.0415
     63  CG        51.1170   57.1030    9.2280 C.3   181  GLU181      0.1163
     64  CD        51.3090   57.4870   10.6770 C.2   181  GLU181      0.3649
     65  OE1       50.8680   58.5830   11.0920 O.co2 181  GLU181     -0.2457
     66  OE2       51.9470   56.6920   11.3980 O.co2 181  GLU181     -0.2457
     67  N         49.4960   61.7000    6.6070 N.3   204  ASN204     -0.1225
     68  CA        50.9010   61.3290    6.8200 C.3   204  ASN204      0.1785
     69  C         51.8300   62.4790    7.1990 C.2   204  ASN204      0.2597
     70  O         53.0390   62.2760    7.2760 O.2   204  ASN204     -0.2718
     71  CB        51.4480   60.5420    5.6380 C.3   204  ASN204      0.1169
     72  CG        51.7390   61.3740    4.4310 C.2   204  ASN204      0.2627
     73  OD1       51.0680   62.3730    4.1300 O.2   204  ASN204     -0.2716
     74  ND2       52.7450   60.9490    3.6960 N.am  204  ASN204     -0.0877
     75  N         51.2560   63.6660    7.4660 N.am  205  ARG205     -0.1979
     76  CA        51.9480   64.8550    7.9650 C.3   205  ARG205      0.1597
     77  C         50.8560   65.8010    8.4600 C.2   205  ARG205      0.2287
     78  O         49.6830   65.5720    8.1770 O.2   205  ARG205     -0.2864
     79  CB        52.7810   65.5500    6.8690 C.3   205  ARG205      0.0334
     80  CG        51.9790   66.0390    5.6680 C.3   205  ARG205      0.0492
     81  CD        52.8820   66.7390    4.6750 C.3   205  ARG205      0.2205
     82  NE        52.1080   67.4890    3.6810 N.pl3 205  ARG205     -0.0865
     83  CZ        51.7580   67.0170    2.4970 C.cat 205  ARG205      0.5346
     84  NH1       52.0960   65.7820    2.1400 N.pl3 205  ARG205      0.1354
     85  NH2       51.0450   67.7650    1.6640 N.pl3 205  ARG205      0.1354
@<TRIPOS>BOND
     1     8     7    2
     2     3     2    1
     3     3     4    2
     4     2     5    1
     5     2     1    1
     6    21    20    1
     7     7     9   am
     8     7     6    1
     9     5     6    1
    10    20    18   ar
    11    20    19   ar
    12    18    16   ar
    13    19    17   ar
    14    38    36   am
    15    29    28   ar
    16    16    15   ar
    17    30    28   ar
    18    36    37    2
    19    36    35    1
    20    17    15   ar
    21    28    27    1
    22    15    14    1
    23    35    32    1
    24    27    26    1
    25    26    23    1
    26    14    11    1
    27    32    31    1
    28    32    33    1
    29    10    11    1
    30    22    23    1
    31    22    12   am
    32    11    12    1
    33    23    24    1
    34    25    24    2
    35    12    13    2
    36    34    33    2
    37    33    39   am
    38    39    40    1
    39    42    41    2
    40    40    41    1
    41    40    43    1
    42    41    46   am
    43    85    83    1
    44    46    47    1
    45    47    48    1
    46    84    83    1
    47    57    55    1
    48    83    82    2
    49    43    44    1
    50    43    45    1
    51    48    50   am
    52    48    49    2
    53    55    54    1
    54    50    51    1
    55    82    81    1
    56    74    72   am
    57    54    51    1
    58    54    56    1
    59    73    72    2
    60    72    71    1
    61    51    52    1
    62    53    52    2
    63    81    80    1
    64    52    58   am
    65    71    68    1
    66    80    79    1
    67    58    59    1
    68    67    68    1
    69    68    69    1
    70    79    76    1
    71    69    70    2
    72    69    75   am
    73    59    60    1
    74    59    62    1
    75    75    76    1
    76    60    61    2
    77    76    77    1
    78    78    77    2
    79    62    63    1
    80    63    64    1
    81    64    65   ar
    82    64    66   ar
