@<TRIPOS>MOLECULE
tmp/2xxpA01.pdb
 111 105 0 0 0
SMALL
GASTEIGER

@<TRIPOS>ATOM
      1  N         -3.7270    7.1250  -21.7350 N.3    77  VAL77      -0.1245
      2  CA        -3.4040    8.3690  -22.4550 C.3    77  VAL77       0.1561
      3  C         -2.8920    7.9670  -23.8460 C.2    77  VAL77       0.2260
      4  O         -3.2290    8.5770  -24.8700 O.2    77  VAL77      -0.2867
      5  CB        -2.3560    9.2220  -21.7260 C.3    77  VAL77       0.0252
      6  CG1       -1.8970   10.3860  -22.6140 C.3    77  VAL77       0.0019
      7  CG2       -2.9260    9.7500  -20.3940 C.3    77  VAL77       0.0019
      8  N         -4.8430    6.9240  -27.3410 N.3    80  ASN80      -0.1240
      9  CA        -5.1470    7.9250  -28.3370 C.3    80  ASN80       0.1653
     10  C         -3.9630    8.1970  -29.2650 C.2    80  ASN80       0.2266
     11  O         -4.1560    8.7580  -30.3480 O.2    80  ASN80      -0.2867
     12  CB        -5.5650    9.2240  -27.6800 C.3    80  ASN80       0.1155
     13  CG        -6.8000    9.0600  -26.8640 C.2    80  ASN80       0.2627
     14  OD1       -7.8850    8.9280  -27.4040 O.2    80  ASN80      -0.2716
     15  ND2       -6.6390    9.0410  -25.5510 N.am   80  ASN80      -0.0877
     16  N         -4.1310   12.3580  -11.4900 N.3   103  LYS103     -0.1245
     17  CA        -3.2100   13.4800  -11.4770 C.3   103  LYS103      0.1561
     18  C         -4.0080   14.7440  -11.7310 C.2   103  LYS103      0.2260
     19  O         -4.8630   14.7720  -12.6210 O.2   103  LYS103     -0.2867
     20  CB        -2.1090   13.3120  -12.5310 C.3   103  LYS103      0.0271
     21  CG        -2.5740   13.4230  -13.9790 C.3   103  LYS103      0.0035
     22  CD        -1.3860   13.7340  -14.8890 C.3   103  LYS103      0.0206
     23  CE        -1.8000   13.9450  -16.3390 C.3   103  LYS103      0.1093
     24  NZ        -1.6410   12.7130  -17.1630 N.3   103  LYS103     -0.1314
     25  N         -9.9610   22.5850  -28.9700 N.3   123  ILE123     -0.1245
     26  CA        -9.8860   21.1580  -29.2990 C.3   123  ILE123      0.1561
     27  C        -10.8250   20.8110  -30.4310 C.2   123  ILE123      0.2260
     28  O        -11.9840   21.2980  -30.4990 O.2   123  ILE123     -0.2867
     29  CB       -10.1910   20.2870  -28.0480 C.3   123  ILE123      0.0252
     30  CG1       -9.3230   20.7040  -26.8460 C.3   123  ILE123      0.0019
     31  CG2      -10.0580   18.7800  -28.3280 C.3   123  ILE123      0.0019
     32  CD1       -7.8150   20.4710  -26.9940 C.3   123  ILE123      0.0001
     33  N        -14.4980   16.6410  -21.9300 N.3   130  SER130     -0.1202
     34  CA       -13.4800   15.7050  -21.4670 C.3   130  SER130      0.2020
     35  C        -12.9420   14.8170  -22.6050 C.2   130  SER130      0.2619
     36  O        -11.9340   14.1500  -22.4270 O.2   130  SER130     -0.2717
     37  CB       -14.0120   14.8310  -20.3210 C.3   130  SER130      0.2103
     38  OG       -15.0800   14.0440  -20.7820 O.3   130  SER130     -0.2182
     39  N        -13.6270   14.7930  -23.7480 N.am  131  SER131     -0.1937
     40  CA       -13.1530   14.0520  -24.9270 C.3   131  SER131      0.2055
     41  C        -11.7000   14.3990  -25.1970 C.2   131  SER131      0.2643
     42  O        -11.3400   15.5840  -25.1930 O.2   131  SER131     -0.2714
     43  CB       -13.9810   14.4150  -26.1750 C.3   131  SER131      0.2130
     44  OG       -15.3860   14.2040  -25.9530 O.3   131  SER131     -0.2179
     45  N        -10.8730   13.3830  -25.4710 N.am  132  VAL132     -0.1963
     46  CA        -9.4660   13.6170  -25.8410 C.3   132  VAL132      0.1727
     47  C         -9.2970   13.9000  -27.3300 C.2   132  VAL132      0.2616
     48  O         -9.8160   13.1520  -28.1670 O.2   132  VAL132     -0.2715
     49  CB        -8.5660   12.4080  -25.4420 C.3   132  VAL132      0.0290
     50  CG1       -7.1570   12.5770  -26.0020 C.3   132  VAL132      0.0023
     51  CG2       -8.5210   12.2420  -23.9350 C.3   132  VAL132      0.0023
     52  N         -8.5650   14.9760  -27.6850 N.am  133  SER133     -0.1950
     53  CA        -8.2280   15.1680  -29.0780 C.3   133  SER133      0.1924
     54  C         -7.0220   16.0890  -29.1250 C.2   133  SER133      0.2314
     55  O         -6.5650   16.5780  -28.0970 O.2   133  SER133     -0.2863
     56  CB        -9.3870   15.8010  -29.8660 C.3   133  SER133      0.2116
     57  OG        -9.3020   15.4980  -31.2600 O.3   133  SER133     -0.2180
     58  N         -1.7660   18.2600  -27.2980 N.3   178  GLY178     -0.1210
     59  CA        -3.1140   18.1930  -26.7490 C.3   178  GLY178      0.1956
     60  C         -3.6100   16.7950  -26.3990 C.2   178  GLY178      0.2612
     61  O         -4.3750   16.6460  -25.4600 O.2   178  GLY178     -0.2717
     62  N         -3.1470   15.7770  -27.1100 N.am  179  ILE179     -0.1965
     63  CA        -3.5670   14.4000  -26.8730 C.3   179  ILE179      0.1727
     64  C         -2.9710   13.9260  -25.5390 C.2   179  ILE179      0.2616
     65  O         -3.6420   13.2390  -24.7580 O.2   179  ILE179     -0.2715
     66  CB        -3.1210   13.4940  -28.0550 C.3   179  ILE179      0.0290
     67  CG1       -3.8220   13.9310  -29.3350 C.3   179  ILE179      0.0022
     68  CG2       -3.3730   11.9760  -27.7760 C.3   179  ILE179      0.0023
     69  CD1       -3.2630   13.1940  -30.6050 C.3   179  ILE179      0.0001
     70  N         -1.7150   14.2900  -25.2710 N.am  180  TYR180     -0.1960
     71  CA        -1.0960   13.9480  -23.9880 C.3   180  TYR180      0.1771
     72  C         -1.8210   14.6350  -22.8400 C.2   180  TYR180      0.2620
     73  O         -1.8940   14.0980  -21.7360 O.2   180  TYR180     -0.2715
     74  CB         0.3810   14.3100  -23.9460 C.3   180  TYR180      0.0574
     75  CG         1.1700   13.6700  -25.0540 C.ar  180  TYR180     -0.0198
     76  CD1        1.2680   12.2920  -25.1470 C.ar  180  TYR180     -0.0009
     77  CD2        1.8390   14.4460  -26.0250 C.ar  180  TYR180     -0.0009
     78  CE1        2.0040   11.6740  -26.1770 C.ar  180  TYR180      0.0417
     79  CE2        2.5820   13.8310  -27.0470 C.ar  180  TYR180      0.0417
     80  CZ         2.6510   12.4480  -27.1150 C.ar  180  TYR180      0.1957
     81  OH         3.3760   11.8400  -28.1230 O.3   180  TYR180     -0.2866
     82  N         -2.3480   15.8230  -23.1080 N.am  181  GLY181     -0.1940
     83  CA        -3.1530   16.5380  -22.1310 C.3   181  GLY181      0.2014
     84  C         -2.8050   18.0090  -22.0910 C.2   181  GLY181      0.2639
     85  O         -1.7790   18.4330  -22.6430 O.2   181  GLY181     -0.2714
     86  N         -3.6590   18.7970  -21.4450 N.am  182  VAL182     -0.1963
     87  CA        -3.4460   20.2420  -21.4640 C.3   182  VAL182      0.1727
     88  C         -2.1100   20.6080  -20.8040 C.2   182  VAL182      0.2616
     89  O         -1.4840   21.5940  -21.1770 O.2   182  VAL182     -0.2715
     90  CB        -4.6560   20.9990  -20.8450 C.3   182  VAL182      0.0290
     91  CG1       -4.7350   20.7550  -19.3200 C.3   182  VAL182      0.0023
     92  CG2       -4.5570   22.4990  -21.1460 C.3   182  VAL182      0.0023
     93  N         -1.6810   19.8390  -19.7840 N.am  183  ASP183     -0.1971
     94  CA        -0.3880   19.9670  -19.1260 C.3   183  ASP183      0.1709
     95  C          0.7510   19.9740  -20.1480 C.2   183  ASP183      0.2293
     96  O          1.7260   20.7420  -20.0900 O.2   183  ASP183     -0.2864
     97  CB        -0.2250   18.7180  -18.2350 C.3   183  ASP183      0.1436
     98  CG        -1.1590   17.5640  -18.6630 C.2   183  ASP183      0.3671
     99  OD1       -0.7990   16.7610  -19.5710 O.co2 183  ASP183     -0.2456
    100  OD2       -2.2840   17.4660  -18.1010 O.co2 183  ASP183     -0.2456
    101  N         -9.5100   25.5790  -21.7910 N.3   202  ARG202     -0.1245
    102  CA        -9.6000   24.5850  -22.8460 C.3   202  ARG202      0.1563
    103  C        -11.0430   24.4760  -23.2850 C.2   202  ARG202      0.2260
    104  O        -11.9580   24.3260  -22.4790 O.2   202  ARG202     -0.2867
    105  CB        -9.0780   23.2420  -22.3370 C.3   202  ARG202      0.0307
    106  CG        -9.0360   22.0800  -23.3670 C.3   202  ARG202      0.0489
    107  CD        -8.3090   20.8720  -22.7330 C.3   202  ARG202      0.2205
    108  NE        -8.4610   19.6680  -23.5560 N.pl3 202  ARG202     -0.0865
    109  CZ        -9.5270   18.8760  -23.5280 C.cat 202  ARG202      0.5346
    110  NH1      -10.5200   19.1200  -22.6730 N.pl3 202  ARG202      0.1354
    111  NH2       -9.5940   17.8200  -24.3380 N.pl3 202  ARG202      0.1354
@<TRIPOS>BOND
     1    57    56    1
     2    69    67    1
     3    28    27    2
     4    27    26    1
     5    11    10    2
     6    56    53    1
     7    67    66    1
     8    26    25    1
     9    26    29    1
    10    10     9    1
    11    54    53    1
    12    54    55    2
    13    53    52    1
    14     9    12    1
    15     9     8    1
    16    31    29    1
    17    48    47    2
    18    81    80    1
    19    66    68    1
    20    66    63    1
    21    29    30    1
    22    52    47   am
    23    12    13    1
    24    14    13    2
    25    47    46    1
    26    58    59    1
    27    80    79   ar
    28    80    78   ar
    29    62    63    1
    30    62    60   am
    31    79    77   ar
    32    32    30    1
    33    63    64    1
    34    13    15   am
    35    59    60    1
    36    60    61    2
    37    78    76   ar
    38    43    44    1
    39    43    40    1
    40    77    75   ar
    41    50    49    1
    42    46    45    1
    43    46    49    1
    44    64    70   am
    45    64    65    2
    46    45    41   am
    47    49    51    1
    48    70    71    1
    49    41    42    2
    50    41    40    1
    51    76    75   ar
    52    75    74    1
    53    40    39    1
    54     4     3    2
    55   111   109    1
    56    71    74    1
    57    71    72    1
    58     3     2    1
    59    39    35   am
    60   108   109    2
    61   108   107    1
    62   109   110    1
    63   106   107    1
    64   106   105    1
    65   103   102    1
    66   103   104    2
    67    82    72   am
    68    82    83    1
    69   102   105    1
    70   102   101    1
    71    72    73    2
    72    85    84    2
    73     6     5    1
    74    35    36    2
    75    35    34    1
    76     2     1    1
    77     2     5    1
    78    83    84    1
    79    84    86   am
    80    33    34    1
    81     5     7    1
    82    34    37    1
    83    87    86    1
    84    87    90    1
    85    87    88    1
    86    89    88    2
    87    92    90    1
    88    90    91    1
    89    88    93   am
    90    38    37    1
    91    95    96    2
    92    95    94    1
    93    93    94    1
    94    99    98   ar
    95    94    97    1
    96    98    97    1
    97    98   100   ar
    98    24    23    1
    99    23    22    1
   100    22    21    1
   101    21    20    1
   102    19    18    2
   103    20    17    1
   104    18    17    1
   105    16    17    1
