@<TRIPOS>MOLECULE
tmp/2xxrB00.pdb
 119 114 0 0 0
SMALL
GASTEIGER

@<TRIPOS>ATOM
      1  N        -25.1810   52.4670   38.4830 N.3    57  TYR57      -0.1241
      2  CA       -25.7600   52.0060   37.2270 C.3    57  TYR57       0.1605
      3  C        -27.2800   51.9080   37.3350 C.2    57  TYR57       0.2264
      4  O        -28.0040   52.5660   36.5990 O.2    57  TYR57      -0.2867
      5  CB       -25.1500   50.6650   36.8220 C.3    57  TYR57       0.0534
      6  CG       -23.7770   50.8390   36.2380 C.ar   57  TYR57      -0.0201
      7  CD1      -22.6400   50.8810   37.0520 C.ar   57  TYR57      -0.0009
      8  CD2      -23.6150   50.9990   34.8730 C.ar   57  TYR57      -0.0009
      9  CE1      -21.3680   51.0580   36.4950 C.ar   57  TYR57       0.0417
     10  CE2      -22.3680   51.1830   34.3180 C.ar   57  TYR57       0.0417
     11  CZ       -21.2480   51.2140   35.1250 C.ar   57  TYR57       0.1957
     12  OH       -20.0170   51.3970   34.5290 O.3    57  TYR57      -0.2866
     13  N        -21.7350   52.0290   29.6320 N.3    85  PRO85      -0.2102
     14  CA       -21.7170   50.5590   29.5570 C.3    85  PRO85       0.1504
     15  C        -22.8500   49.9960   30.4130 C.2    85  PRO85       0.2576
     16  O        -22.6450   49.3790   31.4640 O.2    85  PRO85      -0.2718
     17  CB       -20.3300   50.2020   30.1160 C.3    85  PRO85       0.0282
     18  CG       -19.9780   51.3600   31.0300 C.3    85  PRO85       0.0208
     19  CD       -20.5380   52.5750   30.2980 C.3    85  PRO85       0.0893
     20  N        -24.0750   50.2450   29.9540 N.am   86  LEU86      -0.1966
     21  CA       -25.2700   49.8980   30.7040 C.3    86  LEU86       0.1728
     22  C        -25.8570   48.6040   30.1630 C.2    86  LEU86       0.2616
     23  O        -26.3050   48.5470   29.0300 O.2    86  LEU86      -0.2715
     24  CB       -26.2980   51.0250   30.5740 C.3    86  LEU86       0.0311
     25  CG       -27.5960   50.8480   31.3520 C.3    86  LEU86       0.0022
     26  CD1      -27.3440   50.8990   32.8430 C.3    86  LEU86       0.0001
     27  CD2      -28.6180   51.9370   30.9480 C.3    86  LEU86       0.0001
     28  N        -25.8650   47.5560   30.9780 N.am   87  ALA87      -0.1977
     29  CA       -26.3060   46.2530   30.4770 C.3    87  ALA87       0.1597
     30  C        -27.8190   46.1950   30.2520 C.2    87  ALA87       0.2287
     31  O        -28.6040   46.6480   31.0780 O.2    87  ALA87      -0.2864
     32  CB       -25.8800   45.1510   31.4380 C.3    87  ALA87       0.0319
     33  N        -34.5180   45.5660   33.8540 N.3    92  ARG92      -0.1245
     34  CA       -34.4270   46.9420   33.3780 C.3    92  ARG92       0.1563
     35  C        -35.3400   47.2070   32.1900 C.2    92  ARG92       0.2260
     36  O        -35.8880   48.2960   32.0690 O.2    92  ARG92      -0.2867
     37  CB       -32.9900   47.3320   33.0360 C.3    92  ARG92       0.0307
     38  CG       -32.1090   47.4780   34.2550 C.3    92  ARG92       0.0489
     39  CD       -30.6620   47.6030   33.8560 C.3    92  ARG92       0.2205
     40  NE       -29.8040   47.8750   34.9970 N.pl3  92  ARG92      -0.0865
     41  CZ       -28.4720   47.8580   34.9440 C.cat  92  ARG92       0.5346
     42  NH1      -27.8390   47.5810   33.8060 N.pl3  92  ARG92       0.1354
     43  NH2      -27.7770   48.1410   36.0370 N.pl3  92  ARG92       0.1354
     44  N        -19.5380   44.5760   41.8130 N.3   134  VAL134     -0.1245
     45  CA       -19.9750   45.9480   42.0340 C.3   134  VAL134      0.1561
     46  C        -21.3650   45.9660   42.6350 C.2   134  VAL134      0.2260
     47  O        -22.2410   45.2350   42.1940 O.2   134  VAL134     -0.2867
     48  CB       -20.0170   46.7420   40.7160 C.3   134  VAL134      0.0252
     49  CG1      -20.5590   48.1440   40.9670 C.3   134  VAL134      0.0019
     50  CG2      -18.6350   46.8120   40.0990 C.3   134  VAL134      0.0019
     51  N        -25.2840   46.7310   40.5210 N.3   137  GLY137     -0.1210
     52  CA       -25.1080   46.5740   39.0890 C.3   137  GLY137      0.1956
     53  C        -25.7170   45.2770   38.5960 C.2   137  GLY137      0.2612
     54  O        -26.2440   44.4840   39.3770 O.2   137  GLY137     -0.2717
     55  N        -25.6230   45.0580   37.2870 N.am  138  ALA138     -0.1965
     56  CA       -26.2040   43.8860   36.6420 C.3   138  ALA138      0.1728
     57  C        -25.5430   42.5690   37.0630 C.2   138  ALA138      0.2617
     58  O        -26.1990   41.5240   37.0870 O.2   138  ALA138     -0.2715
     59  CB       -26.1330   44.0490   35.1200 C.3   138  ALA138      0.0334
     60  N        -24.2500   42.6190   37.3720 N.am  139  THR139     -0.1937
     61  CA       -23.5330   41.4200   37.8080 C.3   139  THR139      0.2028
     62  C        -24.0250   40.9580   39.1690 C.2   139  THR139      0.2642
     63  O        -24.3030   39.7740   39.3650 O.2   139  THR139     -0.2714
     64  CB       -22.0080   41.6520   37.8490 C.3   139  THR139      0.1808
     65  OG1      -21.5370   41.9270   36.5280 O.3   139  THR139     -0.2208
     66  CG2      -21.2700   40.4140   38.3830 C.3   139  THR139      0.0379
     67  N        -24.1480   41.8940   40.1050 N.am  140  MET140     -0.1976
     68  CA       -24.6730   41.5610   41.4230 C.3   140  MET140      0.1605
     69  C        -26.0820   40.9980   41.2750 C.2   140  MET140      0.2287
     70  O        -26.4390   40.0170   41.9200 O.2   140  MET140     -0.2864
     71  CB       -24.7060   42.7890   42.3290 C.3   140  MET140      0.0413
     72  CG       -24.8550   42.4380   43.8110 C.3   140  MET140      0.0598
     73  SD       -25.6260   43.7650   44.7480 S.3   140  MET140     -0.1393
     74  CE       -27.2690   43.7640   44.0230 C.3   140  MET140      0.0692
     75  N        -16.1030   49.3820   39.6330 N.3   170  ASN170     -0.1240
     76  CA       -15.1460   48.4580   39.0280 C.3   170  ASN170      0.1653
     77  C        -13.7180   48.7880   39.4410 C.2   170  ASN170      0.2266
     78  O        -12.9380   47.8880   39.7570 O.2   170  ASN170     -0.2867
     79  CB       -15.2760   48.4410   37.4980 C.3   170  ASN170      0.1155
     80  CG       -16.4420   47.5830   37.0230 C.2   170  ASN170      0.2627
     81  OD1      -16.4430   46.3670   37.2110 O.2   170  ASN170     -0.2716
     82  ND2      -17.4440   48.2180   36.4110 N.am  170  ASN170     -0.0877
     83  N        -15.8450   39.4780   40.2080 N.3   185  LEU185     -0.1231
     84  CA       -16.8060   39.0920   39.1870 C.3   185  LEU185      0.1693
     85  C        -17.1940   40.3720   38.4570 C.2   185  LEU185      0.2592
     86  O        -17.7140   41.3070   39.0720 O.2   185  LEU185     -0.2718
     87  CB       -18.0340   38.4380   39.8320 C.3   185  LEU185      0.0284
     88  CG       -17.8870   36.9570   40.2340 C.3   185  LEU185      0.0019
     89  CD1      -17.9070   36.0620   39.0020 C.3   185  LEU185      0.0001
     90  CD2      -16.6320   36.7050   41.0540 C.3   185  LEU185      0.0001
     91  N        -16.9110   40.4240   37.1600 N.am  186  MET186     -0.1965
     92  CA       -17.1110   41.6600   36.4160 C.3   186  MET186      0.1736
     93  C        -17.2940   41.3680   34.9440 C.2   186  MET186      0.2616
     94  O        -17.1850   40.2220   34.5070 O.2   186  MET186     -0.2715
     95  CB       -15.9390   42.6100   36.6380 C.3   186  MET186      0.0427
     96  CG       -14.6240   42.0180   36.2550 C.3   186  MET186      0.0599
     97  SD       -13.2820   43.2320   36.3120 S.3   186  MET186     -0.1393
     98  CE       -13.8210   44.4040   35.0900 C.3   186  MET186      0.0692
     99  N        -17.5770   42.4040   34.1680 N.am  187  GLU187     -0.1977
    100  CA       -17.9210   42.1960   32.7590 C.3   187  GLU187      0.1602
    101  C        -16.6910   42.0100   31.8700 C.2   187  GLU187      0.2287
    102  O        -15.6800   42.6790   32.0400 O.2   187  GLU187     -0.2864
    103  CB       -18.8260   43.3320   32.2730 C.3   187  GLU187      0.0415
    104  CG       -20.2010   43.2410   32.9410 C.3   187  GLU187      0.1163
    105  CD       -21.0580   44.4730   32.7790 C.2   187  GLU187      0.3649
    106  OE1      -20.5160   45.5640   32.4670 O.co2 187  GLU187     -0.2457
    107  OE2      -22.2840   44.3410   32.9930 O.co2 187  GLU187     -0.2457
    108  N        -24.5320   45.8370   25.9180 N.3   213  TYR213     -0.1241
    109  CA       -24.7170   47.2140   26.3650 C.3   213  TYR213      0.1605
    110  C        -25.5930   47.9220   25.3550 C.2   213  TYR213      0.2264
    111  O        -25.3780   47.7900   24.1480 O.2   213  TYR213     -0.2867
    112  CB       -23.4010   47.9900   26.4000 C.3   213  TYR213      0.0534
    113  CG       -22.3900   47.5010   27.4010 C.ar  213  TYR213     -0.0201
    114  CD1      -22.7830   46.9850   28.6320 C.ar  213  TYR213     -0.0009
    115  CD2      -21.0350   47.6170   27.1270 C.ar  213  TYR213     -0.0009
    116  CE1      -21.8420   46.5740   29.5650 C.ar  213  TYR213      0.0417
    117  CE2      -20.0940   47.1980   28.0380 C.ar  213  TYR213      0.0417
    118  CZ       -20.4990   46.6870   29.2540 C.ar  213  TYR213      0.1957
    119  OH       -19.5470   46.2540   30.1500 O.3   213  TYR213     -0.2866
@<TRIPOS>BOND
     1   111   110    2
     2   110   109    1
     3   108   109    1
     4   109   112    1
     5   112   113    1
     6   115   113   ar
     7   115   117   ar
     8   113   114   ar
     9   117   118   ar
    10   114   116   ar
    11    23    22    2
    12   118   116   ar
    13   118   119    1
    14    14    13    1
    15    14    17    1
    16    14    15    1
    17    13    19    1
    18    20    15   am
    19    20    21    1
    20    17    18    1
    21    22    21    1
    22    22    28   am
    23    30    29    1
    24    30    31    2
    25    19    18    1
    26    15    16    2
    27    29    28    1
    28    29    32    1
    29    24    21    1
    30    24    25    1
    31    27    25    1
    32    25    26    1
    33   101   102    2
    34   101   100    1
    35    36    35    2
    36    35    34    1
    37   103   100    1
    38   103   104    1
    39   106   105   ar
    40   100    99    1
    41   105   104    1
    42   105   107   ar
    43    37    34    1
    44    37    38    1
    45    34    33    1
    46    42    41    1
    47    39    38    1
    48    39    40    1
    49    99    93   am
    50    10     8   ar
    51    10    11   ar
    52    94    93    2
    53    12    11    1
    54     8     6   ar
    55    93    92    1
    56    41    40    2
    57    41    43    1
    58    98    97    1
    59    59    56    1
    60    11     9   ar
    61     6     5    1
    62     6     7   ar
    63    96    97    1
    64    96    95    1
    65    82    80   am
    66    92    95    1
    67    92    91    1
    68     9     7   ar
    69    65    64    1
    70     4     3    2
    71    56    57    1
    72    56    55    1
    73     5     2    1
    74    80    81    2
    75    80    79    1
    76    57    58    2
    77    57    60   am
    78    91    85   am
    79     2     3    1
    80     2     1    1
    81    55    53   am
    82    60    61    1
    83    79    76    1
    84    61    64    1
    85    61    62    1
    86    64    66    1
    87    85    86    2
    88    85    84    1
    89    53    52    1
    90    53    54    2
    91    89    88    1
    92    76    77    1
    93    76    75    1
    94    52    51    1
    95    62    63    2
    96    62    67   am
    97    84    87    1
    98    84    83    1
    99    77    78    2
   100    87    88    1
   101    50    48    1
   102    67    68    1
   103    88    90    1
   104    48    49    1
   105    48    45    1
   106    69    68    1
   107    69    70    2
   108    68    71    1
   109    44    45    1
   110    45    46    1
   111    47    46    2
   112    71    72    1
   113    72    73    1
   114    74    73    1
