@<TRIPOS>MOLECULE
tmp/2xxzB00.pdb
 139 130 0 0 0
SMALL
GASTEIGER

@<TRIPOS>ATOM
      1  N         39.3070   46.0500  -53.9220 N.3   122  PHE122     -0.1241
      2  CA        40.0360   46.5580  -52.7580 C.3   122  PHE122      0.1605
      3  C         41.3790   47.1090  -53.2640 C.2   122  PHE122      0.2264
      4  O         42.1990   46.3470  -53.8010 O.2   122  PHE122     -0.2867
      5  CB        40.1930   45.3560  -51.7930 C.3   122  PHE122      0.0534
      6  CG        41.0370   45.5900  -50.5600 C.ar  122  PHE122     -0.0203
      7  CD1       41.3740   46.8480  -50.1030 C.ar  122  PHE122     -0.0042
      8  CD2       41.4290   44.4930  -49.8000 C.ar  122  PHE122     -0.0042
      9  CE1       42.1320   47.0110  -48.9300 C.ar  122  PHE122     -0.0003
     10  CE2       42.1740   44.6510  -48.6260 C.ar  122  PHE122     -0.0003
     11  CZ        42.5310   45.9190  -48.1980 C.ar  122  PHE122     -0.0000
     12  N         44.9210   48.0600  -52.5240 N.3   124  THR124     -0.1203
     13  CA        45.7390   47.5220  -51.4390 C.3   124  THR124      0.1994
     14  C         47.2280   47.7500  -51.6770 C.2   124  THR124      0.2617
     15  O         47.6520   48.1010  -52.7860 O.2   124  THR124     -0.2717
     16  CB        45.4680   45.9960  -51.2120 C.3   124  THR124      0.1784
     17  OG1       45.8830   45.6140  -49.8900 O.3   124  THR124     -0.2211
     18  CG2       46.1970   45.1410  -52.2540 C.3   124  THR124      0.0376
     19  N         48.0090   47.5610  -50.6060 N.am  125  ASN125     -0.1974
     20  CA        49.4750   47.6950  -50.6420 C.3   125  ASN125      0.1688
     21  C         49.9520   48.9460  -51.3720 C.2   125  ASN125      0.2292
     22  O         50.9510   48.9190  -52.1030 O.2   125  ASN125     -0.2864
     23  CB        50.1170   46.4620  -51.2960 C.3   125  ASN125      0.1181
     24  CG        49.6700   45.1520  -50.6630 C.2   125  ASN125      0.2629
     25  OD1       49.2640   45.1030  -49.5010 O.2   125  ASN125     -0.2716
     26  ND2       49.7520   44.0730  -51.4370 N.am  125  ASN125     -0.0877
     27  N         45.5530   51.6880  -47.8460 N.3   163  TYR163     -0.1241
     28  CA        44.5450   50.7410  -48.2660 C.3   163  TYR163      0.1605
     29  C         43.2830   51.5650  -48.5130 C.2   163  TYR163      0.2264
     30  O         42.8880   52.3640  -47.6640 O.2   163  TYR163     -0.2867
     31  CB        44.3220   49.6590  -47.1970 C.3   163  TYR163      0.0534
     32  CG        45.6180   48.9680  -46.8200 C.ar  163  TYR163     -0.0201
     33  CD1       46.1010   47.9020  -47.5630 C.ar  163  TYR163     -0.0009
     34  CD2       46.4140   49.4580  -45.8030 C.ar  163  TYR163     -0.0009
     35  CE1       47.3240   47.3250  -47.2660 C.ar  163  TYR163      0.0417
     36  CE2       47.6280   48.8650  -45.4930 C.ar  163  TYR163      0.0417
     37  CZ        48.0720   47.8130  -46.2220 C.ar  163  TYR163      0.1957
     38  OH        49.2700   47.2300  -45.9040 O.3   163  TYR163     -0.2866
     39  N         39.2760   51.2400  -49.4670 N.3   165  LYS165     -0.1245
     40  CA        38.3360   50.1410  -49.2940 C.3   165  LYS165      0.1561
     41  C         36.8870   50.4600  -49.6020 C.2   165  LYS165      0.2260
     42  O         36.4620   51.6070  -49.5390 O.2   165  LYS165     -0.2867
     43  CB        38.4110   49.5850  -47.8680 C.3   165  LYS165      0.0271
     44  CG        39.8240   49.2350  -47.4030 C.3   165  LYS165      0.0035
     45  CD        39.7740   48.6740  -45.9890 C.3   165  LYS165      0.0206
     46  CE        41.1520   48.4560  -45.3630 C.3   165  LYS165      0.1093
     47  NZ        41.0780   47.7130  -44.0330 N.3   165  LYS165     -0.1314
     48  N         41.2120   41.6860  -45.7590 N.3   171  THR171     -0.1218
     49  CA        42.6280   41.4170  -45.5860 C.3   171  THR171      0.1862
     50  C         42.7050   40.0490  -44.9200 C.2   171  THR171      0.2287
     51  O         42.3310   39.9040  -43.7430 O.2   171  THR171     -0.2866
     52  CB        43.2830   42.4540  -44.7240 C.3   171  THR171      0.1770
     53  OG1       43.3700   43.6810  -45.4720 O.3   171  THR171     -0.2211
     54  CG2       44.7200   42.0060  -44.3080 C.3   171  THR171      0.0375
     55  N         46.8090   36.5560  -41.2660 N.3   174  HIS174     -0.1241
     56  CA        48.2590   36.4750  -41.2270 C.3   174  HIS174      0.1621
     57  C         48.8040   36.8880  -39.8760 C.2   174  HIS174      0.2264
     58  O         48.0950   37.5320  -39.0850 O.2   174  HIS174     -0.2867
     59  CB        48.8830   37.3510  -42.3170 C.3   174  HIS174      0.0745
     60  CG        48.6190   38.8270  -42.1820 C.ar  174  HIS174      0.0817
     61  ND1       47.3670   39.3990  -42.3410 N.ar  174  HIS174     -0.2268
     62  CD2       49.4800   39.8540  -41.9810 C.ar  174  HIS174      0.1154
     63  CE1       47.4710   40.7130  -42.2130 C.ar  174  HIS174      0.1986
     64  NE2       48.7460   41.0130  -41.9920 N.ar  174  HIS174     -0.2212
     65  N         52.4030   39.1220  -38.7240 N.3   176  GLU176     -0.1245
     66  CA        53.5010   39.8940  -39.3300 C.3   176  GLU176      0.1567
     67  C         54.8480   39.1750  -39.2060 C.2   176  GLU176      0.2260
     68  O         55.0610   38.3950  -38.2900 O.2   176  GLU176     -0.2867
     69  CB        53.6280   41.2740  -38.6820 C.3   176  GLU176      0.0388
     70  CG        52.3810   42.1040  -38.7160 C.3   176  GLU176      0.1160
     71  CD        51.8450   42.2810  -40.1190 C.2   176  GLU176      0.3649
     72  OE1       52.6520   42.3190  -41.0820 O.co2 176  GLU176     -0.2457
     73  OE2       50.6040   42.3430  -40.2660 O.co2 176  GLU176     -0.2457
     74  N         52.2390   45.4940  -35.6530 N.3   182  SER182     -0.1217
     75  CA        51.6830   46.2940  -36.7340 C.3   182  SER182      0.1889
     76  C         50.8650   47.4460  -36.1440 C.2   182  SER182      0.2288
     77  O         50.2870   47.3060  -35.0670 O.2   182  SER182     -0.2866
     78  CB        50.8210   45.4310  -37.6150 C.3   182  SER182      0.2089
     79  OG        50.4010   46.1790  -38.7400 O.3   182  SER182     -0.2183
     80  N         47.8510   50.2880  -37.2900 N.3   184  ASN184     -0.1240
     81  CA        46.8690   50.5760  -38.3340 C.3   184  ASN184      0.1653
     82  C         45.9340   51.7060  -37.8810 C.2   184  ASN184      0.2266
     83  O         45.3700   51.6530  -36.7870 O.2   184  ASN184     -0.2867
     84  CB        46.1010   49.2900  -38.6340 C.3   184  ASN184      0.1155
     85  CG        45.0670   49.4390  -39.7770 C.2   184  ASN184      0.2627
     86  OD1       44.1230   50.2550  -39.6990 O.2   184  ASN184     -0.2716
     87  ND2       45.1940   48.5710  -40.8050 N.am  184  ASN184     -0.0877
     88  N         37.5130   43.7150  -37.1750 N.3   194  TRP194     -0.1241
     89  CA        38.7630   43.0030  -36.9870 C.3   194  TRP194      0.1605
     90  C         38.4870   41.7030  -36.2400 C.2   194  TRP194      0.2264
     91  O         37.5710   41.6320  -35.3780 O.2   194  TRP194     -0.2867
     92  CB        39.7100   43.8410  -36.1480 C.3   194  TRP194      0.0550
     93  CG        40.3180   45.0070  -36.8340 C.ar  194  TRP194      0.0003
     94  CD1       39.6790   46.1410  -37.2570 C.ar  194  TRP194      0.0946
     95  CD2       41.6990   45.1810  -37.1530 C.ar  194  TRP194      0.0152
     96  NE1       40.5840   46.9980  -37.8380 N.ar  194  TRP194     -0.2442
     97  CE2       41.8350   46.4470  -37.7530 C.ar  194  TRP194      0.0810
     98  CE3       42.8510   44.4050  -36.9450 C.ar  194  TRP194      0.0012
     99  CZ2       43.0480   46.9240  -38.1900 C.ar  194  TRP194      0.0191
    100  CZ3       44.0420   44.8760  -37.3900 C.ar  194  TRP194      0.0001
    101  CH2       44.1470   46.1440  -37.9780 C.ar  194  TRP194      0.0015
    102  N         48.7280   45.7700  -33.3080 N.3   248  ILE248     -0.1245
    103  CA        48.7720   44.2970  -33.3290 C.3   248  ILE248      0.1561
    104  C         50.0880   43.8750  -32.7120 C.2   248  ILE248      0.2260
    105  O         51.1780   44.2100  -33.2140 O.2   248  ILE248     -0.2867
    106  CB        48.6690   43.6920  -34.7250 C.3   248  ILE248      0.0252
    107  CG1       47.4170   44.2110  -35.4310 C.3   248  ILE248      0.0019
    108  CG2       48.6250   42.1710  -34.6370 C.3   248  ILE248      0.0019
    109  CD1       47.6490   45.4160  -36.2210 C.3   248  ILE248      0.0001
    110  N         45.6840   37.6840  -37.3380 N.3   254  HIS254     -0.1241
    111  CA        44.5720   38.6270  -37.4880 C.3   254  HIS254      0.1621
    112  C         44.0790   38.7100  -38.9350 C.2   254  HIS254      0.2264
    113  O         44.8160   38.4430  -39.8770 O.2   254  HIS254     -0.2867
    114  CB        44.9680   40.0370  -36.9890 C.3   254  HIS254      0.0745
    115  CG        46.1210   40.6480  -37.7280 C.ar  254  HIS254      0.0817
    116  ND1       47.4160   40.1910  -37.6040 N.ar  254  HIS254     -0.2268
    117  CD2       46.1740   41.6830  -38.6010 C.ar  254  HIS254      0.1154
    118  CE1       48.2060   40.8870  -38.4020 C.ar  254  HIS254      0.1986
    119  NE2       47.4820   41.8080  -39.0060 N.ar  254  HIS254     -0.2212
    120  N         40.7970   41.0420  -41.2740 N.3   256  VAL256     -0.1245
    121  CA        40.0510   42.3030  -41.2070 C.3   256  VAL256      0.1561
    122  C         39.1170   42.4220  -42.4140 C.2   256  VAL256      0.2260
    123  O         39.4850   42.0380  -43.5260 O.2   256  VAL256     -0.2867
    124  CB        41.0150   43.4960  -41.2600 C.3   256  VAL256      0.0252
    125  CG1       40.2940   44.8560  -41.0500 C.3   256  VAL256      0.0019
    126  CG2       42.2030   43.3250  -40.2770 C.3   256  VAL256      0.0019
    127  N         42.5420   52.9870  -44.8620 N.3   264  ASN264     -0.1240
    128  CA        43.4020   52.6920  -43.6970 C.3   264  ASN264      0.1653
    129  C         44.8650   52.9410  -44.0840 C.2   264  ASN264      0.2266
    130  O         45.2470   52.7550  -45.2530 O.2   264  ASN264     -0.2867
    131  CB        43.2460   51.2430  -43.2170 C.3   264  ASN264      0.1155
    132  CG        41.8290   50.9170  -42.7090 C.2   264  ASN264      0.2627
    133  OD1       40.8720   50.8970  -43.4860 O.2   264  ASN264     -0.2716
    134  ND2       41.7130   50.5920  -41.4060 N.am  264  ASN264     -0.0877
    135  N         48.8670   51.8210  -42.5910 N.3   266  ALA266     -0.1245
    136  CA        49.4210   50.7890  -41.7240 C.3   266  ALA266      0.1562
    137  C         50.8870   50.6230  -41.9840 C.2   266  ALA266      0.2260
    138  O         51.3770   50.9390  -43.0930 O.2   266  ALA266     -0.2867
    139  CB        48.6920   49.4240  -41.9420 C.3   266  ALA266      0.0290
@<TRIPOS>BOND
     1     1     2    1
     2     4     3    2
     3     3     2    1
     4    15    14    2
     5     2     5    1
     6    12    13    1
     7    18    16    1
     8    22    21    2
     9     5     6    1
    10    14    13    1
    11    14    19   am
    12    13    16    1
    13    26    24   am
    14    21    20    1
    15    23    24    1
    16    23    20    1
    17    16    17    1
    18    24    25    2
    19    20    19    1
    20     6     7   ar
    21     6     8   ar
    22     7     9   ar
    23     8    10   ar
    24    41    42    2
    25    41    40    1
    26    39    40    1
    27    40    43    1
    28     9    11   ar
    29    10    11   ar
    30    29    28    1
    31    29    30    2
    32    28    27    1
    33    28    31    1
    34    43    44    1
    35    33    35   ar
    36    33    32   ar
    37    44    45    1
    38    35    37   ar
    39    31    32    1
    40    32    34   ar
    41    37    38    1
    42    37    36   ar
    43    45    46    1
    44    34    36   ar
    45    48    49    1
    46    49    50    1
    47    49    52    1
    48    53    52    1
    49    46    47    1
    50   130   129    2
    51    50    51    2
    52   127   128    1
    53    52    54    1
    54   129   128    1
    55   128   131    1
    56   123   122    2
    57   133   132    2
    58   131   132    1
    59   138   137    2
    60   132   134   am
    61   135   136    1
    62   122   121    1
    63    61    63   ar
    64    61    60   ar
    65    59    60    1
    66    59    56    1
    67    63    64   ar
    68    60    62   ar
    69    64    62   ar
    70   137   136    1
    71   139   136    1
    72   120   121    1
    73    55    56    1
    74   124   121    1
    75   124   125    1
    76   124   126    1
    77    56    57    1
    78    72    71   ar
    79    87    85   am
    80    73    71   ar
    81    71    70    1
    82   113   112    2
    83    57    58    2
    84    85    86    2
    85    85    84    1
    86    66    67    1
    87    66    65    1
    88    66    69    1
    89    67    68    2
    90   119   117   ar
    91   119   118   ar
    92   112   111    1
    93    79    78    1
    94    70    69    1
    95    84    81    1
    96   117   115   ar
    97   118   116   ar
    98    81    82    1
    99    81    80    1
   100    99   101   ar
   101    99    97   ar
   102   101   100   ar
   103    82    83    2
   104    96    97   ar
   105    96    94   ar
   106    97    95   ar
   107   115   116   ar
   108   115   114    1
   109    78    75    1
   110   111   110    1
   111   111   114    1
   112   100    98   ar
   113    94    93   ar
   114    88    89    1
   115    95    98   ar
   116    95    93   ar
   117    89    90    1
   118    89    92    1
   119    93    92    1
   120    75    76    1
   121    75    74    1
   122    90    91    2
   123   109   107    1
   124    76    77    2
   125   107   106    1
   126   106   108    1
   127   106   103    1
   128   103   102    1
   129   103   104    1
   130   105   104    2
