@<TRIPOS>MOLECULE
tmp/2xy3B00.pdb
 112 111 0 0 0
SMALL
GASTEIGER

@<TRIPOS>ATOM
      1  N         -2.6550    5.4000  -52.4070 N.3    57  VAL57      -0.1245
      2  CA        -2.6980    6.8350  -52.0820 C.3    57  VAL57       0.1561
      3  C         -2.8370    7.0090  -50.5790 C.2    57  VAL57       0.2260
      4  O         -3.7500    6.4770  -49.9570 O.2    57  VAL57      -0.2867
      5  CB        -3.8690    7.5710  -52.7700 C.3    57  VAL57       0.0252
      6  CG1       -4.0030    9.0350  -52.2860 C.3    57  VAL57       0.0019
      7  CG2       -3.7290    7.5020  -54.2790 C.3    57  VAL57       0.0019
      8  N         -7.7160   10.7130  -43.8720 N.3    71  GLN71      -0.1245
      9  CA        -8.2380   10.0360  -45.0470 C.3    71  GLN71       0.1566
     10  C         -9.0360    8.8330  -44.5630 C.2    71  GLN71       0.2260
     11  O         -8.4440    7.9010  -44.0310 O.2    71  GLN71      -0.2867
     12  CB        -7.0980    9.5780  -45.9070 C.3    71  GLN71       0.0367
     13  CG        -7.4880    9.1870  -47.3180 C.3    71  GLN71       0.0905
     14  CD        -6.2940    8.6760  -48.1040 C.2    71  GLN71       0.2608
     15  OE1       -5.1750    9.1540  -47.9400 O.2    71  GLN71      -0.2717
     16  NE2       -6.5160    7.6760  -48.9230 N.am   71  GLN71      -0.0878
     17  N        -10.5260    6.2070  -45.6220 N.3    73  ASN73      -0.1240
     18  CA       -10.2580    4.8420  -46.0430 C.3    73  ASN73       0.1653
     19  C         -8.7870    4.4430  -45.8050 C.2    73  ASN73       0.2266
     20  O         -8.3130    3.4370  -46.3900 O.2    73  ASN73      -0.2867
     21  CB       -10.6040    4.6980  -47.5250 C.3    73  ASN73       0.1155
     22  CG        -9.6970    5.5190  -48.4160 C.2    73  ASN73       0.2627
     23  OD1       -9.7870    5.4360  -49.6200 O.2    73  ASN73      -0.2716
     24  ND2       -8.8030    6.2880  -47.8280 N.am   73  ASN73      -0.0877
     25  N         -6.1270    4.6550  -50.0670 N.3    76  GLY76      -0.1210
     26  CA        -6.8820    4.4220  -51.2700 C.3    76  GLY76       0.1956
     27  C         -6.1220    3.4730  -52.1740 C.2    76  GLY76       0.2612
     28  O         -4.9150    3.6050  -52.3410 O.2    76  GLY76      -0.2717
     29  N         -6.8400    2.5060  -52.7290 N.am   77  VAL77      -0.1965
     30  CA        -6.3050    1.5380  -53.6840 C.3    77  VAL77       0.1727
     31  C         -6.9260    1.8270  -55.0430 C.2    77  VAL77       0.2616
     32  O         -8.1330    1.7800  -55.1730 O.2    77  VAL77      -0.2715
     33  CB        -6.6860    0.1130  -53.2640 C.3    77  VAL77       0.0290
     34  CG1       -6.6010   -0.8240  -54.4590 C.3    77  VAL77       0.0023
     35  CG2       -5.7920   -0.3670  -52.1280 C.3    77  VAL77       0.0023
     36  N         -6.1140    2.1770  -56.0290 N.am   78  ILE78      -0.1963
     37  CA        -6.6100    2.4500  -57.3890 C.3    78  ILE78       0.1727
     38  C         -6.1030    1.3550  -58.3500 C.2    78  ILE78       0.2616
     39  O         -4.9030    1.1840  -58.5090 O.2    78  ILE78      -0.2715
     40  CB        -6.1460    3.8370  -57.9290 C.3    78  ILE78       0.0290
     41  CG1       -6.1650    4.9070  -56.8310 C.3    78  ILE78       0.0022
     42  CG2       -7.0270    4.2370  -59.1290 C.3    78  ILE78       0.0023
     43  CD1       -7.4100    5.7580  -56.8020 C.3    78  ILE78       0.0001
     44  N         -7.0190    0.6290  -58.9830 N.am   79  ASP79      -0.1971
     45  CA        -6.6730   -0.5170  -59.8380 C.3    79  ASP79       0.1709
     46  C         -6.3810   -0.0840  -61.2630 C.2    79  ASP79       0.2293
     47  O         -6.8990    0.9460  -61.7090 O.2    79  ASP79      -0.2864
     48  CB        -7.8270   -1.5240  -59.8810 C.3    79  ASP79       0.1436
     49  CG        -7.4620   -2.8000  -60.6210 C.2    79  ASP79       0.3671
     50  OD1       -6.3840   -3.3510  -60.3800 O.co2  79  ASP79      -0.2456
     51  OD2       -8.2460   -3.2750  -61.4550 O.co2  79  ASP79      -0.2456
     52  N         -7.7020   -1.2010  -63.6580 N.3    81  SER81      -0.1202
     53  CA        -9.0970   -1.0260  -64.0900 C.3    81  SER81       0.2020
     54  C         -9.6740    0.4080  -64.1620 C.2    81  SER81       0.2618
     55  O        -10.6490    0.6430  -64.8600 O.2    81  SER81      -0.2717
     56  CB        -9.9590   -1.8190  -63.1230 C.3    81  SER81       0.2103
     57  OG       -11.3030   -1.8560  -63.5130 O.3    81  SER81      -0.2182
     58  N         -9.1770    1.3290  -63.3480 N.am   82  TYR82      -0.1975
     59  CA        -9.6810    2.7130  -63.2700 C.3    82  TYR82       0.1639
     60  C         -8.8470    3.5720  -64.1780 C.2    82  TYR82       0.2290
     61  O         -7.9060    4.1810  -63.7480 O.2    82  TYR82      -0.2864
     62  CB        -9.5380    3.1850  -61.8360 C.3    82  TYR82       0.0560
     63  CG       -10.4030    4.3220  -61.4060 C.ar   82  TYR82      -0.0198
     64  CD1      -11.7470    4.1670  -61.2400 C.ar   82  TYR82      -0.0009
     65  CD2       -9.8580    5.5480  -61.1150 C.ar   82  TYR82      -0.0009
     66  CE1      -12.5290    5.2090  -60.8310 C.ar   82  TYR82       0.0417
     67  CE2      -10.6250    6.5780  -60.6940 C.ar   82  TYR82       0.0417
     68  CZ       -11.9580    6.4130  -60.5640 C.ar   82  TYR82       0.1957
     69  OH       -12.7230    7.4570  -60.1730 O.3    82  TYR82      -0.2866
     70  N        -11.4710   10.0160  -62.2330 N.3    88  PHE88      -0.1227
     71  CA       -10.7170   11.0150  -61.5320 C.3    88  PHE88       0.1736
     72  C        -10.5700   10.6600  -60.0670 C.2    88  PHE88       0.2595
     73  O        -11.5440   10.4020  -59.3630 O.2    88  PHE88      -0.2718
     74  CB       -11.4140   12.3640  -61.6540 C.3    88  PHE88       0.0547
     75  CG       -11.3560   12.9280  -63.0230 C.ar   88  PHE88      -0.0202
     76  CD1      -10.1180   13.2740  -63.5900 C.ar   88  PHE88      -0.0042
     77  CD2      -12.5220   13.1010  -63.7830 C.ar   88  PHE88      -0.0042
     78  CE1      -10.0410   13.8000  -64.8770 C.ar   88  PHE88      -0.0003
     79  CE2      -12.4450   13.6390  -65.0840 C.ar   88  PHE88      -0.0003
     80  CZ       -11.2040   13.9820  -65.6240 C.ar   88  PHE88      -0.0000
     81  N         -9.3170   10.6930  -59.6360 N.am   89  TRP89      -0.1962
     82  CA        -8.9230   10.3570  -58.3040 C.3    89  TRP89       0.1771
     83  C         -9.4450   11.4380  -57.3720 C.2    89  TRP89       0.2619
     84  O         -9.4790   12.6050  -57.7210 O.2    89  TRP89      -0.2715
     85  CB        -7.4050   10.3240  -58.2090 C.3    89  TRP89       0.0590
     86  CG        -6.7330    9.3060  -59.0100 C.ar   89  TRP89       0.0006
     87  CD1       -7.1570    8.7440  -60.1860 C.ar   89  TRP89       0.0946
     88  CD2       -5.4550    8.7240  -58.7340 C.ar   89  TRP89       0.0152
     89  NE1       -6.2260    7.8360  -60.6410 N.ar   89  TRP89      -0.2442
     90  CE2       -5.1780    7.8000  -59.7680 C.ar   89  TRP89       0.0810
     91  CE3       -4.5230    8.8870  -57.7140 C.ar   89  TRP89       0.0012
     92  CZ2       -4.0080    7.0410  -59.7970 C.ar   89  TRP89       0.0191
     93  CZ3       -3.3580    8.1310  -57.7430 C.ar   89  TRP89       0.0001
     94  CH2       -3.1010    7.2330  -58.7860 C.ar   89  TRP89       0.0015
     95  N         -9.8280   11.0090  -56.1780 N.am   90  PHE90      -0.1974
     96  CA       -10.3150   11.9000  -55.1230 C.3    90  PHE90       0.1639
     97  C         -9.5900   11.5420  -53.8020 C.2    90  PHE90       0.2290
     98  O         -9.0870   10.4450  -53.6340 O.2    90  PHE90      -0.2864
     99  CB       -11.8370   11.7520  -54.9350 C.3    90  PHE90       0.0560
    100  CG       -12.6930   12.4180  -56.0170 C.ar   90  PHE90      -0.0200
    101  CD1      -13.0470   11.7300  -57.1740 C.ar   90  PHE90      -0.0042
    102  CD2      -13.2140   13.6960  -55.8310 C.ar   90  PHE90      -0.0042
    103  CE1      -13.8480   12.3320  -58.1500 C.ar   90  PHE90      -0.0003
    104  CE2      -14.0100   14.2980  -56.8000 C.ar   90  PHE90      -0.0003
    105  CZ       -14.3290   13.6190  -57.9520 C.ar   90  PHE90      -0.0000
    106  N        -10.6290   11.2840  -49.9670 N.3    92  PRO92      -0.2116
    107  CA       -11.7380   11.3140  -49.0210 C.3    92  PRO92       0.1372
    108  C        -11.2960   11.8530  -47.7120 C.2    92  PRO92       0.2244
    109  O        -10.5960   11.1490  -46.9820 O.2    92  PRO92      -0.2868
    110  CB       -12.0930    9.8440  -48.8320 C.3    92  PRO92       0.0268
    111  CG       -10.9160    9.0920  -49.2940 C.3    92  PRO92       0.0207
    112  CD       -10.0900    9.9290  -50.1910 C.3    92  PRO92       0.0892
@<TRIPOS>BOND
     1    80    79   ar
     2    80    78   ar
     3    79    77   ar
     4    78    76   ar
     5    55    54    2
     6    60    61    2
     7    60    59    1
     8    54    53    1
     9    54    58   am
    10    53    52    1
    11    53    56    1
    12    77    75   ar
    13    76    75   ar
    14    57    56    1
    15    58    59    1
    16    59    62    1
    17    75    74    1
    18    70    71    1
    19    62    63    1
    20    47    46    2
    21    74    71    1
    22    71    72    1
    23    51    49   ar
    24    63    64   ar
    25    63    65   ar
    26    46    45    1
    27    64    66   ar
    28    65    67   ar
    29    66    68   ar
    30    67    68   ar
    31    89    87   ar
    32    89    90   ar
    33    49    50   ar
    34    49    48    1
    35    68    69    1
    36    87    86   ar
    37    72    81   am
    38    72    73    2
    39    48    45    1
    40    45    44    1
    41    92    90   ar
    42    92    94   ar
    43    90    88   ar
    44    81    82    1
    45    42    40    1
    46    86    88   ar
    47    86    85    1
    48    44    38   am
    49    94    93   ar
    50    88    91   ar
    51    39    38    2
    52    38    37    1
    53    82    85    1
    54    82    83    1
    55   103   105   ar
    56   103   101   ar
    57   105   104   ar
    58    40    37    1
    59    40    41    1
    60    93    91   ar
    61    84    83    2
    62    37    36    1
    63    83    95   am
    64   101   100   ar
    65    41    43    1
    66   104   102   ar
    67    95    96    1
    68    36    31   am
    69   100   102   ar
    70   100    99    1
    71    32    31    2
    72    96    99    1
    73    96    97    1
    74    31    30    1
    75    34    33    1
    76     7     5    1
    77    97    98    2
    78    30    33    1
    79    30    29    1
    80    33    35    1
    81     5     6    1
    82     5     2    1
    83    29    27   am
    84     1     2    1
    85    28    27    2
    86    27    26    1
    87     2     3    1
    88    26    25    1
    89     3     4    2
    90   112   106    1
    91   112   111    1
    92   106   107    1
    93    23    22    2
    94   111   110    1
    95   107   110    1
    96   107   108    1
    97    16    14   am
    98    22    24   am
    99    22    21    1
   100    14    15    2
   101    14    13    1
   102   108   109    2
   103    21    18    1
   104    13    12    1
   105    20    19    2
   106    18    19    1
   107    18    17    1
   108    12     9    1
   109     9    10    1
   110     9     8    1
   111    10    11    2
