@<TRIPOS>MOLECULE
tmp/2xy4A00.pdb
 113 106 0 0 0
SMALL
GASTEIGER

@<TRIPOS>ATOM
      1  N         -8.4300  -51.0420  -12.5920 N.3    89  MET89      -0.1230
      2  CA        -9.5580  -50.2170  -13.0150 C.3    89  MET89       0.1702
      3  C         -9.2460  -48.7530  -12.7220 C.2    89  MET89       0.2592
      4  O         -8.5230  -48.4300  -11.7710 O.2    89  MET89      -0.2718
      5  CB       -10.8510  -50.6530  -12.2990 C.3    89  MET89       0.0401
      6  CG       -11.4070  -52.0050  -12.7490 C.3    89  MET89       0.0596
      7  SD       -12.8410  -52.6310  -11.8410 S.3    89  MET89      -0.1393
      8  CE       -14.0800  -51.3810  -12.2240 C.3    89  MET89       0.0692
      9  N         -9.7850  -47.8590  -13.5470 N.am   90  LYS90      -0.1980
     10  CA        -9.6810  -46.4240  -13.2670 C.3    90  LYS90       0.1596
     11  C        -10.5180  -46.0750  -12.0380 C.2    90  LYS90       0.2287
     12  O        -11.5670  -46.6880  -11.7930 O.2    90  LYS90      -0.2864
     13  CB       -10.1350  -45.5970  -14.4740 C.3    90  LYS90       0.0298
     14  CG        -9.1260  -45.5530  -15.6120 C.3    90  LYS90       0.0038
     15  CD        -8.0180  -44.5450  -15.3320 C.3    90  LYS90       0.0206
     16  CE        -6.9490  -44.5890  -16.4040 C.3    90  LYS90       0.1093
     17  NZ        -5.8220  -43.6530  -16.1200 N.3    90  LYS90      -0.1314
     18  N         -7.7170  -47.0350   -9.3240 N.3    98  ASN98      -0.1240
     19  CA        -8.2450  -47.5240   -8.0600 C.3    98  ASN98       0.1653
     20  C         -7.1990  -48.4590   -7.4680 C.2    98  ASN98       0.2266
     21  O         -6.8350  -49.4540   -8.0830 O.2    98  ASN98      -0.2867
     22  CB        -9.5620  -48.2640   -8.3020 C.3    98  ASN98       0.1155
     23  CG       -10.2340  -48.7260   -7.0190 C.2    98  ASN98       0.2627
     24  OD1       -9.6070  -48.8140   -5.9660 O.2    98  ASN98      -0.2716
     25  ND2      -11.5170  -49.0630   -7.1130 N.am   98  ASN98      -0.0877
     26  N        -28.8150  -56.7960   -8.7550 N.3   156  LYS156     -0.1245
     27  CA       -28.4820  -56.0120   -9.9450 C.3   156  LYS156      0.1561
     28  C        -29.6350  -55.0670  -10.2970 C.2   156  LYS156      0.2260
     29  O        -30.8140  -55.4240  -10.1650 O.2   156  LYS156     -0.2867
     30  CB       -28.1940  -56.9480  -11.1220 C.3   156  LYS156      0.0271
     31  CG       -27.5940  -56.2830  -12.3640 C.3   156  LYS156      0.0035
     32  CD       -26.9360  -57.3310  -13.2670 C.3   156  LYS156      0.0206
     33  CE       -25.7270  -56.7620  -14.0060 C.3   156  LYS156      0.1093
     34  NZ       -24.9230  -57.8370  -14.6800 N.3   156  LYS156     -0.1314
     35  N        -22.2240  -44.6700   -2.1450 N.3   162  VAL162     -0.1245
     36  CA       -21.2450  -44.9550   -1.0950 C.3   162  VAL162      0.1561
     37  C        -20.5250  -43.6710   -0.6720 C.2   162  VAL162      0.2260
     38  O        -20.5940  -42.6570   -1.3590 O.2   162  VAL162     -0.2867
     39  CB       -20.1900  -45.9970   -1.5630 C.3   162  VAL162      0.0252
     40  CG1      -20.8580  -47.2990   -1.9780 C.3   162  VAL162      0.0019
     41  CG2      -19.3290  -45.4290   -2.7030 C.3   162  VAL162      0.0019
     42  N        -14.9810  -44.1730   -2.4690 N.3   165  ASP165     -0.1239
     43  CA       -14.8440  -44.6830   -3.8350 C.3   165  ASP165      0.1674
     44  C        -13.7810  -45.7760   -3.8460 C.2   165  ASP165      0.2266
     45  O        -12.6410  -45.5600   -4.2650 O.2   165  ASP165     -0.2867
     46  CB       -14.4700  -43.5560   -4.8020 C.3   165  ASP165      0.1410
     47  CG       -14.4530  -44.0070   -6.2600 C.2   165  ASP165      0.3668
     48  OD1      -15.2180  -44.9270   -6.6220 O.co2 165  ASP165     -0.2456
     49  OD2      -13.6770  -43.4270   -7.0450 O.co2 165  ASP165     -0.2456
     50  N        -14.9750  -49.5220   -3.9980 N.3   167  TYR167     -0.1227
     51  CA       -15.5680  -50.8430   -4.2020 C.3   167  TYR167      0.1736
     52  C        -15.6620  -51.3160   -5.6390 C.2   167  TYR167      0.2596
     53  O        -16.1320  -52.4330   -5.8940 O.2   167  TYR167     -0.2718
     54  CB       -16.9480  -50.8840   -3.5370 C.3   167  TYR167      0.0548
     55  CG       -16.8330  -50.6480   -2.0580 C.ar  167  TYR167     -0.0200
     56  CD1      -16.5710  -51.7080   -1.1990 C.ar  167  TYR167     -0.0009
     57  CD2      -16.9330  -49.3630   -1.5220 C.ar  167  TYR167     -0.0009
     58  CE1      -16.4320  -51.5170    0.1570 C.ar  167  TYR167      0.0417
     59  CE2      -16.7900  -49.1530   -0.1410 C.ar  167  TYR167      0.0417
     60  CZ       -16.5300  -50.2460    0.6790 C.ar  167  TYR167      0.1957
     61  OH       -16.3830  -50.1000    2.0310 O.3   167  TYR167     -0.2866
     62  N        -15.2120  -50.4750   -6.5600 N.am  168  GLY168     -0.1957
     63  CA       -15.3400  -50.7420   -7.9860 C.3   168  GLY168      0.1869
     64  C        -14.9190  -52.1250   -8.4370 C.2   168  GLY168      0.2309
     65  O        -15.6080  -52.7650   -9.2440 O.2   168  GLY168     -0.2863
     66  N        -17.6470  -54.5330   -7.1680 N.3   171  GLU171     -0.1231
     67  CA       -18.9410  -54.2300   -7.8010 C.3   171  GLU171      0.1699
     68  C        -18.9980  -54.6510   -9.2580 C.2   171  GLU171      0.2592
     69  O        -19.9810  -55.2820   -9.6670 O.2   171  GLU171     -0.2718
     70  CB       -19.2720  -52.7550   -7.6520 C.3   171  GLU171      0.0402
     71  CG       -19.5620  -52.3930   -6.2240 C.3   171  GLU171      0.1161
     72  CD       -19.4560  -50.9020   -5.9370 C.2   171  GLU171      0.3649
     73  OE1      -18.6920  -50.2040   -6.6260 O.co2 171  GLU171     -0.2457
     74  OE2      -20.1200  -50.4570   -4.9810 O.co2 171  GLU171     -0.2457
     75  N        -17.9620  -54.3070  -10.0230 N.am  172  LYS172     -0.1980
     76  CA       -17.8810  -54.6750  -11.4360 C.3   172  LYS172      0.1596
     77  C        -17.8730  -56.2000  -11.5700 C.2   172  LYS172      0.2287
     78  O        -18.5970  -56.7730  -12.3870 O.2   172  LYS172     -0.2864
     79  CB       -16.6360  -54.0450  -12.0730 C.3   172  LYS172      0.0298
     80  CG       -16.5830  -54.0560  -13.6040 C.3   172  LYS172      0.0038
     81  CD       -17.7100  -53.2480  -14.2320 C.3   172  LYS172      0.0206
     82  CE       -18.9400  -54.1120  -14.4960 C.3   172  LYS172      0.1093
     83  NZ       -18.6640  -55.2500  -15.4170 N.3   172  LYS172     -0.1314
     84  N        -21.4080  -57.6290  -10.6000 N.3   175  GLY175     -0.1210
     85  CA       -22.5360  -57.0180  -11.3140 C.3   175  GLY175      0.1956
     86  C        -23.4810  -56.1790  -10.4640 C.2   175  GLY175      0.2612
     87  O        -24.6830  -56.1000  -10.7470 O.2   175  GLY175     -0.2717
     88  N        -22.9540  -55.5530   -9.4160 N.am  176  LEU176     -0.1965
     89  CA       -23.7370  -54.5920   -8.6400 C.3   176  LEU176      0.1728
     90  C        -23.8210  -53.2910   -9.4310 C.2   176  LEU176      0.2617
     91  O        -23.0340  -53.0800  -10.3420 O.2   176  LEU176     -0.2715
     92  CB       -23.1050  -54.3550   -7.2680 C.3   176  LEU176      0.0311
     93  CG       -23.1590  -55.5210   -6.2770 C.3   176  LEU176      0.0022
     94  CD1      -22.1970  -55.2760   -5.1080 C.3   176  LEU176      0.0001
     95  CD2      -24.5790  -55.7870   -5.7690 C.3   176  LEU176      0.0001
     96  N        -24.7760  -52.4230   -9.1020 N.am  177  THR177     -0.1937
     97  CA       -24.9200  -51.1770   -9.8600 C.3   177  THR177      0.2013
     98  C        -24.9100  -49.9220   -8.9790 C.2   177  THR177      0.2484
     99  O        -25.9700  -49.3820   -8.6370 O.2   177  THR177     -0.2729
    100  CB       -26.1560  -51.2100  -10.8120 C.3   177  THR177      0.1807
    101  OG1      -27.2640  -51.8130  -10.1380 O.3   177  THR177     -0.2208
    102  CG2      -25.8410  -52.0190  -12.0740 C.3   177  THR177      0.0379
    103  N        -23.7000  -49.4550   -8.6040 N.am  178  PRO178     -0.2726
    104  CA       -23.5400  -48.2200   -7.8410 C.3   178  PRO178      0.1402
    105  C        -23.8720  -46.9830   -8.6720 C.2   178  PRO178      0.2269
    106  O        -23.5610  -46.9220   -9.8650 O.2   178  PRO178     -0.2865
    107  CB       -22.0480  -48.2190   -7.5000 C.3   178  PRO178      0.0296
    108  CG       -21.4260  -48.9950   -8.6050 C.3   178  PRO178      0.0237
    109  CD       -22.3970  -50.0920   -8.8730 C.3   178  PRO178      0.0939
    110  N        -22.8750  -43.8830   -7.5660 N.3   180  GLY180     -0.1225
    111  CA       -21.7610  -42.9700   -7.3550 C.3   180  GLY180      0.1811
    112  C        -21.3640  -42.8500   -5.8940 C.2   180  GLY180      0.2280
    113  O        -21.7720  -43.6600   -5.0600 O.2   180  GLY180     -0.2866
@<TRIPOS>BOND
     1    16    17    1
     2    16    15    1
     3    14    15    1
     4    14    13    1
     5    83    82    1
     6    34    33    1
     7    82    81    1
     8    13    10    1
     9    81    80    1
    10    33    32    1
    11    80    79    1
    12     9    10    1
    13     9     3   am
    14    10    11    1
    15    32    31    1
    16     2     3    1
    17     2     1    1
    18     2     5    1
    19     6     5    1
    20     6     7    1
    21     3     4    2
    22    78    77    2
    23    31    30    1
    24     8     7    1
    25   102   100    1
    26    79    76    1
    27    11    12    2
    28    77    76    1
    29    76    75    1
    30    85    84    1
    31    85    86    1
    32    30    27    1
    33   100   101    1
    34   100    97    1
    35    87    86    2
    36    86    88   am
    37    91    90    2
    38    28    29    2
    39    28    27    1
    40    75    68   am
    41    27    26    1
    42   106   105    2
    43    97    96    1
    44    97    98    1
    45    69    68    2
    46    90    96   am
    47    90    89    1
    48    88    89    1
    49    18    19    1
    50    68    67    1
    51    65    64    2
    52    98    99    2
    53    98   103   am
    54   109   108    1
    55   109   103    1
    56   105   104    1
    57    89    92    1
    58   108   107    1
    59   103   104    1
    60    64    63    1
    61    22    19    1
    62    22    23    1
    63    21    20    2
    64    19    20    1
    65    63    62    1
    66   104   107    1
    67    67    70    1
    68    67    66    1
    69    70    71    1
    70   110   111    1
    71   111   112    1
    72    92    93    1
    73    25    23   am
    74    49    47   ar
    75    23    24    2
    76    73    72   ar
    77    48    47   ar
    78    62    52   am
    79    93    95    1
    80    93    94    1
    81    47    46    1
    82    71    72    1
    83    72    74   ar
    84   112   113    2
    85    53    52    2
    86    52    51    1
    87    46    43    1
    88    45    44    2
    89    51    50    1
    90    51    54    1
    91    44    43    1
    92    43    42    1
    93    54    55    1
    94    41    39    1
    95    35    36    1
    96    55    57   ar
    97    55    56   ar
    98    40    39    1
    99    39    36    1
   100    57    59   ar
   101    38    37    2
   102    56    58   ar
   103    36    37    1
   104    59    60   ar
   105    58    60   ar
   106    60    61    1
