@<TRIPOS>MOLECULE
tmp/2xy6A00.pdb
 118 111 0 0 0
SMALL
GASTEIGER

@<TRIPOS>ATOM
      1  N         15.5040   18.8040   48.5260 N.3    26  GLU26      -0.1231
      2  CA        16.3460   19.4060   47.5110 C.3    26  GLU26       0.1699
      3  C         17.6450   18.6400   47.3200 C.2    26  GLU26       0.2592
      4  O         18.4540   18.4820   48.2420 O.2    26  GLU26      -0.2718
      5  CB        16.6360   20.8520   47.8830 C.3    26  GLU26       0.0402
      6  CG        17.3220   21.6460   46.7960 C.3    26  GLU26       0.1161
      7  CD        16.3770   22.2620   45.7850 C.2    26  GLU26       0.3649
      8  OE1       15.2460   21.7890   45.6170 O.co2  26  GLU26      -0.2457
      9  OE2       16.7820   23.2210   45.1050 O.co2  26  GLU26      -0.2457
     10  N         17.8350   18.1540   46.1090 N.am   27  VAL27      -0.1966
     11  CA        19.0670   17.5300   45.7250 C.3    27  VAL27       0.1727
     12  C         19.5900   18.3650   44.6080 C.2    27  VAL27       0.2616
     13  O         18.9810   18.4100   43.5410 O.2    27  VAL27      -0.2715
     14  CB        18.8550   16.0830   45.2220 C.3    27  VAL27       0.0290
     15  CG1       20.1690   15.5210   44.6850 C.3    27  VAL27       0.0023
     16  CG2       18.2440   15.2380   46.3210 C.3    27  VAL27       0.0023
     17  N         20.7150   19.0330   44.8540 N.am   28  VAL28      -0.1977
     18  CA        21.2270   20.0480   43.9450 C.3    28  VAL28       0.1596
     19  C         22.1460   19.4570   42.9010 C.2    28  VAL28       0.2287
     20  O         22.1550   19.9400   41.7840 O.2    28  VAL28      -0.2864
     21  CB        21.9170   21.1930   44.7370 C.3    28  VAL28       0.0276
     22  CG1       22.6370   22.1770   43.8060 C.3    28  VAL28       0.0022
     23  CG2       20.8780   21.9380   45.5590 C.3    28  VAL28       0.0022
     24  N         23.3520   17.3250   39.8840 N.3    30  GLU30      -0.1245
     25  CA        22.5890   16.9510   38.6850 C.3    30  GLU30       0.1567
     26  C         22.2400   15.4920   38.7250 C.2    30  GLU30       0.2260
     27  O         21.0910   15.1020   38.5330 O.2    30  GLU30      -0.2867
     28  CB        23.3920   17.2280   37.4160 C.3    30  GLU30       0.0388
     29  CG        23.7330   18.7110   37.2740 C.3    30  GLU30       0.1160
     30  CD        22.6210   19.3850   36.4950 C.2    30  GLU30       0.3649
     31  OE1       21.6250   18.7470   36.0740 O.co2  30  GLU30      -0.2457
     32  OE2       22.6990   20.6060   36.3270 O.co2  30  GLU30      -0.2457
     33  N          7.8170   19.0130   43.0680 N.3    76  PHE76      -0.1227
     34  CA         8.3750   19.1550   41.7360 C.3    76  PHE76       0.1736
     35  C          9.4950   18.1270   41.5400 C.2    76  PHE76       0.2595
     36  O         10.4920   18.1370   42.2540 O.2    76  PHE76      -0.2718
     37  CB         8.9080   20.5800   41.5520 C.3    76  PHE76       0.0547
     38  CG         9.4140   20.8800   40.1520 C.ar   76  PHE76      -0.0202
     39  CD1       10.7210   20.5960   39.7920 C.ar   76  PHE76      -0.0042
     40  CD2        8.5940   21.5080   39.2190 C.ar   76  PHE76      -0.0042
     41  CE1       11.2060   20.8930   38.5230 C.ar   76  PHE76      -0.0003
     42  CE2        9.0790   21.8090   37.9350 C.ar   76  PHE76      -0.0003
     43  CZ        10.3850   21.4950   37.5920 C.ar   76  PHE76      -0.0000
     44  N          9.3340   17.2610   40.5470 N.am   77  ASP77      -0.1974
     45  CA        10.3290   16.2620   40.2100 C.3    77  ASP77       0.1709
     46  C         10.4940   15.3250   41.4020 C.2    77  ASP77       0.2293
     47  O         11.5860   15.1810   41.9810 O.2    77  ASP77      -0.2864
     48  CB        11.6680   16.8860   39.7720 C.3    77  ASP77       0.1436
     49  CG        12.6700   15.8350   39.2190 C.2    77  ASP77       0.3671
     50  OD1       12.2980   14.6470   39.1050 O.co2  77  ASP77      -0.2456
     51  OD2       13.8390   16.1890   38.9190 O.co2  77  ASP77      -0.2456
     52  N         13.4260   12.5400   41.6410 N.3    80  ARG80      -0.1245
     53  CA        14.7160   12.9880   42.1500 C.3    80  ARG80       0.1563
     54  C         14.7640   12.7750   43.6630 C.2    80  ARG80       0.2260
     55  O         15.7200   12.2020   44.1980 O.2    80  ARG80      -0.2867
     56  CB        14.9110   14.4610   41.7970 C.3    80  ARG80       0.0307
     57  CG        15.9670   15.2470   42.5420 C.3    80  ARG80       0.0489
     58  CD        16.1270   16.6690   41.8930 C.3    80  ARG80       0.2205
     59  NE        16.7140   16.5020   40.5820 N.pl3  80  ARG80      -0.0865
     60  CZ        18.0150   16.5130   40.3170 C.cat  80  ARG80       0.5346
     61  NH1       18.9230   16.7650   41.2610 N.pl3  80  ARG80       0.1354
     62  NH2       18.4060   16.2830   39.0880 N.pl3  80  ARG80       0.1354
     63  N         12.0170   23.0390   33.5430 N.3   113  ASP113     -0.1225
     64  CA        12.9680   22.2460   34.3310 C.3   113  ASP113      0.1805
     65  C         13.1780   22.7530   35.7690 C.2   113  ASP113      0.2597
     66  O         14.0060   22.2210   36.5190 O.2   113  ASP113     -0.2718
     67  CB        14.3160   22.2220   33.6430 C.3   113  ASP113      0.1424
     68  CG        14.8650   23.6150   33.3890 C.2   113  ASP113      0.3668
     69  OD1       14.1240   24.6110   33.5090 O.co2 113  ASP113     -0.2456
     70  OD2       16.0330   23.6940   33.0180 O.co2 113  ASP113     -0.2456
     71  N         12.4300   23.7730   36.1570 N.am  114  ASP114     -0.1974
     72  CA        12.4350   24.1970   37.5280 C.3   114  ASP114      0.1709
     73  C         11.1080   24.8110   37.8800 C.2   114  ASP114      0.2293
     74  O         10.3030   25.1320   37.0030 O.2   114  ASP114     -0.2864
     75  CB        13.6170   25.1290   37.8310 C.3   114  ASP114      0.1436
     76  CG        13.5000   26.5290   37.1980 C.2   114  ASP114      0.3671
     77  OD1       12.5520   26.8650   36.4640 O.co2 114  ASP114     -0.2456
     78  OD2       14.4310   27.3030   37.4600 O.co2 114  ASP114     -0.2456
     79  N         16.3000   28.2080   39.8420 N.3   130  ASP130     -0.1239
     80  CA        17.3450   27.4910   40.5250 C.3   130  ASP130      0.1674
     81  C         18.7290   27.9810   40.0440 C.2   130  ASP130      0.2266
     82  O         19.6460   28.0620   40.8410 O.2   130  ASP130     -0.2867
     83  CB        17.2030   26.0010   40.2650 C.3   130  ASP130      0.1410
     84  CG        16.0800   25.3700   41.0440 C.2   130  ASP130      0.3668
     85  OD1       15.7760   25.8280   42.1600 O.co2 130  ASP130     -0.2456
     86  OD2       15.5130   24.3770   40.5460 O.co2 130  ASP130     -0.2456
     87  N         21.6890   28.7670   42.5610 N.3   134  TYR134     -0.1241
     88  CA        22.8020   27.8320   42.6440 C.3   134  TYR134      0.1605
     89  C         23.9630   28.1860   41.7290 C.2   134  TYR134      0.2264
     90  O         25.0330   27.6440   41.9010 O.2   134  TYR134     -0.2867
     91  CB        22.3190   26.3990   42.3940 C.3   134  TYR134      0.0534
     92  CG        21.2610   25.9700   43.3940 C.ar  134  TYR134     -0.0201
     93  CD1       21.5440   25.9020   44.7410 C.ar  134  TYR134     -0.0009
     94  CD2       19.9810   25.6370   42.9840 C.ar  134  TYR134     -0.0009
     95  CE1       20.5840   25.5180   45.6600 C.ar  134  TYR134      0.0417
     96  CE2       19.0120   25.2610   43.8980 C.ar  134  TYR134      0.0417
     97  CZ        19.3240   25.1970   45.2330 C.ar  134  TYR134      0.1957
     98  OH        18.3660   24.8060   46.1460 O.3   134  TYR134     -0.2866
     99  N         28.8890   27.0210   40.2650 N.3   140  ARG140     -0.1245
    100  CA        27.7080   26.3760   40.8240 C.3   140  ARG140      0.1563
    101  C         27.9810   25.9060   42.2250 C.2   140  ARG140      0.2260
    102  O         28.8640   25.0890   42.4300 O.2   140  ARG140     -0.2867
    103  CB        27.3110   25.1890   39.9610 C.3   140  ARG140      0.0307
    104  CG        26.0230   24.5070   40.3690 C.3   140  ARG140      0.0489
    105  CD        25.6020   23.5590   39.2590 C.3   140  ARG140      0.2205
    106  NE        25.0250   22.3180   39.7770 N.pl3 140  ARG140     -0.0865
    107  CZ        23.7260   22.0670   39.9210 C.cat 140  ARG140      0.5346
    108  NH1       22.8000   22.9660   39.6030 N.pl3 140  ARG140      0.1354
    109  NH2       23.3560   20.8850   40.3930 N.pl3 140  ARG140      0.1354
    110  N          9.8240   27.7820   46.6990 N.3   155  LYS155     -0.1245
    111  CA         9.4830   26.7250   45.7610 C.3   155  LYS155      0.1561
    112  C          8.2800   25.9100   46.2690 C.2   155  LYS155      0.2260
    113  O          7.3230   25.6580   45.5200 O.2   155  LYS155     -0.2867
    114  CB        10.6790   25.8300   45.4870 C.3   155  LYS155      0.0271
    115  CG        11.7530   26.4870   44.6370 C.3   155  LYS155      0.0035
    116  CD        12.5310   25.5050   43.7800 C.3   155  LYS155      0.0206
    117  CE        13.4620   24.6320   44.6060 C.3   155  LYS155      0.1093
    118  NZ        14.3620   23.8520   43.7280 N.3   155  LYS155     -0.1314
@<TRIPOS>BOND
     1    70    68   ar
     2    68    69   ar
     3    68    67    1
     4    63    64    1
     5    67    64    1
     6    64    65    1
     7    65    71   am
     8    65    66    2
     9    31    30   ar
    10    71    72    1
    11    32    30   ar
    12    77    76   ar
    13    30    29    1
    14    74    73    2
    15    76    78   ar
    16    76    75    1
    17    29    28    1
    18    28    25    1
    19    72    75    1
    20    72    73    1
    21    43    42   ar
    22    43    41   ar
    23    42    40   ar
    24    41    39   ar
    25    27    26    2
    26    25    26    1
    27    25    24    1
    28    51    49   ar
    29    62    60    1
    30    50    49   ar
    31    49    48    1
    32    40    38   ar
    33   105   106    1
    34   105   104    1
    35   108   107    1
    36    48    45    1
    37   106   107    2
    38    39    38   ar
    39    79    80    1
    40   107   109    1
    41   103   104    1
    42   103   100    1
    43    81    80    1
    44    81    82    2
    45    38    37    1
    46    45    44    1
    47    45    46    1
    48    83    80    1
    49    83    84    1
    50    99   100    1
    51    60    59    2
    52    60    61    1
    53    86    84   ar
    54    44    35   am
    55    59    58    1
    56   100   101    1
    57    84    85   ar
    58    46    47    2
    59    35    34    1
    60    35    36    2
    61    37    34    1
    62    52    53    1
    63    89    90    2
    64    89    88    1
    65    34    33    1
    66    20    19    2
    67    56    53    1
    68    56    57    1
    69    58    57    1
    70    53    54    1
    71   101   102    2
    72    91    88    1
    73    91    92    1
    74    87    88    1
    75    19    18    1
    76    94    92   ar
    77    94    96   ar
    78    92    93   ar
    79    13    12    2
    80    54    55    2
    81   118   117    1
    82   116   117    1
    83   116   115    1
    84    22    21    1
    85    96    97   ar
    86    18    21    1
    87    18    17    1
    88    12    17   am
    89    12    11    1
    90   115   114    1
    91    15    14    1
    92    21    23    1
    93    93    95   ar
    94     9     7   ar
    95    14    11    1
    96    14    16    1
    97    97    95   ar
    98    97    98    1
    99   114   111    1
   100   113   112    2
   101     8     7   ar
   102    11    10    1
   103   111   112    1
   104   111   110    1
   105     7     6    1
   106    10     3   am
   107     6     5    1
   108     3     2    1
   109     3     4    2
   110     2     5    1
   111     2     1    1
