@<TRIPOS>MOLECULE
tmp/2xy9A04.pdb
 237 233 0 0 0
SMALL
GASTEIGER

@<TRIPOS>ATOM
      1  N         14.6490    5.4010   -2.0160 N.3    20  TRP20      -0.1241
      2  CA        14.7700    4.7230   -3.3130 C.3    20  TRP20       0.1605
      3  C         15.7140    3.5170   -3.2340 C.2    20  TRP20       0.2264
      4  O         15.4430    2.4770   -3.8300 O.2    20  TRP20      -0.2867
      5  CB        15.2100    5.7030   -4.4050 C.3    20  TRP20       0.0550
      6  CG        14.1240    6.6460   -4.8760 C.ar   20  TRP20       0.0003
      7  CD1       13.1580    7.2530   -4.1120 C.ar   20  TRP20       0.0946
      8  CD2       13.9190    7.1090   -6.2160 C.ar   20  TRP20       0.0152
      9  NE1       12.3560    8.0490   -4.9020 N.ar   20  TRP20      -0.2442
     10  CE2       12.8040    7.9810   -6.1950 C.ar   20  TRP20       0.0810
     11  CE3       14.5620    6.8640   -7.4370 C.ar   20  TRP20       0.0012
     12  CZ2       12.3220    8.6110   -7.3510 C.ar   20  TRP20       0.0191
     13  CZ3       14.0800    7.4930   -8.5900 C.ar   20  TRP20       0.0001
     14  CH2       12.9700    8.3520   -8.5350 C.ar   20  TRP20       0.0015
     15  N         13.6950    0.9050   -1.5610 N.3    23  TYR23      -0.1227
     16  CA        12.6890    0.3700   -2.4750 C.3    23  TYR23       0.1736
     17  C         13.3170   -0.5750   -3.4930 C.2    23  TYR23       0.2595
     18  O         12.7910   -1.6630   -3.7420 O.2    23  TYR23      -0.2718
     19  CB        11.9000    1.4620   -3.1970 C.3    23  TYR23       0.0548
     20  CG        10.7630    0.8750   -3.9980 C.ar   23  TYR23      -0.0200
     21  CD1        9.5380    0.6000   -3.3950 C.ar   23  TYR23      -0.0009
     22  CD2       10.9240    0.5510   -5.3460 C.ar   23  TYR23      -0.0009
     23  CE1        8.4980    0.0410   -4.1130 C.ar   23  TYR23       0.0417
     24  CE2        9.8860   -0.0140   -6.0760 C.ar   23  TYR23       0.0417
     25  CZ         8.6770   -0.2640   -5.4520 C.ar   23  TYR23       0.1957
     26  OH         7.6410   -0.8230   -6.1590 O.3    23  TYR23      -0.2866
     27  N         14.4430   -0.1520   -4.0640 N.am   24  ALA24      -0.1980
     28  CA        15.1530   -0.9450   -5.0650 C.3    24  ALA24       0.1597
     29  C         15.5320   -2.3330   -4.5340 C.2    24  ALA24       0.2287
     30  O         15.3620   -3.3280   -5.2400 O.2    24  ALA24      -0.2864
     31  CB        16.3800   -0.1950   -5.5800 C.3    24  ALA24       0.0319
     32  N         12.3650   -4.4080   -4.2900 N.3    27  ASN27      -0.1240
     33  CA        12.0000   -4.6920   -5.6760 C.3    27  ASN27       0.1653
     34  C         12.8690   -5.8130   -6.2600 C.2    27  ASN27       0.2266
     35  O         12.3530   -6.7540   -6.8720 O.2    27  ASN27      -0.2867
     36  CB        12.1120   -3.4110   -6.5110 C.3    27  ASN27       0.1155
     37  CG        11.3220   -3.4710   -7.8080 C.2    27  ASN27       0.2627
     38  OD1       10.3940   -4.2720   -7.9650 O.2    27  ASN27      -0.2716
     39  ND2       11.6760   -2.5960   -8.7470 N.am   27  ASN27      -0.0877
     40  N          7.4450    4.2690    0.0010 N.3    49  ILE49      -0.1245
     41  CA         7.8870    5.1840   -1.0600 C.3    49  ILE49       0.1561
     42  C          6.7700    6.1500   -1.4710 C.2    49  ILE49       0.2260
     43  O          7.0330    7.3120   -1.7730 O.2    49  ILE49      -0.2867
     44  CB         8.5210    4.4430   -2.2790 C.3    49  ILE49       0.0252
     45  CG1        9.2990    5.4310   -3.1600 C.3    49  ILE49       0.0019
     46  CG2        7.4630    3.6640   -3.0770 C.3    49  ILE49       0.0019
     47  CD1       10.3980    4.8000   -4.0060 C.3    49  ILE49       0.0001
     48  N          6.9030   10.1240   -1.4800 N.3    53  THR53      -0.1218
     49  CA         6.5900   10.8410   -2.7180 C.3    53  THR53       0.1862
     50  C          5.4640   11.8530   -2.5130 C.2    53  THR53       0.2287
     51  O          5.5230   12.9650   -3.0430 O.2    53  THR53      -0.2866
     52  CB         6.2310    9.8560   -3.8680 C.3    53  THR53       0.1770
     53  OG1        7.2770    8.8910   -4.0120 O.3    53  THR53      -0.2211
     54  CG2        6.0510   10.5970   -5.1920 C.3    53  THR53       0.0375
     55  N          9.8970   17.9510  -11.8070 N.3    79  LYS79      -0.1245
     56  CA         9.8180   16.4950  -11.7560 C.3    79  LYS79       0.1561
     57  C          9.1410   15.9970  -10.4700 C.2    79  LYS79       0.2260
     58  O          8.2530   15.1390  -10.5240 O.2    79  LYS79      -0.2867
     59  CB        11.2040   15.8630  -11.9470 C.3    79  LYS79       0.0271
     60  CG        11.1970   14.3350  -11.9180 C.3    79  LYS79       0.0035
     61  CD        12.0670   13.7550  -13.0170 C.3    79  LYS79       0.0206
     62  CE        11.9020   12.2370  -13.1060 C.3    79  LYS79       0.1093
     63  NZ        12.7610   11.5210  -12.1220 N.3    79  LYS79      -0.1314
     64  N          3.0940   10.8700   -9.6020 N.3    84  GLU84      -0.1231
     65  CA         2.7280    9.6360  -10.2970 C.3    84  GLU84       0.1699
     66  C          1.6650    8.8730   -9.4910 C.2    84  GLU84       0.2592
     67  O          0.6870    9.4850   -9.0530 O.2    84  GLU84      -0.2718
     68  CB         3.9730    8.8140  -10.6740 C.3    84  GLU84       0.0402
     69  CG         4.8250    9.5250  -11.7400 C.3    84  GLU84       0.1161
     70  CD         6.0390    8.7330  -12.2070 C.2    84  GLU84       0.3649
     71  OE1        5.9070    7.9070  -13.1340 O.co2  84  GLU84      -0.2457
     72  OE2        7.1390    8.9700  -11.6760 O.co2  84  GLU84      -0.2457
     73  N          1.8480    7.5720   -9.2730 N.am   85  ARG85      -0.1980
     74  CA         0.8100    6.7640   -8.6260 C.3    85  ARG85       0.1597
     75  C          0.5170    7.1820   -7.1750 C.2    85  ARG85       0.2287
     76  O         -0.5810    6.9460   -6.6680 O.2    85  ARG85      -0.2864
     77  CB         1.1290    5.2650   -8.7280 C.3    85  ARG85       0.0334
     78  CG         2.2080    4.7710   -7.7800 C.3    85  ARG85       0.0492
     79  CD         2.6570    3.3630   -8.1580 C.3    85  ARG85       0.2205
     80  NE         3.5380    2.7810   -7.1470 N.pl3  85  ARG85      -0.0865
     81  CZ         4.8620    2.9440   -7.0980 C.cat  85  ARG85       0.5346
     82  NH1        5.4920    3.6810   -8.0080 N.pl3  85  ARG85       0.1354
     83  NH2        5.5620    2.3600   -6.1300 N.pl3  85  ARG85       0.1354
     84  N          2.9640   10.1030  -20.4530 N.3   181  TRP181     -0.1241
     85  CA         4.1020    9.3700  -21.0050 C.3   181  TRP181      0.1605
     86  C          4.7730   10.1540  -22.1310 C.2   181  TRP181      0.2264
     87  O          6.0030   10.2790  -22.1530 O.2   181  TRP181     -0.2867
     88  CB         3.6670    7.9940  -21.5250 C.3   181  TRP181      0.0550
     89  CG         3.3270    6.9680  -20.4560 C.ar  181  TRP181      0.0003
     90  CD1        3.1640    7.1840  -19.1150 C.ar  181  TRP181      0.0946
     91  CD2        3.0830    5.5750  -20.6710 C.ar  181  TRP181      0.0152
     92  NE1        2.8380    6.0010  -18.4770 N.ar  181  TRP181     -0.2442
     93  CE2        2.7760    5.0010  -19.4130 C.ar  181  TRP181      0.0810
     94  CE3        3.0890    4.7540  -21.8080 C.ar  181  TRP181      0.0012
     95  CZ2        2.4930    3.6370  -19.2580 C.ar  181  TRP181      0.0191
     96  CZ3        2.8070    3.3950  -21.6550 C.ar  181  TRP181      0.0001
     97  CH2        2.5110    2.8530  -20.3870 C.ar  181  TRP181      0.0015
     98  N          6.9710   13.2640  -21.1560 N.3   184  MET184     -0.1230
     99  CA         8.2960   13.0120  -20.6030 C.3   184  MET184      0.1702
    100  C          9.4240   13.3330  -21.5870 C.2   184  MET184      0.2592
    101  O         10.5730   13.5020  -21.1750 O.2   184  MET184     -0.2718
    102  CB         8.4030   11.5690  -20.0940 C.3   184  MET184      0.0401
    103  CG         7.3720   11.2040  -19.0190 C.3   184  MET184      0.0596
    104  SD         7.6940   11.8840  -17.3730 S.3   184  MET184     -0.1393
    105  CE         7.2180   13.5960  -17.5380 C.3   184  MET184      0.0692
    106  N          9.0920   13.4210  -22.8760 N.am  185  TYR185     -0.1976
    107  CA        10.0640   13.8170  -23.9050 C.3   185  TYR185      0.1639
    108  C         10.2400   15.3360  -24.0280 C.2   185  TYR185      0.2290
    109  O         11.1470   15.8050  -24.7320 O.2   185  TYR185     -0.2864
    110  CB         9.7370   13.1630  -25.2580 C.3   185  TYR185      0.0560
    111  CG        10.0800   11.6960  -25.2350 C.ar  185  TYR185     -0.0198
    112  CD1        9.1970   10.7680  -24.6850 C.ar  185  TYR185     -0.0009
    113  CD2       11.3160   11.2400  -25.6970 C.ar  185  TYR185     -0.0009
    114  CE1        9.5190    9.4210  -24.6210 C.ar  185  TYR185      0.0417
    115  CE2       11.6530    9.8850  -25.6340 C.ar  185  TYR185      0.0417
    116  CZ        10.7450    8.9860  -25.0960 C.ar  185  TYR185      0.1957
    117  OH        11.0550    7.6470  -25.0190 O.3   185  TYR185     -0.2866
    118  N         16.8650   -6.7070  -17.2390 N.3   316  SER316     -0.1202
    119  CA        16.7700   -5.3330  -16.7400 C.3   316  SER316      0.2020
    120  C         18.0200   -4.9390  -15.9650 C.2   316  SER316      0.2619
    121  O         18.7230   -5.7990  -15.4150 O.2   316  SER316     -0.2717
    122  CB        15.5210   -5.1460  -15.8720 C.3   316  SER316      0.2103
    123  OG        15.4850   -6.0900  -14.8210 O.3   316  SER316     -0.2182
    124  N         18.2840   -3.6340  -15.9270 N.am  317  ALA317     -0.1965
    125  CA        19.4670   -3.0910  -15.2680 C.3   317  ALA317      0.1728
    126  C         19.0350   -2.2180  -14.1030 C.2   317  ALA317      0.2616
    127  O         18.1190   -1.4120  -14.2310 O.2   317  ALA317     -0.2715
    128  CB        20.3130   -2.2980  -16.2490 C.3   317  ALA317      0.0334
    129  N         19.7110   -2.3840  -12.9740 N.am  318  TRP318     -0.1960
    130  CA        19.2190   -1.8860  -11.7000 C.3   318  TRP318      0.1771
    131  C         20.1840   -0.9050  -11.0590 C.2   318  TRP318      0.2619
    132  O         21.3300   -1.2520  -10.7590 O.2   318  TRP318     -0.2715
    133  CB        18.9530   -3.0620  -10.7500 C.3   318  TRP318      0.0590
    134  CG        17.8040   -3.9310  -11.1660 C.ar  318  TRP318      0.0006
    135  CD1       17.7420   -4.7380  -12.2630 C.ar  318  TRP318      0.0946
    136  CD2       16.5590   -4.0880  -10.4820 C.ar  318  TRP318      0.0152
    137  NE1       16.5330   -5.3840  -12.3090 N.ar  318  TRP318     -0.2442
    138  CE2       15.7860   -5.0030  -11.2280 C.ar  318  TRP318      0.0810
    139  CE3       16.0180   -3.5440   -9.3070 C.ar  318  TRP318      0.0012
    140  CZ2       14.4940   -5.3870  -10.8410 C.ar  318  TRP318      0.0191
    141  CZ3       14.7400   -3.9210   -8.9240 C.ar  318  TRP318      0.0001
    142  CH2       13.9910   -4.8360   -9.6880 C.ar  318  TRP318      0.0015
    143  N         19.7030    0.3220  -10.8660 N.am  319  ASP319     -0.1971
    144  CA        20.4070    1.3510  -10.1060 C.3   319  ASP319      0.1709
    145  C         19.8330    1.3440   -8.6930 C.2   319  ASP319      0.2293
    146  O         18.6200    1.4630   -8.5080 O.2   319  ASP319     -0.2864
    147  CB        20.1960    2.7200  -10.7650 C.3   319  ASP319      0.1436
    148  CG        21.1500    3.8020  -10.2420 C.2   319  ASP319      0.3671
    149  OD1       21.7330    3.6440   -9.1470 O.co2 319  ASP319     -0.2456
    150  OD2       21.3080    4.8300  -10.9460 O.co2 319  ASP319     -0.2456
    151  N         20.7210    3.5400   -6.3950 N.3   321  TYR321     -0.1241
    152  CA        20.7090    4.9430   -5.9670 C.3   321  TYR321      0.1605
    153  C         21.5840    5.2420   -4.7470 C.2   321  TYR321      0.2264
    154  O         21.1860    5.9860   -3.8450 O.2   321  TYR321     -0.2867
    155  CB        19.2640    5.4400   -5.7830 C.3   321  TYR321      0.0534
    156  CG        18.4920    5.4430   -7.0850 C.ar  321  TYR321     -0.0201
    157  CD1       18.5870    6.5190   -7.9690 C.ar  321  TYR321     -0.0009
    158  CD2       17.7040    4.3550   -7.4550 C.ar  321  TYR321     -0.0009
    159  CE1       17.8970    6.5180   -9.1800 C.ar  321  TYR321      0.0417
    160  CE2       17.0180    4.3430   -8.6660 C.ar  321  TYR321      0.0417
    161  CZ        17.1180    5.4290   -9.5190 C.ar  321  TYR321      0.1957
    162  OH        16.4320    5.4320  -10.7140 O.3   321  TYR321     -0.2866
    163  N         24.1960    4.6390  -15.6630 N.3   352  PHE352     -0.1241
    164  CA        24.0580    4.7520  -14.1950 C.3   352  PHE352      0.1605
    165  C         25.3370    5.2720  -13.5400 C.2   352  PHE352      0.2264
    166  O         25.3010    6.1530  -12.6610 O.2   352  PHE352     -0.2867
    167  CB        23.7600    3.3990  -13.5260 C.3   352  PHE352      0.0534
    168  CG        22.4500    2.7680  -13.9020 C.ar  352  PHE352     -0.0203
    169  CD1       21.4140    3.5040  -14.4640 C.ar  352  PHE352     -0.0042
    170  CD2       22.2590    1.4060  -13.6720 C.ar  352  PHE352     -0.0042
    171  CE1       20.2130    2.8890  -14.7950 C.ar  352  PHE352     -0.0003
    172  CE2       21.0580    0.7850  -13.9940 C.ar  352  PHE352     -0.0003
    173  CZ        20.0360    1.5260  -14.5590 C.ar  352  PHE352     -0.0000
    174  N         19.1130   11.5000  -12.0630 N.3   363  ARG363     -0.1231
    175  CA        19.7470   10.2170  -12.3810 C.3   363  ARG363      0.1694
    176  C         18.8870    9.3660  -13.3240 C.2   363  ARG363      0.2591
    177  O         18.4140    8.2770  -12.9650 O.2   363  ARG363     -0.2718
    178  CB        20.0920    9.4450  -11.1050 C.3   363  ARG363      0.0321
    179  CG        21.2390   10.0500  -10.3260 C.3   363  ARG363      0.0489
    180  CD        21.6200    9.1870   -9.1450 C.3   363  ARG363      0.2205
    181  NE        22.1710   10.0020   -8.0680 N.pl3 363  ARG363     -0.0865
    182  CZ        22.5470    9.5370   -6.8820 C.cat 363  ARG363      0.5346
    183  NH1       22.4530    8.2420   -6.6040 N.pl3 363  ARG363      0.1354
    184  NH2       23.0310   10.3750   -5.9750 N.pl3 363  ARG363      0.1354
    185  N         18.6730    9.8960  -14.5250 N.am  364  GLU364     -0.1979
    186  CA        18.0910    9.1480  -15.6380 C.3   364  GLU364      0.1602
    187  C         18.6390    9.7100  -16.9550 C.2   364  GLU364      0.2287
    188  O         19.3980   10.6800  -16.9440 O.2   364  GLU364     -0.2864
    189  CB        16.5520    9.1690  -15.5940 C.3   364  GLU364      0.0415
    190  CG        15.9210   10.5510  -15.4830 C.3   364  GLU364      0.1163
    191  CD        14.3970   10.5180  -15.5230 C.2   364  GLU364      0.3649
    192  OE1       13.8110    9.4220  -15.3810 O.co2 364  GLU364     -0.2457
    193  OE2       13.7830   11.5970  -15.7050 O.co2 364  GLU364     -0.2457
    194  N         14.2630    8.7360  -22.2330 N.3   368  PRO368     -0.2116
    195  CA        14.3280    7.2750  -22.0810 C.3   368  PRO368      0.1372
    196  C         14.9220    6.5540  -23.2960 C.2   368  PRO368      0.2244
    197  O         15.5090    5.4810  -23.1410 O.2   368  PRO368     -0.2868
    198  CB        12.8590    6.8840  -21.8720 C.3   368  PRO368      0.0268
    199  CG        12.2480    8.1090  -21.2590 C.3   368  PRO368      0.0207
    200  CD        12.9010    9.2450  -21.9780 C.3   368  PRO368      0.0892
    201  N          3.7040   -5.2940  -17.4420 N.3   473  SER473     -0.1202
    202  CA         4.7140   -4.6570  -16.5940 C.3   473  SER473      0.2020
    203  C          4.6540   -3.1370  -16.6490 C.2   473  SER473      0.2619
    204  O          5.4150   -2.4540  -15.9530 O.2   473  SER473     -0.2717
    205  CB         6.1180   -5.1380  -16.9540 C.3   473  SER473      0.2103
    206  OG         6.3020   -6.4800  -16.5500 O.3   473  SER473     -0.2182
    207  N          3.7540   -2.6200  -17.4840 N.am  474  SER474     -0.1937
    208  CA         3.5460   -1.1810  -17.6520 C.3   474  SER474      0.2055
    209  C          4.8540   -0.4260  -17.9110 C.2   474  SER474      0.2643
    210  O          5.1590    0.5770  -17.2500 O.2   474  SER474     -0.2714
    211  CB         2.7850   -0.5930  -16.4570 C.3   474  SER474      0.2130
    212  OG         2.3130    0.7070  -16.7560 O.3   474  SER474     -0.2179
    213  N          5.6250   -0.9370  -18.8680 N.am  475  VAL475     -0.1963
    214  CA         6.8420   -0.2770  -19.3280 C.3   475  VAL475      0.1712
    215  C          6.5460    0.4130  -20.6600 C.2   475  VAL475      0.2458
    216  O          6.1900   -0.2570  -21.6370 O.2   475  VAL475     -0.2730
    217  CB         8.0010   -1.2770  -19.5310 C.3   475  VAL475      0.0289
    218  CG1        9.2830   -0.5400  -19.9160 C.3   475  VAL475      0.0023
    219  CG2        8.2170   -2.1210  -18.2760 C.3   475  VAL475      0.0023
    220  N          6.6780    1.7530  -20.7030 N.am  476  PRO476     -0.2727
    221  CA         6.4560    2.4910  -21.9490 C.3   476  PRO476      0.1402
    222  C          7.3720    1.9910  -23.0710 C.2   476  PRO476      0.2269
    223  O          8.5060    1.5630  -22.8030 O.2   476  PRO476     -0.2865
    224  CB         6.7940    3.9330  -21.5660 C.3   476  PRO476      0.0296
    225  CG         6.5040    3.9970  -20.0890 C.3   476  PRO476      0.0237
    226  CD         6.9420    2.6580  -19.5680 C.3   476  PRO476      0.0939
    227  N         10.1640    4.6300  -26.2320 N.3   479  ARG479     -0.1245
    228  CA        11.6040    4.7270  -25.9550 C.3   479  ARG479      0.1563
    229  C         12.4580    3.8560  -26.8820 C.2   479  ARG479      0.2260
    230  O         13.6090    4.1950  -27.1900 O.2   479  ARG479     -0.2867
    231  CB        11.8890    4.3590  -24.4930 C.3   479  ARG479      0.0307
    232  CG        11.4260    2.9470  -24.0870 C.3   479  ARG479      0.0489
    233  CD        11.6600    2.6640  -22.6070 C.3   479  ARG479      0.2205
    234  NE        11.0010    3.6630  -21.7700 N.pl3 479  ARG479     -0.0865
    235  CZ        11.0100    3.6750  -20.4410 C.cat 479  ARG479      0.5346
    236  NH1       11.6500    2.7330  -19.7570 N.pl3 479  ARG479      0.1354
    237  NH2       10.3740    4.6460  -19.7920 N.pl3 479  ARG479      0.1354
@<TRIPOS>BOND
     1   230   229    2
     2   229   228    1
     3   227   228    1
     4   228   231    1
     5   113   115   ar
     6   113   111   ar
     7   115   116   ar
     8   110   111    1
     9   110   107    1
    10   111   112   ar
    11   116   117    1
    12   116   114   ar
    13   109   108    2
    14   112   114   ar
    15   231   232    1
    16   232   233    1
    17   108   107    1
    18   107   106    1
    19   196   197    2
    20   196   195    1
    21   222   223    2
    22   222   221    1
    23   106   100   am
    24   233   234    1
    25   194   195    1
    26   194   200    1
    27    87    86    2
    28    86    85    1
    29   195   198    1
    30   200   199    1
    31   221   224    1
    32   221   220    1
    33   198   199    1
    34    94    96   ar
    35    94    91   ar
    36   234   235    2
    37    96    97   ar
    38   216   215    2
    39   100   101    2
    40   100    99    1
    41   224   225    1
    42    88    85    1
    43    88    89    1
    44    98    99    1
    45    85    84    1
    46   220   215   am
    47   220   226    1
    48    91    89   ar
    49    91    93   ar
    50   215   214    1
    51    99   102    1
    52    89    90   ar
    53   235   237    1
    54   235   236    1
    55    97    95   ar
    56   102   103    1
    57   225   226    1
    58   218   217    1
    59   217   214    1
    60   217   219    1
    61    93    95   ar
    62    93    92   ar
    63   214   213    1
    64    90    92   ar
    65   103   104    1
    66   213   209   am
    67   209   208    1
    68   209   210    2
    69   208   207    1
    70   208   211    1
    71   105   104    1
    72   207   203   am
    73   201   202    1
    74   118   119    1
    75   187   188    2
    76   187   186    1
    77   205   202    1
    78   205   206    1
    79   212   211    1
    80   119   120    1
    81   119   122    1
    82   203   202    1
    83   203   204    2
    84   128   125    1
    85   120   124   am
    86   120   121    2
    87   124   125    1
    88   122   123    1
    89   193   191   ar
    90   163   164    1
    91   186   189    1
    92   186   185    1
    93   189   190    1
    94   191   190    1
    95   191   192   ar
    96   125   126    1
    97   171   173   ar
    98   171   169   ar
    99   173   172   ar
   100   185   176   am
   101   169   168   ar
   102   127   126    2
   103   164   165    1
   104   164   167    1
   105   126   129   am
   106   172   170   ar
   107   168   170   ar
   108   168   167    1
   109   165   166    2
   110   176   177    2
   111   176   175    1
   112    71    70   ar
   113    62    61    1
   114    62    63    1
   115    61    60    1
   116   129   130    1
   117   175   174    1
   118   175   178    1
   119   137   135   ar
   120   137   138   ar
   121   135   134   ar
   122    70    69    1
   123    70    72   ar
   124    59    60    1
   125    59    56    1
   126    55    56    1
   127    56    57    1
   128    69    68    1
   129   130   131    1
   130   130   133    1
   131   138   140   ar
   132   138   136   ar
   133   134   133    1
   134   134   136   ar
   135   178   179    1
   136   131   143   am
   137   131   132    2
   138   150   148   ar
   139   143   144    1
   140   140   142   ar
   141   147   148    1
   142   147   144    1
   143   162   161    1
   144    68    65    1
   145    58    57    2
   146   136   139   ar
   147   179   180    1
   148    65    64    1
   149    65    66    1
   150   148   149   ar
   151   144   145    1
   152   142   141   ar
   153   161   159   ar
   154   161   160   ar
   155    66    73   am
   156    66    67    2
   157   139   141   ar
   158    73    74    1
   159   159   157   ar
   160   180   181    1
   161    39    37   am
   162    77    74    1
   163    77    78    1
   164   145   146    2
   165   160   158   ar
   166    74    75    1
   167    13    14   ar
   168    13    11   ar
   169    14    12   ar
   170    79    78    1
   171    79    80    1
   172   181   182    2
   173    82    81    1
   174   157   156   ar
   175    38    37    2
   176    37    36    1
   177   158   156   ar
   178    11     8   ar
   179    12    10   ar
   180    75    76    2
   181    80    81    2
   182    81    83    1
   183   156   155    1
   184   182   183    1
   185   182   184    1
   186    35    34    2
   187    36    33    1
   188   151   152    1
   189    34    33    1
   190     8    10   ar
   191     8     6   ar
   192    10     9   ar
   193    26    25    1
   194    24    25   ar
   195    24    22   ar
   196   152   155    1
   197   152   153    1
   198    33    32    1
   199    31    28    1
   200    25    23   ar
   201    22    20   ar
   202    30    29    2
   203    54    52    1
   204    28    29    1
   205    28    27    1
   206     9     7   ar
   207     6     5    1
   208     6     7   ar
   209   153   154    2
   210     5     2    1
   211    23    21   ar
   212    27    17   am
   213    53    52    1
   214    47    45    1
   215    20    21   ar
   216    20    19    1
   217    52    49    1
   218     4     3    2
   219    18    17    2
   220    17    16    1
   221     2     3    1
   222     2     1    1
   223    19    16    1
   224    45    44    1
   225    46    44    1
   226    51    50    2
   227    49    50    1
   228    49    48    1
   229    16    15    1
   230    44    41    1
   231    43    42    2
   232    42    41    1
   233    41    40    1
