@<TRIPOS>MOLECULE
tmp/2xy9A00.pdb
 82 76 0 0 0
SMALL
GASTEIGER

@<TRIPOS>ATOM
      1  N         16.1430   25.7810   -3.0900 N.3     6  SER6       -0.1217
      2  CA        17.4510   25.1440   -3.0190 C.3     6  SER6        0.1889
      3  C         17.5290   24.2170   -1.8080 C.2     6  SER6        0.2288
      4  O         18.0130   23.0900   -1.9100 O.2     6  SER6       -0.2866
      5  CB        18.5470   26.2110   -2.9560 C.3     6  SER6        0.2089
      6  OG        19.8320   25.6360   -3.1030 O.3     6  SER6       -0.2183
      7  N         15.2180   21.0780   -2.3150 N.3     9  VAL9       -0.1231
      8  CA        15.8520   20.1520   -3.2480 C.3     9  VAL9        0.1692
      9  C         16.9350   19.3230   -2.5500 C.2     9  VAL9        0.2591
     10  O         17.0850   18.1280   -2.8190 O.2     9  VAL9       -0.2718
     11  CB        16.4020   20.9340   -4.4780 C.3     9  VAL9        0.0266
     12  CG1       17.5930   20.2490   -5.1210 C.3     9  VAL9        0.0020
     13  CG2       15.2870   21.1710   -5.4890 C.3     9  VAL9        0.0020
     14  N         17.6670   19.9630   -1.6410 N.am   10  GLU10      -0.1979
     15  CA        18.7000   19.2920   -0.8570 C.3    10  GLU10       0.1602
     16  C         18.0960   18.2350    0.0670 C.2    10  GLU10       0.2287
     17  O         18.6110   17.1200    0.1580 O.2    10  GLU10      -0.2864
     18  CB        19.5060   20.3050   -0.0460 C.3    10  GLU10       0.0415
     19  CG        20.4090   21.2180   -0.8810 C.3    10  GLU10       0.1163
     20  CD        21.0000   22.3660   -0.0620 C.2    10  GLU10       0.3649
     21  OE1       20.5250   22.6130    1.0690 O.co2  10  GLU10      -0.2457
     22  OE2       21.9440   23.0200   -0.5510 O.co2  10  GLU10      -0.2457
     23  N         17.3200   29.3750  -11.1070 N.3    70  ASN70      -0.1240
     24  CA        18.2530   28.2750  -11.3520 C.3    70  ASN70       0.1653
     25  C         17.5400   27.1290  -12.0700 C.2    70  ASN70       0.2266
     26  O         16.5500   26.5980  -11.5650 O.2    70  ASN70      -0.2867
     27  CB        18.8930   27.8030  -10.0360 C.3    70  ASN70       0.1155
     28  CG        19.9440   26.7270  -10.2460 C.2    70  ASN70       0.2627
     29  OD1       19.6220   25.5930  -10.6050 O.2    70  ASN70      -0.2716
     30  ND2       21.2090   27.0790  -10.0150 N.am   70  ASN70      -0.0877
     31  N         18.5720   24.0430  -12.9240 N.3    72  THR72      -0.1203
     32  CA        18.7720   22.7140  -12.3500 C.3    72  THR72       0.1994
     33  C         17.7430   22.4650  -11.2440 C.2    72  THR72       0.2617
     34  O         17.1240   21.4020  -11.1920 O.2    72  THR72      -0.2717
     35  CB        20.2120   22.5350  -11.8080 C.3    72  THR72       0.1784
     36  OG1       21.1540   22.8060  -12.8520 O.3    72  THR72      -0.2211
     37  CG2       20.4350   21.1170  -11.2960 C.3    72  THR72       0.0376
     38  N         17.5560   23.4570  -10.3790 N.am   73  ILE73      -0.1979
     39  CA        16.5670   23.3890   -9.3010 C.3    73  ILE73       0.1595
     40  C         15.1510   23.4250   -9.8840 C.2    73  ILE73       0.2287
     41  O         14.2390   22.7610   -9.3780 O.2    73  ILE73      -0.2864
     42  CB        16.7890   24.5300   -8.2670 C.3    73  ILE73       0.0276
     43  CG1       18.1150   24.3080   -7.5230 C.3    73  ILE73       0.0022
     44  CG2       15.6240   24.6240   -7.2860 C.3    73  ILE73       0.0022
     45  CD1       18.6580   25.5350   -6.7980 C.3    73  ILE73       0.0001
     46  N         26.8610   10.9050   -9.6660 N.3   357  ASP357     -0.1225
     47  CA        27.1370   12.0210   -8.7520 C.3   357  ASP357      0.1805
     48  C         26.1030   13.1370   -8.8270 C.2   357  ASP357      0.2598
     49  O         26.1300   14.0690   -8.0130 O.2   357  ASP357     -0.2718
     50  CB        28.5410   12.5840   -8.9880 C.3   357  ASP357      0.1424
     51  CG        29.6300   11.6370   -8.5360 C.2   357  ASP357      0.3668
     52  OD1       29.3730   10.7920   -7.6540 O.co2 357  ASP357     -0.2456
     53  OD2       30.7560   11.7480   -9.0570 O.co2 357  ASP357     -0.2456
     54  N         25.2010   13.0500   -9.8020 N.am  358  LEU358     -0.1966
     55  CA        24.1010   14.0040   -9.9120 C.3   358  LEU358      0.1713
     56  C         23.0830   13.7380   -8.8110 C.2   358  LEU358      0.2458
     57  O         23.0120   12.6210   -8.2930 O.2   358  LEU358     -0.2730
     58  CB        23.4160   13.8990  -11.2790 C.3   358  LEU358      0.0310
     59  CG        24.1890   14.3160  -12.5300 C.3   358  LEU358      0.0022
     60  CD1       23.3290   14.0290  -13.7480 C.3   358  LEU358      0.0001
     61  CD2       24.5960   15.7930  -12.4920 C.3   358  LEU358      0.0001
     62  N         22.2910   14.7620   -8.4410 N.am  359  PRO359     -0.2727
     63  CA        21.1830   14.5040   -7.5260 C.3   359  PRO359      0.1402
     64  C         20.2690   13.4100   -8.0850 C.2   359  PRO359      0.2269
     65  O         20.1680   13.2570   -9.3050 O.2   359  PRO359     -0.2865
     66  CB        20.4460   15.8500   -7.4630 C.3   359  PRO359      0.0296
     67  CG        21.0110   16.6790   -8.5580 C.3   359  PRO359      0.0237
     68  CD        22.3980   16.1900   -8.7830 C.3   359  PRO359      0.0939
     69  N         17.8670   13.6760  -11.0740 N.3   362  LEU362     -0.1245
     70  CA        18.4280   13.8120  -12.4200 C.3   362  LEU362      0.1561
     71  C         19.2010   12.5630  -12.8640 C.2   362  LEU362      0.2260
     72  O         19.8480   12.5650  -13.9140 O.2   362  LEU362     -0.2867
     73  CB        19.3100   15.0670  -12.5060 C.3   362  LEU362      0.0270
     74  CG        18.6820   16.3820  -12.0170 C.3   362  LEU362      0.0019
     75  CD1       19.6970   17.5040  -12.0250 C.3   362  LEU362      0.0001
     76  CD2       17.4660   16.7700  -12.8420 C.3   362  LEU362      0.0001
     77  N         19.8700   16.4360  -16.5030 N.3   528  SER528     -0.1217
     78  CA        20.1060   17.8300  -16.0840 C.3   528  SER528      0.1889
     79  C         19.7900   18.8830  -17.1510 C.2   528  SER528      0.2288
     80  O         19.5320   20.0430  -16.8190 O.2   528  SER528     -0.2866
     81  CB        21.5480   18.0140  -15.5930 C.3   528  SER528      0.2089
     82  OG        22.4690   17.8230  -16.6540 O.3   528  SER528     -0.2183
@<TRIPOS>BOND
     1    79    80    2
     2    79    78    1
     3    82    81    1
     4    77    78    1
     5    78    81    1
     6    72    71    2
     7    60    59    1
     8    31    32    1
     9    71    70    1
    10    36    35    1
    11    76    74    1
    12    59    61    1
    13    59    58    1
    14    73    70    1
    15    73    74    1
    16    70    69    1
    17    32    35    1
    18    32    33    1
    19    25    26    2
    20    25    24    1
    21    75    74    1
    22    35    37    1
    23    24    23    1
    24    24    27    1
    25    58    55    1
    26    33    34    2
    27    33    38   am
    28    29    28    2
    29    38    39    1
    30    28    27    1
    31    28    30   am
    32    55    54    1
    33    55    56    1
    34    40    41    2
    35    40    39    1
    36    54    48   am
    37    46    47    1
    38    65    64    2
    39    39    42    1
    40    53    51   ar
    41    50    47    1
    42    50    51    1
    43    48    47    1
    44    48    49    2
    45    56    62   am
    46    56    57    2
    47    68    67    1
    48    68    62    1
    49    67    66    1
    50    51    52   ar
    51    62    63    1
    52    42    43    1
    53    42    44    1
    54    64    63    1
    55    63    66    1
    56    43    45    1
    57    13    11    1
    58    12    11    1
    59    11     8    1
    60     8     9    1
    61     8     7    1
    62     6     5    1
    63     1     2    1
    64     2     5    1
    65     2     3    1
    66    10     9    2
    67     9    14   am
    68     4     3    2
    69    14    15    1
    70    19    20    1
    71    19    18    1
    72    15    18    1
    73    15    16    1
    74    22    20   ar
    75    20    21   ar
    76    16    17    2
