@<TRIPOS>MOLECULE
tmp/2xyaA00.pdb
 65 63 0 0 0
SMALL
GASTEIGER

@<TRIPOS>ATOM
      1  N          2.6230   26.3400   21.9960 N.3   144  THR144     -0.1203
      2  CA         3.7120   25.4160   22.3610 C.3   144  THR144      0.1994
      3  C          4.8290   26.2180   22.9970 C.2   144  THR144      0.2618
      4  O          4.8940   27.4210   22.8020 O.2   144  THR144     -0.2717
      5  CB         4.2610   24.6050   21.1380 C.3   144  THR144      0.1784
      6  OG1        4.6060   25.4990   20.0670 O.3   144  THR144     -0.2211
      7  CG2        3.2480   23.6120   20.6620 C.3   144  THR144      0.0376
      8  N          5.6970   25.5440   23.7440 N.am  145  LYS145     -0.1965
      9  CA         6.8130   26.1700   24.4650 C.3   145  LYS145      0.1728
     10  C          8.0870   25.5840   23.8950 C.2   145  LYS145      0.2616
     11  O          8.0470   24.5070   23.3220 O.2   145  LYS145     -0.2715
     12  CB         6.7430   25.8250   25.9670 C.3   145  LYS145      0.0311
     13  CG         5.5750   26.4390   26.8130 C.3   145  LYS145      0.0038
     14  CD         5.1440   25.3730   27.8520 C.3   145  LYS145      0.0206
     15  CE         4.4920   25.8950   29.1510 C.3   145  LYS145      0.1093
     16  NZ         5.5240   26.4210   30.1620 N.3   145  LYS145     -0.1314
     17  N          9.2140   26.2710   24.0640 N.am  146  SER146     -0.1950
     18  CA        10.5150   25.8240   23.5560 C.3   146  SER146      0.1924
     19  C         10.9810   24.5230   24.2090 C.2   146  SER146      0.2314
     20  O         11.8540   23.8440   23.6710 O.2   146  SER146     -0.2863
     21  CB        11.5720   26.9230   23.7480 C.3   146  SER146      0.2116
     22  OG        11.7980   27.1820   25.1200 O.3   146  SER146     -0.2180
     23  N         10.4870   21.1400   22.3150 N.3   149  CYS149     -0.1235
     24  CA        11.3720   20.8750   21.1990 C.3   149  CYS149      0.1677
     25  C         11.8450   19.4480   21.2010 C.2   149  CYS149      0.2270
     26  O         12.3990   18.9820   22.2010 O.2   149  CYS149     -0.2867
     27  CB        12.5680   21.8310   21.2090 C.3   149  CYS149      0.0956
     28  SG        13.4080   22.0340   19.6040 S.3   149  CYS149     -0.0801
     29  N          8.5590   18.2410   16.6990 N.3   163  HIS163     -0.1226
     30  CA         8.2930   19.6410   17.0520 C.3   163  HIS163      0.1752
     31  C          9.5950   20.4430   17.1230 C.2   163  HIS163      0.2596
     32  O         10.5090   20.1000   17.9010 O.2   163  HIS163     -0.2718
     33  CB         7.5350   19.7540   18.3660 C.3   163  HIS163      0.0759
     34  CG         7.2420   21.1690   18.7400 C.ar  163  HIS163      0.0818
     35  ND1        6.1880   21.8720   18.2010 N.ar  163  HIS163     -0.2268
     36  CD2        7.9120   22.0370   19.5440 C.ar  163  HIS163      0.1154
     37  CE1        6.2130   23.1120   18.6660 C.ar  163  HIS163      0.1986
     38  NE2        7.2450   23.2350   19.4890 N.ar  163  HIS163     -0.2212
     39  N          9.6870   21.4930   16.3210 N.am  164  VAL164     -0.1966
     40  CA        10.9230   22.2510   16.2390 C.3   164  VAL164      0.1727
     41  C         10.8190   23.7650   16.4330 C.2   164  VAL164      0.2617
     42  O         11.8390   24.4390   16.5550 O.2   164  VAL164     -0.2715
     43  CB        11.7110   21.9720   14.8780 C.3   164  VAL164      0.0290
     44  CG1       12.2740   20.5700   14.8430 C.3   164  VAL164      0.0023
     45  CG2       10.8550   22.2880   13.6100 C.3   164  VAL164      0.0023
     46  N          9.6100   24.3030   16.4800 N.am  165  GLY165     -0.1940
     47  CA         9.4600   25.7440   16.5140 C.3   165  GLY165      0.2014
     48  C          8.0820   26.2090   16.8780 C.2   165  GLY165      0.2639
     49  O          7.1550   25.4110   16.8990 O.2   165  GLY165     -0.2714
     50  N          7.9520   27.5060   17.1390 N.am  166  GLY166     -0.1939
     51  CA         6.6900   28.0830   17.5380 C.3   166  GLY166      0.2014
     52  C          6.7300   29.5930   17.7080 C.2   166  GLY166      0.2639
     53  O          7.7860   30.2150   17.6580 O.2   166  GLY166     -0.2714
     54  N          5.5720   30.1990   17.9070 N.am  167  ASN167     -0.1958
     55  CA         5.5360   31.6500   18.0190 C.3   167  ASN167      0.1819
     56  C          4.6560   32.1580   19.1560 C.2   167  ASN167      0.2621
     57  O          4.3500   33.3550   19.2300 O.2   167  ASN167     -0.2715
     58  CB         5.1050   32.2610   16.6910 C.3   167  ASN167      0.1195
     59  CG         3.6650   31.9940   16.3630 C.2   167  ASN167      0.2630
     60  OD1        2.9260   31.3790   17.1390 O.2   167  ASN167     -0.2716
     61  ND2        3.2390   32.4800   15.2110 N.am  167  ASN167     -0.0877
     62  N          4.2790   31.2430   20.0500 N.am  168  GLY168     -0.1954
     63  CA         3.3750   31.5750   21.1450 C.3   168  GLY168      0.1869
     64  C          1.9750   31.1010   20.8120 C.2   168  GLY168      0.2309
     65  O          1.2960   30.5610   21.6700 O.2   168  GLY168     -0.2863
@<TRIPOS>BOND
     1    45    43    1
     2    44    43    1
     3    43    40    1
     4    61    59   am
     5    40    39    1
     6    40    41    1
     7    39    31   am
     8    59    58    1
     9    59    60    2
    10    41    46   am
    11    41    42    2
    12    46    47    1
    13    47    48    1
    14    58    55    1
    15    29    30    1
    16    48    49    2
    17    48    50   am
    18    30    31    1
    19    30    33    1
    20    31    32    2
    21    50    51    1
    22    51    52    1
    23    53    52    2
    24    52    54   am
    25    54    55    1
    26    55    56    1
    27    35    37   ar
    28    35    34   ar
    29    33    34    1
    30    37    38   ar
    31    34    36   ar
    32    56    57    2
    33    56    62   am
    34    38    36   ar
    35    28    27    1
    36    62    63    1
    37     6     5    1
    38     7     5    1
    39    64    63    1
    40    64    65    2
    41     5     2    1
    42    24    25    1
    43    24    27    1
    44    24    23    1
    45    25    26    2
    46     1     2    1
    47     2     3    1
    48     4     3    2
    49     3     8   am
    50    11    10    2
    51    18    21    1
    52    18    17    1
    53    18    19    1
    54    20    19    2
    55     8     9    1
    56    21    22    1
    57    10    17   am
    58    10     9    1
    59     9    12    1
    60    12    13    1
    61    13    14    1
    62    14    15    1
    63    15    16    1
