@<TRIPOS>MOLECULE
tmp/2xybA04.pdb
 99 99 0 0 0
SMALL
GASTEIGER

@<TRIPOS>ATOM
      1  N         68.3920  -10.2810    3.6170 N.3   162  PHE162     -0.1228
      2  CA        67.9590   -8.9060    3.3960 C.3   162  PHE162      0.1721
      3  C         67.3210   -8.6420    2.0220 C.2   162  PHE162      0.2437
      4  O         68.0440   -8.2420    1.0910 O.2   162  PHE162     -0.2733
      5  CB        69.1390   -7.9650    3.5480 C.3   162  PHE162      0.0547
      6  CG        69.8920   -8.1650    4.8120 C.ar  162  PHE162     -0.0202
      7  CD1       69.3070   -7.8420    6.0260 C.ar  162  PHE162     -0.0042
      8  CD2       71.1240   -8.7980    4.8110 C.ar  162  PHE162     -0.0042
      9  CE1       69.9820   -8.0150    7.1800 C.ar  162  PHE162     -0.0003
     10  CE2       71.8210   -8.9740    5.9650 C.ar  162  PHE162     -0.0003
     11  CZ        71.2280   -8.6360    7.1760 C.ar  162  PHE162     -0.0000
     12  N         65.9780   -8.7880    1.8950 N.am  163  PRO163     -0.2718
     13  CA        65.3270   -8.7570    0.5780 C.3   163  PRO163      0.1535
     14  C         65.4650   -7.3670   -0.0100 C.2   163  PRO163      0.2598
     15  O         65.7640   -6.4210    0.7210 O.2   163  PRO163     -0.2715
     16  CB        63.8550   -9.0540    0.8970 C.3   163  PRO163      0.0310
     17  CG        63.9550   -9.8690    2.1780 C.3   163  PRO163      0.0237
     18  CD        65.0190   -9.2030    2.9490 C.3   163  PRO163      0.0939
     19  N         65.4840   -7.2970   -1.3360 N.am  164  PHE164     -0.1974
     20  CA        65.4990   -6.0090   -1.9880 C.3   164  PHE164      0.1639
     21  C         64.0470   -5.5470   -2.2370 C.2   164  PHE164      0.2290
     22  O         63.5000   -5.6030   -3.3630 O.2   164  PHE164     -0.2864
     23  CB        66.3240   -6.0320   -3.3060 C.3   164  PHE164      0.0560
     24  CG        66.3410   -4.7090   -3.9760 C.ar  164  PHE164     -0.0200
     25  CD1       66.9000   -3.6130   -3.3180 C.ar  164  PHE164     -0.0042
     26  CD2       65.5990   -4.4960   -5.1330 C.ar  164  PHE164     -0.0042
     27  CE1       66.8010   -2.3420   -3.8710 C.ar  164  PHE164     -0.0003
     28  CE2       65.5630   -3.2680   -5.7070 C.ar  164  PHE164     -0.0003
     29  CZ        66.1420   -2.1770   -5.0720 C.ar  164  PHE164     -0.0000
     30  N         60.0950   -3.4020    6.3350 N.3   206  ASP206     -0.1239
     31  CA        61.3960   -2.9410    5.8410 C.3   206  ASP206      0.1674
     32  C         61.3000   -1.5890    5.1040 C.2   206  ASP206      0.2266
     33  O         61.6540   -0.5720    5.6720 O.2   206  ASP206     -0.2867
     34  CB        62.0260   -4.0790    4.9870 C.3   206  ASP206      0.1410
     35  CG        63.3960   -3.7050    4.4420 C.2   206  ASP206      0.3668
     36  OD1       63.8520   -2.5510    4.6790 O.co2 206  ASP206     -0.2456
     37  OD2       64.0300   -4.6080    3.8520 O.co2 206  ASP206     -0.2456
     38  N         62.1860    1.4660   -2.2910 N.3   265  PHE265     -0.1241
     39  CA        62.9990    0.6360   -3.2070 C.3   265  PHE265      0.1605
     40  C         62.2040   -0.6110   -3.4210 C.2   265  PHE265      0.2264
     41  O         61.2430   -0.8690   -2.6950 O.2   265  PHE265     -0.2867
     42  CB        64.3860    0.2700   -2.5940 C.3   265  PHE265      0.0534
     43  CG        64.3190   -0.2050   -1.1460 C.ar  265  PHE265     -0.0203
     44  CD1       64.1070   -1.5550   -0.8530 C.ar  265  PHE265     -0.0042
     45  CD2       64.4830    0.6970   -0.0960 C.ar  265  PHE265     -0.0042
     46  CE1       64.0430   -2.0160    0.4580 C.ar  265  PHE265     -0.0003
     47  CE2       64.3790    0.2690    1.2170 C.ar  265  PHE265     -0.0003
     48  CZ        64.1010   -1.1080    1.5010 C.ar  265  PHE265     -0.0000
     49  N         78.3130   -3.2470   10.7370 N.3   332  PHE332     -0.1241
     50  CA        77.6940   -4.3420   10.0270 C.3   332  PHE332      0.1605
     51  C         78.8540   -5.1260    9.4520 C.2   332  PHE332      0.2264
     52  O         79.8450   -4.5310    9.0490 O.2   332  PHE332     -0.2867
     53  CB        76.8710   -3.7760    8.8960 C.3   332  PHE332      0.0534
     54  CG        76.2210   -4.8140    8.0320 C.ar  332  PHE332     -0.0203
     55  CD1       75.1850   -5.6200    8.5280 C.ar  332  PHE332     -0.0042
     56  CD2       76.5100   -4.8730    6.6660 C.ar  332  PHE332     -0.0042
     57  CE1       74.5480   -6.5550    7.7040 C.ar  332  PHE332     -0.0003
     58  CE2       75.8250   -5.7620    5.8120 C.ar  332  PHE332     -0.0003
     59  CZ        74.8380   -6.6200    6.3460 C.ar  332  PHE332     -0.0000
     60  N         74.2530   -6.8950   12.1530 N.3   337  PHE337     -0.1241
     61  CA        74.4690   -5.5250   12.6020 C.3   337  PHE337      0.1605
     62  C         75.0540   -5.4640   13.9970 C.2   337  PHE337      0.2264
     63  O         74.8210   -6.3600   14.8370 O.2   337  PHE337     -0.2867
     64  CB        73.1840   -4.7010   12.5720 C.3   337  PHE337      0.0534
     65  CG        72.7230   -4.3540   11.1850 C.ar  337  PHE337     -0.0203
     66  CD1       71.9710   -5.2400   10.4520 C.ar  337  PHE337     -0.0042
     67  CD2       73.0960   -3.1500   10.6120 C.ar  337  PHE337     -0.0042
     68  CE1       71.5360   -4.9220    9.1630 C.ar  337  PHE337     -0.0003
     69  CE2       72.6330   -2.7850    9.3480 C.ar  337  PHE337     -0.0003
     70  CZ        71.9200   -3.6900    8.5930 C.ar  337  PHE337     -0.0000
     71  N         74.6140   -0.4310    6.2720 N.3   391  PRO391     -0.2102
     72  CA        73.8320   -0.3400    5.0470 C.3   391  PRO391      0.1504
     73  C         72.3700   -0.6210    5.3320 C.2   391  PRO391      0.2576
     74  O         72.0420   -1.0560    6.4220 O.2   391  PRO391     -0.2718
     75  CB        74.4000   -1.4720    4.1800 C.3   391  PRO391      0.0282
     76  CG        74.9940   -2.3980    5.1120 C.3   391  PRO391      0.0208
     77  CD        75.5610   -1.5560    6.2210 C.3   391  PRO391      0.0893
     78  N         71.5290   -0.3420    4.3490 N.am  392  GLY392     -0.1957
     79  CA        70.0900   -0.3340    4.5130 C.3   392  GLY392      0.1869
     80  C         69.5450    0.8980    5.2000 C.2   392  GLY392      0.2309
     81  O         68.4070    0.8850    5.6870 O.2   392  GLY392     -0.2863
     82  N         63.3080   -2.0880   10.9420 N.3   453  ILE453     -0.1245
     83  CA        63.3930   -2.9580    9.7760 C.3   453  ILE453      0.1561
     84  C         63.6170   -4.3980   10.2790 C.2   453  ILE453      0.2260
     85  O         64.5940   -4.6710   10.9450 O.2   453  ILE453     -0.2867
     86  CB        64.5450   -2.5080    8.8200 C.3   453  ILE453      0.0252
     87  CG1       64.1530   -1.1540    8.2220 C.3   453  ILE453      0.0019
     88  CG2       64.6660   -3.5330    7.6930 C.3   453  ILE453      0.0019
     89  CD1       65.3070   -0.3980    7.4360 C.3   453  ILE453      0.0001
     90  N         66.7470   -6.3480    9.8710 N.3   456  HIS456     -0.1241
     91  CA        67.8860   -5.8520   10.6100 C.3   456  HIS456      0.1621
     92  C         67.8420   -6.2280   12.0920 C.2   456  HIS456      0.2264
     93  O         68.8830   -6.5300   12.6940 O.2   456  HIS456     -0.2867
     94  CB        68.0390   -4.3230   10.4520 C.3   456  HIS456      0.0745
     95  CG        68.1590   -3.8820    9.0200 C.ar  456  HIS456      0.0817
     96  ND1       68.0510   -2.5610    8.6410 N.ar  456  HIS456     -0.2268
     97  CD2       68.3160   -4.5930    7.8780 C.ar  456  HIS456      0.1154
     98  CE1       68.1890   -2.4720    7.3250 C.ar  456  HIS456      0.1986
     99  NE2       68.2990   -3.6930    6.8390 N.ar  456  HIS456     -0.2212
@<TRIPOS>BOND
     1    28    26   ar
     2    28    29   ar
     3    26    24   ar
     4    29    27   ar
     5    24    25   ar
     6    24    23    1
     7    27    25   ar
     8    40    39    1
     9    40    41    2
    10    22    21    2
    11    23    20    1
    12    39    42    1
    13    39    38    1
    14    42    43    1
    15    21    20    1
    16    20    19    1
    17    19    14   am
    18    43    44   ar
    19    43    45   ar
    20    44    46   ar
    21    45    47   ar
    22    14    13    1
    23    14    15    2
    24    46    48   ar
    25    13    16    1
    26    13    12    1
    27    16    17    1
    28     4     3    2
    29    47    48   ar
    30    12     3   am
    31    12    18    1
    32     3     2    1
    33    17    18    1
    34     2     5    1
    35     2     1    1
    36     5     6    1
    37    37    35   ar
    38    75    72    1
    39    75    76    1
    40    78    79    1
    41    78    73   am
    42    35    36   ar
    43    35    34    1
    44    79    80    1
    45     8     6   ar
    46     8    10   ar
    47     6     7   ar
    48    34    31    1
    49    72    73    1
    50    72    71    1
    51    32    33    2
    52    32    31    1
    53    76    77    1
    54    80    81    2
    55    73    74    2
    56    58    59   ar
    57    58    56   ar
    58    31    30    1
    59    10    11   ar
    60     7     9   ar
    61    77    71    1
    62    59    57   ar
    63    56    54   ar
    64    99    98   ar
    65    99    97   ar
    66    11     9   ar
    67    98    96   ar
    68    89    87    1
    69    88    86    1
    70    57    55   ar
    71    97    95   ar
    72    54    55   ar
    73    54    53    1
    74    87    86    1
    75    70    68   ar
    76    70    69   ar
    77    96    95   ar
    78    86    83    1
    79    53    50    1
    80    95    94    1
    81    52    51    2
    82    68    66   ar
    83    69    67   ar
    84    51    50    1
    85    83    84    1
    86    83    82    1
    87    90    91    1
    88    50    49    1
    89    84    85    2
    90    66    65   ar
    91    94    91    1
    92    91    92    1
    93    67    65   ar
    94    65    64    1
    95    92    93    2
    96    60    61    1
    97    64    61    1
    98    61    62    1
    99    62    63    2
