@<TRIPOS>MOLECULE
tmp/2xybA00.pdb
 89 86 0 0 0
SMALL
GASTEIGER

@<TRIPOS>ATOM
      1  N         48.3960  -13.4350   -5.5370 N.3    20  PHE20      -0.1227
      2  CA        49.3470  -14.5560   -5.4780 C.3    20  PHE20       0.1736
      3  C         49.0860  -15.3340   -4.1750 C.2    20  PHE20       0.2595
      4  O         49.1780  -14.7530   -3.0950 O.2    20  PHE20      -0.2718
      5  CB        50.8160  -14.0220   -5.5470 C.3    20  PHE20       0.0547
      6  CG        51.8710  -15.1340   -5.4570 C.ar   20  PHE20      -0.0202
      7  CD1       52.1860  -15.8910   -6.5860 C.ar   20  PHE20      -0.0042
      8  CD2       52.4710  -15.4640   -4.2520 C.ar   20  PHE20      -0.0042
      9  CE1       53.0810  -16.9900   -6.4850 C.ar   20  PHE20      -0.0003
     10  CE2       53.3770  -16.5220   -4.1310 C.ar   20  PHE20      -0.0003
     11  CZ        53.7030  -17.2760   -5.2610 C.ar   20  PHE20      -0.0000
     12  N         48.7590  -16.6370   -4.2630 N.am   21  ALA21      -0.1966
     13  CA        48.4210  -17.4020   -3.0630 C.3    21  ALA21       0.1728
     14  C         49.6700  -17.8720   -2.3680 C.2    21  ALA21       0.2616
     15  O         50.6310  -18.3810   -3.0230 O.2    21  ALA21      -0.2715
     16  CB        47.4910  -18.6330   -3.4100 C.3    21  ALA21       0.0334
     17  N         49.7620  -17.6330   -1.0680 N.am   22  ARG22      -0.1963
     18  CA        50.8750  -18.1970   -0.2970 C.3    22  ARG22       0.1729
     19  C         50.4310  -18.5180    1.1460 C.2    22  ARG22       0.2616
     20  O         49.5020  -17.8940    1.6980 O.2    22  ARG22      -0.2715
     21  CB        52.1180  -17.2870   -0.2280 C.3    22  ARG22       0.0348
     22  CG        51.8150  -15.8940    0.4470 C.3    22  ARG22       0.0492
     23  CD        53.0380  -15.1880    0.9470 C.3    22  ARG22       0.2205
     24  NE        53.4500  -15.7890    2.1910 N.pl3  22  ARG22      -0.0865
     25  CZ        54.3470  -15.2850    3.0220 C.cat  22  ARG22       0.5346
     26  NH1       55.0890  -14.2410    2.6590 N.pl3  22  ARG22       0.1354
     27  NH2       54.6450  -15.9500    4.1740 N.pl3  22  ARG22       0.1354
     28  N         51.2150  -19.3520    1.8220 N.am   23  GLU23      -0.1977
     29  CA        50.8860  -19.6540    3.2110 C.3    23  GLU23       0.1602
     30  C         51.4090  -18.5010    4.0700 C.2    23  GLU23       0.2287
     31  O         52.4870  -18.0010    3.8110 O.2    23  GLU23      -0.2864
     32  CB        51.5230  -20.9950    3.6630 C.3    23  GLU23       0.0415
     33  CG        50.7900  -22.1840    2.9800 C.3    23  GLU23       0.1163
     34  CD        49.4210  -22.5250    3.6280 C.2    23  GLU23       0.3649
     35  OE1       49.3240  -22.3420    4.8430 O.co2  23  GLU23      -0.2457
     36  OE2       48.6280  -23.2990    3.0080 O.co2  23  GLU23      -0.2457
     37  N         52.8440  -24.2240   11.5580 N.3    54  ASN54      -0.1240
     38  CA        53.8970  -24.2280   10.5210 C.3    54  ASN54       0.1653
     39  C         55.2060  -23.7400   11.0720 C.2    54  ASN54       0.2266
     40  O         55.3370  -22.5930   11.4410 O.2    54  ASN54      -0.2867
     41  CB        53.4510  -23.3990    9.2860 C.3    54  ASN54       0.1155
     42  CG        54.4050  -23.5470    8.0880 C.2    54  ASN54       0.2627
     43  OD1       55.6050  -23.5200    8.2510 O.2    54  ASN54      -0.2716
     44  ND2       53.8620  -23.6340    6.8870 N.am   54  ASN54      -0.0877
     45  N         58.1680  -23.3750    9.7410 N.3    56  THR56      -0.1203
     46  CA        58.9540  -22.4960    8.8920 C.3    56  THR56       0.1994
     47  C         58.5790  -21.0260    9.2020 C.2    56  THR56       0.2617
     48  O         59.4030  -20.1340    8.9990 O.2    56  THR56      -0.2717
     49  CB        58.6830  -22.7450    7.4100 C.3    56  THR56       0.1784
     50  OG1       58.9390  -24.1270    7.1290 O.3    56  THR56      -0.2211
     51  CG2       59.5990  -21.8610    6.5370 C.3    56  THR56       0.0376
     52  N         57.3220  -20.7940    9.5930 N.am   57  MET57      -0.1979
     53  CA        56.9180  -19.4130    9.9420 C.3    57  MET57       0.1605
     54  C         56.8430  -19.2000   11.4700 C.2    57  MET57       0.2287
     55  O         56.4200  -18.1310   11.9810 O.2    57  MET57      -0.2864
     56  CB        55.6500  -19.0460    9.1840 C.3    57  MET57       0.0413
     57  CG        55.8440  -19.1300    7.6880 C.3    57  MET57       0.0598
     58  SD        54.4110  -18.4910    6.8250 S.3    57  MET57      -0.1393
     59  CE        53.1740  -19.7290    7.0730 C.3    57  MET57       0.0692
     60  N         56.3660  -12.8010   -1.6000 N.3   153  HIS153     -0.1226
     61  CA        55.7790  -14.0230   -2.1060 C.3   153  HIS153      0.1752
     62  C         56.5450  -15.2320   -1.5440 C.2   153  HIS153      0.2596
     63  O         55.9890  -16.3240   -1.4550 O.2   153  HIS153     -0.2718
     64  CB        55.7670  -14.0310   -3.6510 C.3   153  HIS153      0.0759
     65  CG        54.8390  -13.0180   -4.2340 C.ar  153  HIS153      0.0818
     66  ND1       54.7760  -12.7470   -5.5800 N.ar  153  HIS153     -0.2268
     67  CD2       53.8760  -12.2580   -3.6520 C.ar  153  HIS153      0.1154
     68  CE1       53.7890  -11.9010   -5.8180 C.ar  153  HIS153      0.1986
     69  NE2       53.2790  -11.5250   -4.6530 N.ar  153  HIS153     -0.2212
     70  N         57.7430  -14.9740   -1.0460 N.am  154  VAL154     -0.1966
     71  CA        58.5420  -16.0010   -0.4250 C.3   154  VAL154      0.1727
     72  C         58.6540  -15.6820    1.0670 C.2   154  VAL154      0.2616
     73  O         58.8920  -14.5450    1.4570 O.2   154  VAL154     -0.2715
     74  CB        59.9480  -16.0800   -1.0720 C.3   154  VAL154      0.0290
     75  CG1       60.8780  -17.0280   -0.2420 C.3   154  VAL154      0.0023
     76  CG2       59.8680  -16.5690   -2.5650 C.3   154  VAL154      0.0023
     77  N         58.4510  -16.6900    1.9080 N.am  155  ALA155     -0.1977
     78  CA        58.3280  -16.4940    3.3660 C.3   155  ALA155      0.1597
     79  C         59.6110  -15.9340    3.9470 C.2   155  ALA155      0.2287
     80  O         60.6750  -16.0740    3.3310 O.2   155  ALA155     -0.2864
     81  CB        57.9860  -17.8600    4.0170 C.3   155  ALA155      0.0319
     82  N         62.5620  -18.1910    4.2530 N.3   158  LEU158     -0.1245
     83  CA        62.9130  -18.9360    3.0630 C.3   158  LEU158      0.1561
     84  C         63.5560  -18.0410    2.0260 C.2   158  LEU158      0.2260
     85  O         64.1810  -18.5350    1.0950 O.2   158  LEU158     -0.2867
     86  CB        61.6900  -19.6240    2.4740 C.3   158  LEU158      0.0270
     87  CG        61.0290  -20.7460    3.2690 C.3   158  LEU158      0.0019
     88  CD1       59.8980  -21.3500    2.5070 C.3   158  LEU158      0.0001
     89  CD2       62.1170  -21.8120    3.6250 C.3   158  LEU158      0.0001
@<TRIPOS>BOND
     1     7     9   ar
     2     7     6   ar
     3     9    11   ar
     4    68    66   ar
     5    68    69   ar
     6    66    65   ar
     7     5     2    1
     8     5     6    1
     9     1     2    1
    10     2     3    1
    11     6     8   ar
    12    11    10   ar
    13    69    67   ar
    14    12     3   am
    15    12    13    1
    16     8    10   ar
    17    65    67   ar
    18    65    64    1
    19     3     4    2
    20    64    61    1
    21    16    13    1
    22    13    14    1
    23    15    14    2
    24    76    74    1
    25    14    17   am
    26    61    60    1
    27    61    62    1
    28    62    63    2
    29    62    70   am
    30    74    71    1
    31    74    75    1
    32    17    18    1
    33    70    71    1
    34    71    72    1
    35    18    21    1
    36    18    19    1
    37    21    22    1
    38    22    23    1
    39    23    24    1
    40    72    73    2
    41    72    77   am
    42    85    84    2
    43    19    20    2
    44    19    28   am
    45    28    29    1
    46    77    78    1
    47    84    83    1
    48    24    25    2
    49    86    83    1
    50    86    87    1
    51    88    87    1
    52    26    25    1
    53    33    34    1
    54    33    32    1
    55    36    34   ar
    56    25    27    1
    57    83    82    1
    58    29    32    1
    59    29    30    1
    60    87    89    1
    61    80    79    2
    62    78    79    1
    63    78    81    1
    64    34    35   ar
    65    31    30    2
    66    51    49    1
    67    58    59    1
    68    58    57    1
    69    44    42   am
    70    50    49    1
    71    49    46    1
    72    57    56    1
    73    42    43    2
    74    42    41    1
    75    46    47    1
    76    46    45    1
    77    48    47    2
    78    56    53    1
    79    47    52   am
    80    41    38    1
    81    52    53    1
    82    53    54    1
    83    38    39    1
    84    38    37    1
    85    39    40    2
    86    54    55    2
