@<TRIPOS>MOLECULE
tmp/2xybA01.pdb
 81 78 0 0 0
SMALL
GASTEIGER

@<TRIPOS>ATOM
      1  N         45.0900   15.0470   -6.0060 N.3   215  ASN215     -0.1240
      2  CA        44.1420   16.1460   -5.8160 C.3   215  ASN215      0.1653
      3  C         43.7420   16.4870   -4.3980 C.2   215  ASN215      0.2266
      4  O         42.8680   17.3320   -4.2300 O.2   215  ASN215     -0.2867
      5  CB        42.8760   15.9150   -6.6250 C.3   215  ASN215      0.1155
      6  CG        43.1870   15.7930   -8.1100 C.2   215  ASN215      0.2627
      7  OD1       43.2890   14.7110   -8.6550 O.2   215  ASN215     -0.2716
      8  ND2       43.3750   16.9300   -8.7520 N.am  215  ASN215     -0.0877
      9  N         36.6820   17.7060   -3.1910 N.3   252  GLN252     -0.1245
     10  CA        36.9040   17.6860   -4.6280 C.3   252  GLN252      0.1566
     11  C         35.6420   17.1350   -5.3620 C.2   252  GLN252      0.2260
     12  O         34.6850   16.6860   -4.7270 O.2   252  GLN252     -0.2867
     13  CB        38.1410   16.8200   -4.9630 C.3   252  GLN252      0.0367
     14  CG        39.4440   17.3580   -4.3950 C.3   252  GLN252      0.0905
     15  CD        39.7910   18.7030   -5.0450 C.2   252  GLN252      0.2608
     16  OE1       39.9060   19.7030   -4.3770 O.2   252  GLN252     -0.2717
     17  NE2       39.7610   18.7230   -6.3340 N.am  252  GLN252     -0.0878
     18  N         34.5760   11.7610   -7.7350 N.3   255  ASP255     -0.1225
     19  CA        35.3560   11.0300   -8.7160 C.3   255  ASP255      0.1805
     20  C         36.1030    9.9280   -7.9680 C.2   255  ASP255      0.2598
     21  O         35.9950    9.8180   -6.7330 O.2   255  ASP255     -0.2718
     22  CB        36.3990   11.9560   -9.3770 C.3   255  ASP255      0.1424
     23  CG        36.7070   11.5840  -10.8330 C.2   255  ASP255      0.3668
     24  OD1       36.6240   10.4160  -11.2480 O.co2 255  ASP255     -0.2456
     25  OD2       37.0930   12.4950  -11.5850 O.co2 255  ASP255     -0.2456
     26  N         36.9300    9.1920   -8.7210 N.am  256  ASN256     -0.1960
     27  CA        37.9420    8.2860   -8.1710 C.3   256  ASN256      0.1819
     28  C         39.3020    8.9610   -8.2040 C.2   256  ASN256      0.2621
     29  O         39.7090    9.4980   -9.2440 O.2   256  ASN256     -0.2715
     30  CB        38.0160    7.0220   -9.0310 C.3   256  ASN256      0.1195
     31  CG        36.7800    6.2170   -8.9660 C.2   256  ASN256      0.2630
     32  OD1       36.4690    5.6880   -7.9150 O.2   256  ASN256     -0.2716
     33  ND2       35.9640    6.2430  -10.0400 N.am  256  ASN256     -0.0877
     34  N         40.0400    8.9170   -7.0910 N.am  257  TYR257     -0.1974
     35  CA        41.3520    9.4870   -7.0380 C.3   257  TYR257      0.1639
     36  C         42.3440    8.4310   -6.5780 C.2   257  TYR257      0.2290
     37  O         42.0810    7.7200   -5.6080 O.2   257  TYR257     -0.2864
     38  CB        41.3480   10.6500   -6.0350 C.3   257  TYR257      0.0560
     39  CG        40.4060   11.7770   -6.4960 C.ar  257  TYR257     -0.0198
     40  CD1       40.8750   12.8020   -7.2940 C.ar  257  TYR257     -0.0009
     41  CD2       39.0820   11.8310   -6.0810 C.ar  257  TYR257     -0.0009
     42  CE1       40.0000   13.7930   -7.7680 C.ar  257  TYR257      0.0417
     43  CE2       38.2080   12.8270   -6.5180 C.ar  257  TYR257      0.0417
     44  CZ        38.7220   13.8410   -7.3200 C.ar  257  TYR257      0.1957
     45  OH        37.8560   14.8110   -7.7880 O.3   257  TYR257     -0.2866
     46  N         41.6890    7.8760  -12.9990 N.3   290  THR290     -0.1203
     47  CA        42.6260    8.3560  -13.9880 C.3   290  THR290      0.1994
     48  C         43.2360    9.6920  -13.5230 C.2   290  THR290      0.2619
     49  O         43.7670   10.4750  -14.3340 O.2   290  THR290     -0.2717
     50  CB        41.8780    8.5530  -15.3150 C.3   290  THR290      0.1784
     51  OG1       40.7330    9.3970  -15.1170 O.3   290  THR290     -0.2211
     52  CG2       41.4090    7.2150  -15.8420 C.3   290  THR290      0.0376
     53  N         43.2630    9.9000  -12.2050 N.am  291  SER291     -0.1937
     54  CA        43.7590   11.1610  -11.6230 C.3   291  SER291      0.2055
     55  C         45.2640   11.2410  -11.8260 C.2   291  SER291      0.2643
     56  O         45.9380   10.2210  -12.0800 O.2   291  SER291     -0.2714
     57  CB        43.3790   11.2540  -10.1250 C.3   291  SER291      0.2130
     58  OG        43.9390   10.1090   -9.4490 O.3   291  SER291     -0.2179
     59  N         45.8280   12.4450  -11.7690 N.am  292  VAL292     -0.1963
     60  CA        47.2660   12.5400  -11.9400 C.3   292  VAL292      0.1727
     61  C         47.9410   13.1680  -10.7560 C.2   292  VAL292      0.2616
     62  O         47.3560   13.9690  -10.0410 O.2   292  VAL292     -0.2715
     63  CB        47.6950   13.3340  -13.2030 C.3   292  VAL292      0.0290
     64  CG1       46.8720   12.9020  -14.4340 C.3   292  VAL292      0.0023
     65  CG2       47.5650   14.8060  -12.9440 C.3   292  VAL292      0.0023
     66  N         49.1030   12.6160  -10.4580 N.am  293  GLN293     -0.1963
     67  CA        49.9320   13.0600   -9.4120 C.3   293  GLN293      0.1733
     68  C         50.7150   14.3220   -9.8240 C.2   293  GLN293      0.2617
     69  O         51.0590   14.4840  -10.9810 O.2   293  GLN293     -0.2715
     70  CB        50.9070   11.9220   -9.1100 C.3   293  GLN293      0.0408
     71  CG        51.8480   12.1650   -8.0300 C.3   293  GLN293      0.0908
     72  CD        52.6990   10.9060   -7.7720 C.2   293  GLN293      0.2608
     73  OE1       52.8150   10.0370   -8.6330 O.2   293  GLN293     -0.2717
     74  NE2       53.3080   10.8360   -6.6090 N.am  293  GLN293     -0.0878
     75  N         51.1050   15.1270   -8.8500 N.am  294  THR294     -0.1951
     76  CA        52.0120   16.2440   -9.1100 C.3   294  THR294      0.1897
     77  C         53.1510   16.2400   -8.1030 C.2   294  THR294      0.2313
     78  O         53.1010   15.5300   -7.0940 O.2   294  THR294     -0.2863
     79  CB        51.2500   17.5990   -9.1180 C.3   294  THR294      0.1794
     80  OG1       50.5820   17.7890   -7.8690 O.3   294  THR294     -0.2208
     81  CG2       50.2210   17.6260  -10.2390 C.3   294  THR294      0.0378
@<TRIPOS>BOND
     1    52    50    1
     2    50    51    1
     3    50    47    1
     4    64    63    1
     5    49    48    2
     6    47    48    1
     7    47    46    1
     8    48    53   am
     9    63    65    1
    10    63    60    1
    11    53    54    1
    12    56    55    2
    13    60    59    1
    14    60    61    1
    15    55    59   am
    16    55    54    1
    17    54    57    1
    18    25    23   ar
    19    24    23   ar
    20    69    68    2
    21    23    22    1
    22    61    66   am
    23    61    62    2
    24    66    67    1
    25    81    79    1
    26    57    58    1
    27    33    31   am
    28    68    67    1
    29    68    75   am
    30    67    70    1
    31    22    19    1
    32    29    28    2
    33    79    76    1
    34    79    80    1
    35    76    75    1
    36    76    77    1
    37    70    71    1
    38    30    31    1
    39    30    27    1
    40    31    32    2
    41     8     6   am
    42    26    27    1
    43    26    20   am
    44    19    20    1
    45    19    18    1
    46     7     6    2
    47    73    72    2
    48    28    27    1
    49    28    34   am
    50     6     5    1
    51    77    78    2
    52    71    72    1
    53    20    21    2
    54    45    44    1
    55    72    74   am
    56    42    44   ar
    57    42    40   ar
    58    44    43   ar
    59    40    39   ar
    60    34    35    1
    61    35    36    1
    62    35    38    1
    63     5     2    1
    64    36    37    2
    65    43    41   ar
    66    39    41   ar
    67    39    38    1
    68    17    15   am
    69     1     2    1
    70     2     3    1
    71    11    12    2
    72    11    10    1
    73    15    14    1
    74    15    16    2
    75    13    10    1
    76    13    14    1
    77    10     9    1
    78     3     4    2
