@<TRIPOS>MOLECULE
tmp/2xybA03.pdb
 107 102 0 0 0
SMALL
GASTEIGER

@<TRIPOS>ATOM
      1  N         74.0510   20.1310   23.4790 N.3   319  PRO319     -0.2102
      2  CA        74.5460   18.7730   23.3050 C.3   319  PRO319      0.1504
      3  C         75.0600   18.2510   24.6350 C.2   319  PRO319      0.2576
      4  O         75.7900   18.9620   25.3160 O.2   319  PRO319     -0.2718
      5  CB        75.7040   18.9510   22.3170 C.3   319  PRO319      0.0282
      6  CG        75.2750   20.1100   21.4610 C.3   319  PRO319      0.0208
      7  CD        74.4950   21.0360   22.3980 C.3   319  PRO319      0.0893
      8  N         74.5680   17.0990   25.0810 N.am  320  GLY320     -0.1957
      9  CA        75.0940   16.4710   26.2980 C.3   320  GLY320      0.1869
     10  C         74.4870   17.0270   27.5750 C.2   320  GLY320      0.2309
     11  O         74.7750   16.5300   28.6660 O.2   320  GLY320     -0.2863
     12  N         74.2190   10.8070   28.6540 N.3   325  PRO325     -0.2102
     13  CA        74.3050   10.8620   27.2110 C.3   325  PRO325      0.1504
     14  C         74.9270    9.5960   26.6240 C.2   325  PRO325      0.2576
     15  O         75.7280    8.9300   27.2750 O.2   325  PRO325     -0.2718
     16  CB        75.1810   12.0880   26.9590 C.3   325  PRO325      0.0282
     17  CG        76.0960   12.1100   28.1690 C.3   325  PRO325      0.0208
     18  CD        75.1550   11.7510   29.3040 C.3   325  PRO325      0.0893
     19  N         74.3730    9.1410   25.5020 N.am  326  LEU326     -0.1966
     20  CA        74.8000    7.8740   24.9060 C.3   326  LEU326      0.1728
     21  C         74.8960    8.1100   23.4280 C.2   326  LEU326      0.2616
     22  O         73.9770    8.6750   22.8250 O.2   326  LEU326     -0.2715
     23  CB        73.7810    6.7500   25.1710 C.3   326  LEU326      0.0311
     24  CG        73.7640    6.2850   26.6200 C.3   326  LEU326      0.0022
     25  CD1       72.4200    5.6020   26.8820 C.3   326  LEU326      0.0001
     26  CD2       74.9270    5.3140   26.7970 C.3   326  LEU326      0.0001
     27  N         76.0240    7.7270   22.8530 N.am  327  ASN327     -0.1972
     28  CA        76.1790    7.7840   21.4060 C.3   327  ASN327      0.1688
     29  C         76.2770    6.3600   20.8670 C.2   327  ASN327      0.2292
     30  O         77.1020    5.5550   21.3410 O.2   327  ASN327     -0.2864
     31  CB        77.4210    8.6280   21.0240 C.3   327  ASN327      0.1181
     32  CG        77.5790    8.8070   19.5430 C.2   327  ASN327      0.2629
     33  OD1       76.7650    9.4990   18.8780 O.2   327  ASN327     -0.2716
     34  ND2       78.6510    8.2170   18.9920 N.am  327  ASN327     -0.0877
     35  N         70.0730   11.1980   26.6970 N.3   381  GLU381     -0.1245
     36  CA        70.2130   11.6530   25.3120 C.3   381  GLU381      0.1567
     37  C         70.9170   10.6250   24.4860 C.2   381  GLU381      0.2260
     38  O         71.8960   10.0440   24.9280 O.2   381  GLU381     -0.2867
     39  CB        70.9180   13.0170   25.2080 C.3   381  GLU381      0.0388
     40  CG        71.0550   13.5330   23.7630 C.3   381  GLU381      0.1160
     41  CD        71.6150   14.9430   23.7420 C.2   381  GLU381      0.3649
     42  OE1       72.8370   15.0860   23.9430 O.co2 381  GLU381     -0.2457
     43  OE2       70.8230   15.9050   23.6430 O.co2 381  GLU381     -0.2457
     44  N         72.2020    9.5740   20.5380 N.3   383  SER383     -0.1217
     45  CA        72.4750    9.9290   19.1670 C.3   383  SER383      0.1889
     46  C         72.7800    8.6880   18.3710 C.2   383  SER383      0.2288
     47  O         73.3170    7.7200   18.8950 O.2   383  SER383     -0.2866
     48  CB        73.6530   10.9590   19.0920 C.3   383  SER383      0.2089
     49  OG        74.7530   10.5450   19.9080 O.3   383  SER383     -0.2183
     50  N         74.2790    8.3920   14.9880 N.3   385  PRO385     -0.2102
     51  CA        74.8920    8.8980   13.7580 C.3   385  PRO385      0.1504
     52  C         74.9210    7.9110   12.5880 C.2   385  PRO385      0.2575
     53  O         75.3900    6.8280   12.7030 O.2   385  PRO385     -0.2718
     54  CB        76.2830    9.2930   14.2080 C.3   385  PRO385      0.0282
     55  CG        76.5230    8.5530   15.4320 C.3   385  PRO385      0.0208
     56  CD        75.2180    8.4350   16.1100 C.3   385  PRO385      0.0893
     57  N         74.3750    8.3270   11.4560 N.am  386  ALA386     -0.1980
     58  CA        74.2660    7.4900   10.2950 C.3   386  ALA386      0.1597
     59  C         75.6330    7.2570    9.7020 C.2   386  ALA386      0.2287
     60  O         76.4980    8.0700    9.8740 O.2   386  ALA386     -0.2864
     61  CB        73.3990    8.1210    9.3280 C.3   386  ALA386      0.0319
     62  N         67.0390   16.4400   17.1480 N.3   408  ARG408     -0.1245
     63  CA        67.6220   16.6530   15.8290 C.3   408  ARG408      0.1563
     64  C         67.0740   15.5880   14.8480 C.2   408  ARG408      0.2260
     65  O         67.4250   14.4100   14.9880 O.2   408  ARG408     -0.2867
     66  CB        69.1650   16.5820   15.9000 C.3   408  ARG408      0.0307
     67  CG        69.8200   16.7970   14.5300 C.3   408  ARG408      0.0489
     68  CD        71.3650   17.0500   14.5870 C.3   408  ARG408      0.2205
     69  NE        71.8930   17.0700   13.2280 N.pl3 408  ARG408     -0.0865
     70  CZ        73.1820   17.0770   12.9170 C.cat 408  ARG408      0.5346
     71  NH1       74.0930   17.0710   13.8800 N.pl3 408  ARG408      0.1354
     72  NH2       73.5390   17.0170   11.6410 N.pl3 408  ARG408      0.1354
     73  N         69.4160   21.6800   16.1380 N.3   415  TYR415     -0.1241
     74  CA        68.9390   21.0970   17.3980 C.3   415  TYR415      0.1605
     75  C         67.7640   21.9100   17.9270 C.2   415  TYR415      0.2264
     76  O         67.8420   23.1430   17.9940 O.2   415  TYR415     -0.2867
     77  CB        70.0800   21.0600   18.4150 C.3   415  TYR415      0.0534
     78  CG        71.1410   20.0730   18.0280 C.ar  415  TYR415     -0.0201
     79  CD1       72.1890   20.4330   17.1860 C.ar  415  TYR415     -0.0009
     80  CD2       71.0970   18.7630   18.4960 C.ar  415  TYR415     -0.0009
     81  CE1       73.1770   19.5030   16.8220 C.ar  415  TYR415      0.0417
     82  CE2       72.0450   17.8420   18.1190 C.ar  415  TYR415      0.0417
     83  CZ        73.0950   18.2120   17.3120 C.ar  415  TYR415      0.1957
     84  OH        74.0060   17.2610   16.9430 O.3   415  TYR415     -0.2866
     85  N         74.0210   12.6960    8.7200 N.3   433  ASP433     -0.1225
     86  CA        73.0330   12.9690    9.7760 C.3   433  ASP433      0.1805
     87  C         73.5510   12.5820   11.1780 C.2   433  ASP433      0.2597
     88  O         74.4280   11.7100   11.3490 O.2   433  ASP433     -0.2718
     89  CB        71.7360   12.1800    9.4600 C.3   433  ASP433      0.1424
     90  CG        70.9390   12.7830    8.3020 C.2   433  ASP433      0.3668
     91  OD1       70.9040   14.0310    8.2000 O.co2 433  ASP433     -0.2456
     92  OD2       70.3520   12.0190    7.5020 O.co2 433  ASP433     -0.2456
     93  N         72.9430   13.1460   12.2210 N.am  434  ASN434     -0.1974
     94  CA        73.2360   12.6480   13.5520 C.3   434  ASN434      0.1688
     95  C         71.9670   12.7870   14.3830 C.2   434  ASN434      0.2292
     96  O         71.8160   13.6750   15.1920 O.2   434  ASN434     -0.2864
     97  CB        74.4320   13.4010   14.1890 C.3   434  ASN434      0.1181
     98  CG        74.9850   12.6870   15.3900 C.2   434  ASN434      0.2629
     99  OD1       74.4290   11.6760   15.8230 O.2   434  ASN434     -0.2716
    100  ND2       76.0560   13.2390   15.9940 N.am  434  ASN434     -0.0877
    101  N         69.1920   12.7680   16.9120 N.3   436  THR436     -0.1218
    102  CA        69.3730   12.7590   18.3650 C.3   436  THR436      0.1862
    103  C         68.0130   12.9110   19.0970 C.2   436  THR436      0.2287
    104  O         67.1470   13.7080   18.6950 O.2   436  THR436     -0.2866
    105  CB        70.3640   13.9140   18.7810 C.3   436  THR436      0.1770
    106  OG1       71.6160   13.6780   18.1200 O.3   436  THR436     -0.2211
    107  CG2       70.5830   13.9510   20.2890 C.3   436  THR436      0.0375
@<TRIPOS>BOND
     1    92    90   ar
     2    91    90   ar
     3    90    89    1
     4    85    86    1
     5    61    58    1
     6    89    86    1
     7    59    60    2
     8    59    58    1
     9    86    87    1
    10    58    57    1
    11    87    88    2
    12    87    93   am
    13    57    52   am
    14    72    70    1
    15    93    94    1
    16    52    53    2
    17    52    51    1
    18    70    69    2
    19    70    71    1
    20    69    68    1
    21    94    97    1
    22    94    95    1
    23    51    54    1
    24    51    50    1
    25    97    98    1
    26    54    55    1
    27    95    96    2
    28    67    68    1
    29    67    66    1
    30    64    65    2
    31    64    63    1
    32    50    56    1
    33    98    99    2
    34    98   100   am
    35    55    56    1
    36    63    66    1
    37    63    62    1
    38    73    74    1
    39    81    79   ar
    40    81    83   ar
    41   101   102    1
    42    84    83    1
    43    79    78   ar
    44    83    82   ar
    45    74    75    1
    46    74    77    1
    47    75    76    2
    48    78    77    1
    49    78    80   ar
    50    82    80   ar
    51   106   105    1
    52   102   105    1
    53   102   103    1
    54    46    47    2
    55    46    45    1
    56   104   103    2
    57   105   107    1
    58    33    32    2
    59    34    32   am
    60    48    45    1
    61    48    49    1
    62    45    44    1
    63    32    31    1
    64    29    30    2
    65    29    28    1
    66    31    28    1
    67    28    27    1
    68     6     5    1
    69     6     7    1
    70     5     2    1
    71     7     1    1
    72    22    21    2
    73    27    21   am
    74     2     1    1
    75     2     3    1
    76    21    20    1
    77    43    41   ar
    78    41    40    1
    79    41    42   ar
    80    40    39    1
    81    37    38    2
    82    37    36    1
    83     3     8   am
    84     3     4    2
    85    20    23    1
    86    20    19    1
    87     8     9    1
    88    23    24    1
    89    39    36    1
    90    36    35    1
    91    19    14   am
    92     9    10    1
    93    24    26    1
    94    24    25    1
    95    14    13    1
    96    14    15    2
    97    16    13    1
    98    16    17    1
    99    13    12    1
   100    10    11    2
   101    17    18    1
   102    12    18    1
