@<TRIPOS>MOLECULE
tmp/2xycA03.pdb
 80 77 0 0 0
SMALL
GASTEIGER

@<TRIPOS>ATOM
      1  N         11.6180   24.2710   13.3260 N.3   111  TYR111     -0.1241
      2  CA        10.6470   23.2070   13.1220 C.3   111  TYR111      0.1605
      3  C         10.4760   22.4280   14.4130 C.2   111  TYR111      0.2264
      4  O         11.4450   22.1720   15.1140 O.2   111  TYR111     -0.2867
      5  CB        11.1120   22.2660   12.0010 C.3   111  TYR111      0.0534
      6  CG        11.2250   22.9620   10.6660 C.ar  111  TYR111     -0.0201
      7  CD1       10.1180   23.0870    9.8320 C.ar  111  TYR111     -0.0009
      8  CD2       12.4320   23.5420   10.2540 C.ar  111  TYR111     -0.0009
      9  CE1       10.2150   23.7320    8.6160 C.ar  111  TYR111      0.0417
     10  CE2       12.5300   24.1960    9.0430 C.ar  111  TYR111      0.0417
     11  CZ        11.4140   24.2850    8.2230 C.ar  111  TYR111      0.1957
     12  OH        11.4900   24.9280    7.0050 O.3   111  TYR111     -0.2866
     13  N          5.1000   23.8710   12.3270 N.3   192  LEU192     -0.1231
     14  CA         4.7090   22.5450   12.8000 C.3   192  LEU192      0.1693
     15  C          5.2180   21.4980   11.8240 C.2   192  LEU192      0.2592
     16  O          4.8340   21.4940   10.6600 O.2   192  LEU192     -0.2718
     17  CB         3.1810   22.4590   12.9090 C.3   192  LEU192      0.0284
     18  CG         2.5230   21.1200   13.2690 C.3   192  LEU192      0.0019
     19  CD1        3.0010   20.6070   14.6240 C.3   192  LEU192      0.0001
     20  CD2        1.0160   21.2550   13.2600 C.3   192  LEU192      0.0001
     21  N          6.0770   20.6070   12.3030 N.am  193  ALA193     -0.1966
     22  CA         6.7890   19.6790   11.4250 C.3   193  ALA193      0.1728
     23  C          6.3480   18.2130   11.5990 C.2   193  ALA193      0.2616
     24  O          5.6240   17.8710   12.5410 O.2   193  ALA193     -0.2715
     25  CB         8.2810   19.8190   11.6510 C.3   193  ALA193      0.0334
     26  N          6.7790   17.3480   10.6920 N.am  194  ASP194     -0.1957
     27  CA         6.4540   15.9220   10.7860 C.3   194  ASP194      0.1840
     28  C          7.7030   15.0360   10.6570 C.2   194  ASP194      0.2622
     29  O          8.2780   14.6360   11.6600 O.2   194  ASP194     -0.2715
     30  CB         5.3820   15.5220    9.7660 C.3   194  ASP194      0.1450
     31  CG         5.6030   16.1620    8.4010 C.2   194  ASP194      0.3671
     32  OD1        6.4230   15.6270    7.6270 O.co2 194  ASP194     -0.2456
     33  OD2        4.9640   17.2040    8.1020 O.co2 194  ASP194     -0.2456
     34  N          8.1270   14.7340    9.4330 N.am  195  VAL195     -0.1964
     35  CA         9.2960   13.8710    9.2460 C.3   195  VAL195      0.1712
     36  C         10.5680   14.6490    9.5670 C.2   195  VAL195      0.2458
     37  O         10.5580   15.8700    9.6020 O.2   195  VAL195     -0.2730
     38  CB         9.3820   13.2890    7.8010 C.3   195  VAL195      0.0289
     39  CG1        8.1730   12.4200    7.5030 C.3   195  VAL195      0.0023
     40  CG2        9.5520   14.4080    6.7850 C.3   195  VAL195      0.0023
     41  N         11.6680   13.9390    9.8330 N.am  196  PRO196     -0.2716
     42  CA        12.9320   14.6340   10.0810 C.3   196  PRO196      0.1536
     43  C         13.4390   15.3670    8.8480 C.2   196  PRO196      0.2599
     44  O         13.0520   15.0800    7.7190 O.2   196  PRO196     -0.2715
     45  CB        13.8980   13.4930   10.4090 C.3   196  PRO196      0.0310
     46  CG        13.0520   12.3840   10.8810 C.3   196  PRO196      0.0237
     47  CD        11.7600   12.4960   10.1090 C.3   196  PRO196      0.0939
     48  N         14.3150   16.3280    9.0740 N.am  197  SER197     -0.1936
     49  CA        15.0260   16.9560    7.9900 C.3   197  SER197      0.2055
     50  C         16.1320   16.0010    7.4700 C.2   197  SER197      0.2643
     51  O         16.3700   14.9500    8.0450 O.2   197  SER197     -0.2714
     52  CB        15.6240   18.2720    8.4770 C.3   197  SER197      0.2130
     53  OG        16.4890   18.8010    7.4880 O.3   197  SER197     -0.2179
     54  N         16.7890   16.3790    6.3780 N.am  198  SER198     -0.1949
     55  CA        17.8720   15.5740    5.8180 C.3   198  SER198      0.1924
     56  C         19.1320   15.5750    6.6830 C.2   198  SER198      0.2314
     57  O         19.5610   16.6200    7.1580 O.2   198  SER198     -0.2863
     58  CB        18.2100   16.0300    4.3920 C.3   198  SER198      0.2116
     59  OG        17.8100   17.3710    4.1610 O.3   198  SER198     -0.2180
     60  N         17.0470   19.7830   14.5560 N.3   221  SER221     -0.1217
     61  CA        15.7850   20.4760   14.7650 C.3   221  SER221      0.1889
     62  C         15.8080   21.2350   16.1030 C.2   221  SER221      0.2288
     63  O         14.7990   21.8070   16.5350 O.2   221  SER221     -0.2866
     64  CB        14.6480   19.4640   14.7600 C.3   221  SER221      0.2089
     65  OG        14.8790   18.4930   15.7630 O.3   221  SER221     -0.2183
     66  N         12.0450   18.0890   16.5830 N.3   225  VAL225     -0.1245
     67  CA        11.6670   16.9660   15.7300 C.3   225  VAL225      0.1561
     68  C         12.4560   15.7210   16.0840 C.2   225  VAL225      0.2260
     69  O         13.6710   15.6960   15.9360 O.2   225  VAL225     -0.2867
     70  CB        11.9140   17.3090   14.2480 C.3   225  VAL225      0.0252
     71  CG1       11.4170   16.1810   13.3390 C.3   225  VAL225      0.0019
     72  CG2       11.2370   18.6160   13.9170 C.3   225  VAL225      0.0019
     73  N         13.8730   13.6260    3.7510 N.3   279  ASP279     -0.1239
     74  CA        14.7180   13.6180    2.5680 C.3   279  ASP279      0.1674
     75  C         16.0270   12.8740    2.7850 C.2   279  ASP279      0.2266
     76  O         16.5100   12.7410    3.8990 O.2   279  ASP279     -0.2867
     77  CB        15.0690   15.0440    2.1240 C.3   279  ASP279      0.1410
     78  CG        13.9030   15.7710    1.4750 C.2   279  ASP279      0.3668
     79  OD1       12.9060   15.1140    1.0770 O.co2 279  ASP279     -0.2456
     80  OD2       13.9980   17.0160    1.3670 O.co2 279  ASP279     -0.2456
@<TRIPOS>BOND
     1    79    78   ar
     2    80    78   ar
     3    78    77    1
     4    77    74    1
     5    74    75    1
     6    74    73    1
     7    75    76    2
     8    59    58    1
     9    58    55    1
    10    55    54    1
    11    55    56    1
    12    54    50   am
    13    56    57    2
    14    40    38    1
    15    12    11    1
    16    50    49    1
    17    50    51    2
    18    53    52    1
    19    39    38    1
    20    32    31   ar
    21    44    43    2
    22    38    35    1
    23    49    52    1
    24    49    48    1
    25    33    31   ar
    26    11     9   ar
    27    11    10   ar
    28    31    30    1
    29     9     7   ar
    30    43    48   am
    31    43    42    1
    32    10     8   ar
    33    35    34    1
    34    35    36    1
    35    34    28   am
    36    36    37    2
    37    36    41   am
    38    30    27    1
    39     7     6   ar
    40    41    42    1
    41    41    47    1
    42    42    45    1
    43    47    46    1
    44     8     6   ar
    45    45    46    1
    46    28    27    1
    47    28    29    2
    48    16    15    2
    49     6     5    1
    50    26    27    1
    51    26    23   am
    52    22    23    1
    53    22    25    1
    54    22    21    1
    55    23    24    2
    56    15    21   am
    57    15    14    1
    58     5     2    1
    59    13    14    1
    60    14    17    1
    61    17    18    1
    62     2     1    1
    63     2     3    1
    64    20    18    1
    65    18    19    1
    66    71    70    1
    67    72    70    1
    68    70    67    1
    69     3     4    2
    70    60    61    1
    71    64    61    1
    72    64    65    1
    73    61    62    1
    74    67    68    1
    75    67    66    1
    76    69    68    2
    77    62    63    2
