@<TRIPOS>MOLECULE
tmp/2xyfA00.pdb
 120 111 0 0 0
SMALL
GASTEIGER

@<TRIPOS>ATOM
      1  N         26.7640   24.3260    5.7760 N.3     8  ARG8       -0.1245
      2  CA        25.5130   24.8940    6.2780 C.3     8  ARG8        0.1563
      3  C         25.8040   26.3040    6.7820 C.2     8  ARG8        0.2260
      4  O         26.7580   26.5250    7.5410 O.2     8  ARG8       -0.2867
      5  CB        24.9510   24.0390    7.4250 C.3     8  ARG8        0.0307
      6  CG        24.5320   22.6410    6.9970 C.3     8  ARG8        0.0489
      7  CD        24.3110   21.7620    8.2120 C.3     8  ARG8        0.2205
      8  NE        23.5600   20.5360    7.8640 N.pl3   8  ARG8       -0.0865
      9  CZ        23.3850   19.5160    8.6960 C.cat   8  ARG8        0.5346
     10  NH1       23.9130   19.5590    9.9160 N.pl3   8  ARG8        0.1354
     11  NH2       22.6560   18.4910    8.3260 N.pl3   8  ARG8        0.1354
     12  N         20.3430   28.3240   11.6240 N.3    23  LEU23      -0.1245
     13  CA        20.5870   28.1720   10.1990 C.3    23  LEU23       0.1561
     14  C         19.8870   29.2670    9.3900 C.2    23  LEU23       0.2260
     15  O         18.6840   29.4890    9.5560 O.2    23  LEU23      -0.2867
     16  CB        20.0840   26.7940    9.7650 C.3    23  LEU23       0.0270
     17  CG        20.3890   26.3090    8.3540 C.3    23  LEU23       0.0019
     18  CD1       21.8970   26.1270    8.1660 C.3    23  LEU23       0.0001
     19  CD2       19.6430   25.0010    8.1180 C.3    23  LEU23       0.0001
     20  N         18.0330   30.3120    6.5710 N.3    25  ASP25      -0.1239
     21  CA        17.2610   29.5640    5.5860 C.3    25  ASP25       0.1674
     22  C         16.3830   30.4030    4.6770 C.2    25  ASP25       0.2266
     23  O         15.3110   30.8430    5.0870 O.2    25  ASP25      -0.2867
     24  CB        16.3740   28.5450    6.2950 C.3    25  ASP25       0.1410
     25  CG        15.8810   27.4650    5.3670 C.2    25  ASP25       0.3668
     26  OD1       15.5700   27.7820    4.2020 O.co2  25  ASP25      -0.2456
     27  OD2       15.8020   26.2990    5.8050 O.co2  25  ASP25      -0.2456
     28  N         14.6280   29.4170    2.3020 N.3    27  GLY27      -0.1210
     29  CA        13.4030   28.7190    1.9530 C.3    27  GLY27       0.1956
     30  C         12.3910   28.6420    3.0790 C.2    27  GLY27       0.2612
     31  O         11.3260   28.0480    2.9170 O.2    27  GLY27      -0.2717
     32  N         12.7130   29.2470    4.2160 N.am   28  ALA28      -0.1965
     33  CA        11.8210   29.2280    5.3730 C.3    28  ALA28       0.1728
     34  C         10.9740   30.4910    5.4700 C.2    28  ALA28       0.2616
     35  O         11.5140   31.5920    5.4980 O.2    28  ALA28      -0.2715
     36  CB        12.6430   29.0630    6.6500 C.3    28  ALA28       0.0334
     37  N          9.6510   30.3270    5.5130 N.am   29  ASP29      -0.1957
     38  CA         8.7440   31.4690    5.6340 C.3    29  ASP29       0.1840
     39  C          8.9250   32.1110    7.0030 C.2    29  ASP29       0.2622
     40  O          8.9320   33.3400    7.1400 O.2    29  ASP29      -0.2715
     41  CB         7.2810   31.0210    5.5410 C.3    29  ASP29       0.1450
     42  CG         6.7820   30.8930    4.1190 C.2    29  ASP29       0.3671
     43  OD1        7.5760   31.0580    3.1730 O.co2  29  ASP29      -0.2456
     44  OD2        5.5730   30.6270    3.9550 O.co2  29  ASP29      -0.2456
     45  N          9.0700   31.2570    8.0140 N.am   30  ASP30      -0.1971
     46  CA         9.1940   31.6950    9.3980 C.3    30  ASP30       0.1709
     47  C         10.5140   31.3420   10.0710 C.2    30  ASP30       0.2293
     48  O         11.3150   30.5670    9.5440 O.2    30  ASP30      -0.2864
     49  CB         8.0670   31.0750   10.2270 C.3    30  ASP30       0.1436
     50  CG         6.7390   31.0870    9.5030 C.2    30  ASP30       0.3671
     51  OD1        6.3320   32.1710    9.0460 O.co2  30  ASP30      -0.2456
     52  OD2        6.1030   30.0150    9.3960 O.co2  30  ASP30      -0.2456
     53  N         11.9790   29.6010   13.3370 N.3    32  VAL32      -0.1245
     54  CA        11.5360   28.6760   14.3670 C.3    32  VAL32       0.1561
     55  C         12.7270   28.1540   15.1580 C.2    32  VAL32       0.2260
     56  O         13.7210   27.6930   14.5910 O.2    32  VAL32      -0.2867
     57  CB        10.7430   27.4960   13.7440 C.3    32  VAL32       0.0252
     58  CG1       11.6040   26.7300   12.7670 C.3    32  VAL32       0.0019
     59  CG2       10.2240   26.5800   14.8370 C.3    32  VAL32       0.0019
     60  N          2.9780   24.5360   11.6780 N.3    47  ILE47      -0.1231
     61  CA         3.8130   24.8340   10.5240 C.3    47  ILE47       0.1692
     62  C          4.2100   23.5440    9.8300 C.2    47  ILE47       0.2593
     63  O          4.4090   22.5100   10.4680 O.2    47  ILE47      -0.2718
     64  CB         5.0800   25.6500   10.9020 C.3    47  ILE47       0.0266
     65  CG1        5.9370   24.8810   11.9130 C.3    47  ILE47       0.0019
     66  CG2        4.6620   27.0220   11.4270 C.3    47  ILE47       0.0020
     67  CD1        5.3590   24.8110   13.2910 C.3    47  ILE47       0.0001
     68  N          4.3080   23.6080    8.5070 N.am   48  GLY48      -0.1942
     69  CA         4.6480   22.4220    7.7470 C.3    48  GLY48       0.2014
     70  C          5.9400   22.5260    6.9690 C.2    48  GLY48       0.2639
     71  O          6.3360   23.5970    6.5190 O.2    48  GLY48      -0.2714
     72  N          6.5930   21.3810    6.8290 N.am   49  GLY49      -0.1939
     73  CA         7.8380   21.2850    6.0980 C.3    49  GLY49       0.2014
     74  C          7.9420   19.8460    5.6440 C.2    49  GLY49       0.2638
     75  O          6.9390   19.1330    5.6250 O.2    49  GLY49      -0.2714
     76  N          9.1370   19.4110    5.2720 N.am   50  ILE50      -0.1977
     77  CA         9.3240   18.0350    4.8500 C.3    50  ILE50       0.1596
     78  C          8.9860   17.1690    6.0530 C.2    50  ILE50       0.2287
     79  O          9.4410   17.4460    7.1600 O.2    50  ILE50      -0.2864
     80  CB        10.7890   17.7580    4.4810 C.3    50  ILE50       0.0276
     81  CG1       11.2380   18.7140    3.3820 C.3    50  ILE50       0.0022
     82  CG2       10.9560   16.3050    4.0780 C.3    50  ILE50       0.0022
     83  CD1       10.5080   18.5560    2.0890 C.3    50  ILE50       0.0001
     84  N          4.2740   20.4720   12.6980 N.3    54  ILE54      -0.1245
     85  CA         4.5600   20.4440   14.1300 C.3    54  ILE54       0.1561
     86  C          3.8580   21.6590   14.7160 C.2    54  ILE54       0.2260
     87  O          3.6700   22.6620   14.0320 O.2    54  ILE54      -0.2867
     88  CB         6.0720   20.5460   14.4660 C.3    54  ILE54       0.0252
     89  CG1        6.6700   21.8020   13.8270 C.3    54  ILE54       0.0019
     90  CG2        6.7840   19.2800   14.0310 C.3    54  ILE54       0.0019
     91  CD1        8.0720   22.1280   14.3230 C.3    54  ILE54       0.0001
     92  N          8.8960   31.6190   16.1570 N.3    76  LEU76      -0.1245
     93  CA         8.0920   30.4550   16.4960 C.3    76  LEU76       0.1561
     94  C          8.9630   29.5600   17.3750 C.2    76  LEU76       0.2260
     95  O         10.1530   29.3860   17.1050 O.2    76  LEU76      -0.2867
     96  CB         7.6640   29.7150   15.2230 C.3    76  LEU76       0.0270
     97  CG         6.9600   30.5660   14.1540 C.3    76  LEU76       0.0019
     98  CD1        6.4860   29.6730   13.0190 C.3    76  LEU76       0.0001
     99  CD2        5.7800   31.3180   14.7680 C.3    76  LEU76       0.0001
    100  N         13.5640   20.2290   14.8690 N.3    81  PRO81      -0.2102
    101  CA        14.8190   19.4830   14.9460 C.3    81  PRO81       0.1504
    102  C         16.0510   20.3810   14.9050 C.2    81  PRO81       0.2576
    103  O         17.1390   19.9700   15.3120 O.2    81  PRO81      -0.2718
    104  CB        14.7280   18.5390   13.7520 C.3    81  PRO81       0.0282
    105  CG        13.8900   19.3000   12.7830 C.3    81  PRO81       0.0208
    106  CD        12.8120   19.8800   13.6540 C.3    81  PRO81       0.0893
    107  N         15.8830   21.6100   14.4260 N.am   82  THR82      -0.1953
    108  CA        17.0110   22.5380   14.3630 C.3    82  THR82       0.1897
    109  C         16.5400   23.9880   14.2830 C.2    82  THR82       0.2313
    110  O         15.4490   24.2700   13.7770 O.2    82  THR82      -0.2863
    111  CB        17.9180   22.2430   13.1440 C.3    82  THR82       0.1794
    112  OG1       19.2170   22.8080   13.3690 O.3    82  THR82      -0.2208
    113  CG2       17.3310   22.8390   11.8670 C.3    82  THR82       0.0378
    114  N         16.0760   27.5280   12.9080 N.3    84  VAL84      -0.1245
    115  CA        16.0350   28.0990   11.5700 C.3    84  VAL84       0.1561
    116  C         15.6940   29.5850   11.5870 C.2    84  VAL84       0.2260
    117  O         14.7450   29.9900   12.2560 O.2    84  VAL84      -0.2867
    118  CB        14.9680   27.3710   10.7150 C.3    84  VAL84       0.0252
    119  CG1       14.7980   28.0610    9.3710 C.3    84  VAL84       0.0019
    120  CG2       15.3710   25.9140   10.5220 C.3    84  VAL84       0.0019
@<TRIPOS>BOND
     1    29    28    1
     2    29    30    1
     3    83    81    1
     4    31    30    2
     5    30    32   am
     6    43    42   ar
     7    81    80    1
     8    44    42   ar
     9    82    80    1
    10    42    41    1
    11    26    25   ar
    12    32    33    1
    13    80    77    1
    14    22    23    2
    15    22    21    1
    16    77    76    1
    17    77    78    1
    18    76    74   am
    19    25    27   ar
    20    25    24    1
    21    33    34    1
    22    33    36    1
    23    34    35    2
    24    34    37   am
    25    37    38    1
    26    41    38    1
    27    21    24    1
    28    21    20    1
    29    75    74    2
    30    38    39    1
    31    74    73    1
    32     1     2    1
    33    78    79    2
    34    73    72    1
    35     2     3    1
    36     2     5    1
    37    71    70    2
    38     3     4    2
    39    72    70   am
    40    70    69    1
    41     6     5    1
    42     6     7    1
    43    39    40    2
    44    39    45   am
    45    69    68    1
    46     8     7    1
    47     8     9    2
    48    45    46    1
    49    19    17    1
    50    18    17    1
    51    11     9    1
    52    17    16    1
    53    68    62   am
    54     9    10    1
    55    51    50   ar
    56   119   118    1
    57    14    15    2
    58    14    13    1
    59    52    50   ar
    60    46    47    1
    61    46    49    1
    62    50    49    1
    63    48    47    2
    64    16    13    1
    65    62    63    2
    66    62    61    1
    67    13    12    1
    68   120   118    1
    69    61    64    1
    70    61    60    1
    71   118   115    1
    72    64    66    1
    73    64    65    1
    74   115   116    1
    75   115   114    1
    76   116   117    2
    77   113   111    1
    78    65    67    1
    79    84    85    1
    80    58    57    1
    81   105   106    1
    82   105   104    1
    83    98    97    1
    84   111   112    1
    85   111   108    1
    86    53    54    1
    87   106   100    1
    88    57    54    1
    89    57    59    1
    90   104   101    1
    91   110   109    2
    92    89    91    1
    93    89    88    1
    94    90    88    1
    95    87    86    2
    96    85    88    1
    97    85    86    1
    98    97    99    1
    99    97    96    1
   100   109   108    1
   101   108   107    1
   102    54    55    1
   103   107   102   am
   104    56    55    2
   105   100   101    1
   106   102   101    1
   107   102   103    2
   108    96    93    1
   109    92    93    1
   110    93    94    1
   111    95    94    2
