@<TRIPOS>MOLECULE
tmp/2xygA00.pdb
 77 74 0 0 0
SMALL
GASTEIGER

@<TRIPOS>ATOM
      1  N         27.5880   45.3160   27.2880 N.3    31  THR31      -0.1203
      2  CA        28.2320   44.6040   28.3830 C.3    31  THR31       0.1994
      3  C         29.7320   44.5830   28.1250 C.2    31  THR31       0.2618
      4  O         30.5230   44.3610   29.0370 O.2    31  THR31      -0.2717
      5  CB        27.7530   43.1450   28.4760 C.3    31  THR31       0.1784
      6  OG1       28.2350   42.4170   27.3400 O.3    31  THR31      -0.2211
      7  CG2       26.2330   43.0780   28.5070 C.3    31  THR31       0.0376
      8  N         30.1100   44.8080   26.8700 N.am   32  GLY32      -0.1942
      9  CA        31.5130   44.8030   26.5020 C.3    32  GLY32       0.2014
     10  C         32.0670   43.3910   26.4940 C.2    32  GLY32       0.2639
     11  O         33.2730   43.1890   26.3580 O.2    32  GLY32      -0.2714
     12  N         31.1780   42.4140   26.6400 N.am   33  MET33      -0.1963
     13  CA        31.5620   41.0070   26.6630 C.3    33  MET33       0.1736
     14  C         31.6700   40.4250   25.2600 C.2    33  MET33       0.2617
     15  O         30.8700   40.7490   24.3850 O.2    33  MET33      -0.2715
     16  CB        30.5330   40.1910   27.4520 C.3    33  MET33       0.0427
     17  CG        30.1050   40.8240   28.7630 C.3    33  MET33       0.0599
     18  SD        29.5380   39.6100   29.9690 S.3    33  MET33      -0.1393
     19  CE        27.7790   39.9390   29.9580 C.3    33  MET33       0.0692
     20  N         32.6600   39.5610   25.0500 N.am   34  THR34      -0.1951
     21  CA        32.8480   38.9170   23.7540 C.3    34  THR34       0.1897
     22  C         32.0910   37.5930   23.7540 C.2    34  THR34       0.2313
     23  O         31.6630   37.1190   24.8060 O.2    34  THR34      -0.2863
     24  CB        34.3360   38.6270   23.4710 C.3    34  THR34       0.1794
     25  OG1       34.8780   37.8340   24.5340 O.3    34  THR34      -0.2208
     26  CG2       35.1200   39.9210   23.3520 C.3    34  THR34       0.0378
     27  N         30.1510   33.5950   30.9200 N.3    93  HIS93      -0.1226
     28  CA        31.2470   34.4020   31.4200 C.3    93  HIS93       0.1752
     29  C         30.9360   34.5350   32.9020 C.2    93  HIS93       0.2597
     30  O         29.7960   34.3210   33.3210 O.2    93  HIS93      -0.2718
     31  CB        31.2250   35.7970   30.8000 C.3    93  HIS93       0.0759
     32  CG        31.7230   35.8490   29.3910 C.ar   93  HIS93       0.0818
     33  ND1       32.9630   35.3720   29.0230 N.ar   93  HIS93      -0.2268
     34  CD2       31.1770   36.3800   28.2730 C.ar   93  HIS93       0.1154
     35  CE1       33.1590   35.6080   27.7390 C.ar   93  HIS93       0.1986
     36  NE2       32.0900   36.2200   27.2600 N.ar   93  HIS93      -0.2212
     37  N         31.9320   34.8860   33.7020 N.am   94  GLY94      -0.1942
     38  CA        31.6620   35.0450   35.1160 C.3    94  GLY94       0.2014
     39  C         32.7660   35.7160   35.8990 C.2    94  GLY94       0.2638
     40  O         33.8190   36.0510   35.3550 O.2    94  GLY94      -0.2714
     41  N         32.4870   35.9320   37.1820 N.am   95  GLU95      -0.1977
     42  CA        33.4210   36.5210   38.1360 C.3    95  GLU95       0.1602
     43  C         33.1680   35.7450   39.4140 C.2    95  GLU95       0.2287
     44  O         32.2490   34.9340   39.4720 O.2    95  GLU95      -0.2864
     45  CB        33.1060   37.9870   38.4150 C.3    95  GLU95       0.0415
     46  CG        33.2040   38.9140   37.2450 C.3    95  GLU95       0.1163
     47  CD        33.2740   40.3490   37.7040 C.2    95  GLU95       0.3649
     48  OE1       34.3380   40.7440   38.2230 O.co2  95  GLU95      -0.2457
     49  OE2       32.2680   41.0730   37.5700 O.co2  95  GLU95      -0.2457
     50  N         27.1360   35.3490   34.1980 N.3   100  PHE100     -0.1241
     51  CA        26.5330   36.3730   33.3650 C.3   100  PHE100      0.1605
     52  C         25.3970   35.9960   32.4460 C.2   100  PHE100      0.2264
     53  O         25.4410   34.9890   31.7440 O.2   100  PHE100     -0.2867
     54  CB        27.6030   37.0880   32.5370 C.3   100  PHE100      0.0534
     55  CG        28.3500   38.1240   33.3080 C.ar  100  PHE100     -0.0203
     56  CD1       29.3970   37.7640   34.1450 C.ar  100  PHE100     -0.0042
     57  CD2       27.9480   39.4550   33.2690 C.ar  100  PHE100     -0.0042
     58  CE1       30.0290   38.7120   34.9380 C.ar  100  PHE100     -0.0003
     59  CE2       28.5740   40.4100   34.0590 C.ar  100  PHE100     -0.0003
     60  CZ        29.6120   40.0370   34.8940 C.ar  100  PHE100     -0.0000
     61  N         34.4250   31.8360   34.6190 N.3   135  CYS135     -0.1235
     62  CA        35.5610   32.3710   35.3550 C.3   135  CYS135      0.1677
     63  C         35.1120   32.7970   36.7410 C.2   135  CYS135      0.2270
     64  O         33.9450   33.1390   36.9500 O.2   135  CYS135     -0.2867
     65  CB        36.1620   33.5670   34.6070 C.3   135  CYS135      0.0956
     66  SG        36.7730   33.0510   33.0060 S.3   135  CYS135     -0.0801
     67  N         37.2730   34.8890   38.3740 N.3   137  GLY137     -0.1210
     68  CA        38.2580   35.9310   38.5690 C.3   137  GLY137      0.1956
     69  C         39.1760   35.9820   37.3660 C.2   137  GLY137      0.2612
     70  O         38.9140   35.3310   36.3540 O.2   137  GLY137     -0.2717
     71  N         40.2670   36.7280   37.5030 N.am  138  THR138     -0.1952
     72  CA        41.2300   36.9350   36.4260 C.3   138  THR138      0.1897
     73  C         42.5640   36.2110   36.5790 C.2   138  THR138      0.2313
     74  O         43.3690   36.1860   35.6430 O.2   138  THR138     -0.2863
     75  CB        41.5480   38.4340   36.3010 C.3   138  THR138      0.1794
     76  OG1       42.0590   38.9100   37.5530 O.3   138  THR138     -0.2208
     77  CG2       40.2980   39.2180   35.9710 C.3   138  THR138      0.0378
@<TRIPOS>BOND
     1    26    24    1
     2    24    21    1
     3    24    25    1
     4    22    21    1
     5    22    23    2
     6    21    20    1
     7    15    14    2
     8    20    14   am
     9    14    13    1
    10    11    10    2
    11    10     9    1
    12    10    12   am
    13     9     8    1
    14    12    13    1
    15    13    16    1
    16     8     3   am
    17    36    35   ar
    18    36    34   ar
    19     1     2    1
    20     6     5    1
    21    16    17    1
    22    35    33   ar
    23     3     2    1
    24     3     4    2
    25    34    32   ar
    26     2     5    1
    27     5     7    1
    28    17    18    1
    29    33    32   ar
    30    32    31    1
    31    19    18    1
    32    31    28    1
    33    27    28    1
    34    28    29    1
    35    53    52    2
    36    52    51    1
    37    54    55    1
    38    54    51    1
    39    29    30    2
    40    29    37   am
    41    66    65    1
    42    57    55   ar
    43    57    59   ar
    44    55    56   ar
    45    51    50    1
    46    37    38    1
    47    59    60   ar
    48    56    58   ar
    49    65    62    1
    50    61    62    1
    51    60    58   ar
    52    38    39    1
    53    62    63    1
    54    40    39    2
    55    74    73    2
    56    39    41   am
    57    77    75    1
    58    75    72    1
    59    75    76    1
    60    70    69    2
    61    72    73    1
    62    72    71    1
    63    63    64    2
    64    41    42    1
    65    46    47    1
    66    46    45    1
    67    69    71   am
    68    69    68    1
    69    49    47   ar
    70    47    48   ar
    71    42    45    1
    72    42    43    1
    73    67    68    1
    74    43    44    2
