@<TRIPOS>MOLECULE
tmp/2xyjB01.pdb
 90 89 0 0 0
SMALL
GASTEIGER

@<TRIPOS>ATOM
      1  N         12.1490   28.6900   39.7790 N.3    55  PRO55      -0.2103
      2  CA        12.9470   29.0420   40.9570 C.3    55  PRO55       0.1489
      3  C         13.4890   30.4660   40.7880 C.2    55  PRO55       0.2417
      4  O         13.9390   30.8480   39.7040 O.2    55  PRO55      -0.2734
      5  CB        14.0790   28.0170   40.9300 C.3    55  PRO55       0.0282
      6  CG        13.4750   26.8210   40.2480 C.3    55  PRO55       0.0208
      7  CD        12.5670   27.4040   39.1900 C.3    55  PRO55       0.0893
      8  N         13.3210   31.2860   41.8240 N.am   56  PRO56      -0.2729
      9  CA        13.7870   32.6710   41.7690 C.3    56  PRO56       0.1401
     10  C         15.2520   32.7160   42.1720 C.2    56  PRO56       0.2269
     11  O         15.7740   31.7380   42.7250 O.2    56  PRO56      -0.2865
     12  CB        12.9410   33.3550   42.8470 C.3    56  PRO56       0.0296
     13  CG        12.7060   32.2800   43.8680 C.3    56  PRO56       0.0237
     14  CD        12.6310   30.9810   43.0950 C.3    56  PRO56       0.0939
     15  N         18.0670   33.0050   40.4020 N.3    58  LYS58      -0.1245
     16  CA        18.8860   32.1000   39.6080 C.3    58  LYS58       0.1561
     17  C         19.6070   32.8990   38.5380 C.2    58  LYS58       0.2260
     18  O         19.0170   33.7420   37.8620 O.2    58  LYS58      -0.2867
     19  CB        18.0160   31.0040   38.9570 C.3    58  LYS58       0.0271
     20  CG        17.5620   29.8860   39.9030 C.3    58  LYS58       0.0035
     21  CD        18.6990   29.3960   40.7950 C.3    58  LYS58       0.0206
     22  CE        18.1840   28.5490   41.9530 C.3    58  LYS58       0.1093
     23  NZ        17.9530   29.3910   43.1650 N.3    58  LYS58      -0.1314
     24  N         16.3450   25.8650   33.9000 N.3    66  TYR66      -0.1241
     25  CA        15.1200   25.4780   34.6120 C.3    66  TYR66       0.1605
     26  C         13.8980   25.6190   33.7330 C.2    66  TYR66       0.2264
     27  O         12.9980   24.8060   33.8040 O.2    66  TYR66      -0.2867
     28  CB        14.9380   26.2700   35.8980 C.3    66  TYR66       0.0534
     29  CG        15.7430   25.7250   37.0520 C.ar   66  TYR66      -0.0201
     30  CD1       15.6560   24.3910   37.4120 C.ar   66  TYR66      -0.0009
     31  CD2       16.6260   26.5380   37.7520 C.ar   66  TYR66      -0.0009
     32  CE1       16.3940   23.8830   38.4830 C.ar   66  TYR66       0.0417
     33  CE2       17.3390   26.0550   38.8230 C.ar   66  TYR66       0.0417
     34  CZ        17.2330   24.7270   39.1780 C.ar   66  TYR66       0.1957
     35  OH        17.9780   24.2440   40.2180 O.3    66  TYR66      -0.2866
     36  N         13.9140   22.5020   31.5980 N.3    69  GLN69      -0.1231
     37  CA        13.5020   21.3790   32.4290 C.3    69  GLN69       0.1698
     38  C         11.9900   21.3380   32.5960 C.2    69  GLN69       0.2592
     39  O         11.4160   20.2700   32.8060 O.2    69  GLN69      -0.2718
     40  CB        14.1060   21.5350   33.8170 C.3    69  GLN69       0.0381
     41  CG        15.0400   20.4390   34.2370 C.3    69  GLN69       0.0905
     42  CD        15.3170   20.5020   35.7190 C.2    69  GLN69       0.2608
     43  OE1       14.3880   20.3900   36.5280 O.2    69  GLN69      -0.2717
     44  NE2       16.5260   20.9100   36.0700 N.am   69  GLN69      -0.0878
     45  N         11.3720   22.5160   32.6100 N.am   70  CYS70      -0.1970
     46  CA         9.9310   22.6070   32.7820 C.3    70  CYS70       0.1712
     47  C          9.2510   22.0690   31.5330 C.2    70  CYS70       0.2296
     48  O          8.3750   21.2290   31.6280 O.2    70  CYS70      -0.2864
     49  CB         9.4930   24.0400   33.0880 C.3    70  CYS70       0.0983
     50  SG         9.8080   24.5270   34.8230 S.3    70  CYS70      -0.0798
     51  N         24.5550   23.5660   43.1430 N.3   245  GLU245     -0.1245
     52  CA        23.6460   24.6660   43.4300 C.3   245  GLU245      0.1567
     53  C         22.3620   24.4660   42.6250 C.2   245  GLU245      0.2260
     54  O         21.3290   25.0770   42.9070 O.2   245  GLU245     -0.2867
     55  CB        24.3060   25.9590   42.9720 C.3   245  GLU245      0.0388
     56  CG        25.3190   25.7410   41.8370 C.3   245  GLU245      0.1160
     57  CD        26.6580   26.4160   42.0930 C.2   245  GLU245      0.3649
     58  OE1       26.6650   27.5430   42.6350 O.co2 245  GLU245     -0.2457
     59  OE2       27.7040   25.8300   41.7330 O.co2 245  GLU245     -0.2457
     60  N         19.4460   21.8320   40.5470 N.3   247  SER247     -0.1202
     61  CA        18.7420   20.6010   40.8580 C.3   247  SER247      0.2020
     62  C         17.8670   20.1020   39.7150 C.2   247  SER247      0.2619
     63  O         17.3420   20.8870   38.9360 O.2   247  SER247     -0.2717
     64  CB        17.8960   20.8030   42.1190 C.3   247  SER247      0.2103
     65  OG        17.2550   19.6030   42.4980 O.3   247  SER247     -0.2182
     66  N         17.6600   18.7900   39.6710 N.am  248  LEU248     -0.1965
     67  CA        16.8130   18.1690   38.6560 C.3   248  LEU248      0.1728
     68  C         15.4400   17.8070   39.2160 C.2   248  LEU248      0.2616
     69  O         15.3310   17.2630   40.3110 O.2   248  LEU248     -0.2715
     70  CB        17.4870   16.9060   38.1100 C.3   248  LEU248      0.0311
     71  CG        18.7690   17.0800   37.2790 C.3   248  LEU248      0.0022
     72  CD1       19.4860   15.7530   37.0740 C.3   248  LEU248      0.0001
     73  CD2       18.4540   17.7150   35.9490 C.3   248  LEU248      0.0001
     74  N         14.3900   18.1350   38.4710 N.am  249  HIS249     -0.1960
     75  CA        13.0450   17.7480   38.8560 C.3   249  HIS249      0.1772
     76  C         13.0910   16.2140   39.0600 C.2   249  HIS249      0.2462
     77  O         13.7140   15.5090   38.2750 O.2   249  HIS249     -0.2730
     78  CB        12.0620   18.1530   37.7260 C.3   249  HIS249      0.0785
     79  CG        10.7000   17.5450   37.8490 C.ar  249  HIS249      0.0821
     80  ND1       10.4910   16.1830   37.9210 N.ar  249  HIS249     -0.2267
     81  CD2        9.4730   18.1170   37.8980 C.ar  249  HIS249      0.1154
     82  CE1        9.1940   15.9450   38.0210 C.ar  249  HIS249      0.1986
     83  NE2        8.5540   17.1010   37.9920 N.ar  249  HIS249     -0.2212
     84  N         12.5250   15.7200   40.1620 N.am  250  PRO250     -0.2727
     85  CA        12.6300   14.2990   40.5140 C.3   250  PRO250      0.1402
     86  C         12.2780   13.2690   39.4190 C.2   250  PRO250      0.2269
     87  O         12.8150   12.1630   39.4120 O.2   250  PRO250     -0.2865
     88  CB        11.7100   14.1690   41.7280 C.3   250  PRO250      0.0296
     89  CG        10.6570   15.2130   41.5030 C.3   250  PRO250      0.0237
     90  CD        11.3620   16.3650   40.8130 C.3   250  PRO250      0.0939
@<TRIPOS>BOND
     1    47    48    2
     2    47    46    1
     3    36    37    1
     4    37    38    1
     5    37    40    1
     6    38    45   am
     7    38    39    2
     8    45    46    1
     9    46    49    1
    10    49    50    1
    11    26    27    2
    12    26    25    1
    13    40    41    1
    14    24    25    1
    15    41    42    1
    16    25    28    1
    17    42    44   am
    18    42    43    2
    19    28    29    1
    20    73    71    1
    21    29    30   ar
    22    29    31   ar
    23    72    71    1
    24    71    70    1
    25    30    32   ar
    26    78    79    1
    27    78    75    1
    28    31    33   ar
    29    79    81   ar
    30    79    80   ar
    31    18    17    2
    32    81    83   ar
    33    80    82   ar
    34    83    82   ar
    35    70    67    1
    36    77    76    2
    37    74    75    1
    38    74    68   am
    39    32    34   ar
    40    17    16    1
    41    67    68    1
    42    67    66    1
    43    33    34   ar
    44    75    76    1
    45    63    62    2
    46    19    16    1
    47    19    20    1
    48    76    84   am
    49    34    35    1
    50     7     1    1
    51     7     6    1
    52    68    69    2
    53    87    86    2
    54    86    85    1
    55    16    15    1
    56    66    62   am
    57     4     3    2
    58    62    61    1
    59     1     2    1
    60    20    21    1
    61    84    85    1
    62    84    90    1
    63     6     5    1
    64    85    88    1
    65    60    61    1
    66     3     2    1
    67     3     8   am
    68    21    22    1
    69    90    89    1
    70    61    64    1
    71     5     2    1
    72    89    88    1
    73    59    57   ar
    74     9     8    1
    75     9    10    1
    76     9    12    1
    77     8    14    1
    78    56    57    1
    79    56    55    1
    80    22    23    1
    81    57    58   ar
    82    64    65    1
    83    10    11    2
    84    53    54    2
    85    53    52    1
    86    12    13    1
    87    55    52    1
    88    14    13    1
    89    51    52    1
