@<TRIPOS>MOLECULE
tmp/2xyjB00.pdb
 107 98 0 0 0
SMALL
GASTEIGER

@<TRIPOS>ATOM
      1  N          7.3550   14.9550   28.5330 N.3    76  VAL76      -0.1245
      2  CA         7.4470   13.5860   29.0200 C.3    76  VAL76       0.1561
      3  C          6.0480   13.1000   29.4110 C.2    76  VAL76       0.2260
      4  O          5.6440   11.9800   29.0540 O.2    76  VAL76      -0.2867
      5  CB         8.4000   13.4460   30.2250 C.3    76  VAL76       0.0252
      6  CG1        8.1320   12.1470   30.9740 C.3    76  VAL76       0.0019
      7  CG2        9.8660   13.5160   29.7860 C.3    76  VAL76       0.0019
      8  N          3.7210   10.1420   27.6440 N.3    80  THR80      -0.1218
      9  CA         3.2010    9.0570   28.4560 C.3    80  THR80       0.1862
     10  C          1.7400    8.8320   28.0730 C.2    80  THR80       0.2287
     11  O          1.2830    7.6910   28.0090 O.2    80  THR80      -0.2866
     12  CB         3.3030    9.4060   29.9560 C.3    80  THR80       0.1770
     13  OG1        4.6860    9.4380   30.3400 O.3    80  THR80      -0.2211
     14  CG2        2.5720    8.3670   30.8010 C.3    80  THR80       0.0375
     15  N          0.0330    5.6590   25.7420 N.3    84  LYS84      -0.1245
     16  CA        -1.1690    4.9810   26.2050 C.3    84  LYS84       0.1561
     17  C         -2.1800    4.7790   25.0820 C.2    84  LYS84       0.2260
     18  O         -2.9640    3.8320   25.1030 O.2    84  LYS84      -0.2867
     19  CB        -1.7840    5.7200   27.3910 C.3    84  LYS84       0.0271
     20  CG        -1.0970    5.3910   28.7100 C.3    84  LYS84       0.0035
     21  CD        -1.9530    5.7980   29.8920 C.3    84  LYS84       0.0206
     22  CE        -1.7290    7.2540   30.2580 C.3    84  LYS84       0.1093
     23  NZ        -2.3940    7.6060   31.5430 N.3    84  LYS84      -0.1314
     24  N          0.0390   -1.1550   23.7810 N.3    89  PHE89      -0.1241
     25  CA         1.0500   -0.6200   24.6820 C.3    89  PHE89       0.1605
     26  C          0.5680   -0.8050   26.1180 C.2    89  PHE89       0.2264
     27  O          1.2850   -1.3510   26.9500 O.2    89  PHE89      -0.2867
     28  CB         1.3430    0.8510   24.4010 C.3    89  PHE89       0.0534
     29  CG         2.2590    1.4780   25.4120 C.ar   89  PHE89      -0.0203
     30  CD1        1.7490    2.0280   26.5820 C.ar   89  PHE89      -0.0042
     31  CD2        3.6320    1.4120   25.2530 C.ar   89  PHE89      -0.0042
     32  CE1        2.5870    2.5610   27.5370 C.ar   89  PHE89      -0.0003
     33  CE2        4.4780    1.9520   26.1980 C.ar   89  PHE89      -0.0003
     34  CZ         3.9560    2.5230   27.3470 C.ar   89  PHE89      -0.0000
     35  N          3.2720   -3.5070   33.3530 N.3    94  LEU94      -0.1245
     36  CA         3.5490   -2.1500   33.8180 C.3    94  LEU94       0.1561
     37  C          5.0520   -1.8280   33.8370 C.2    94  LEU94       0.2260
     38  O          5.4540   -0.7560   33.4260 O.2    94  LEU94      -0.2867
     39  CB         2.8960   -1.9160   35.1830 C.3    94  LEU94       0.0270
     40  CG         2.8110   -0.4850   35.7100 C.3    94  LEU94       0.0019
     41  CD1        2.3890    0.4780   34.6160 C.3    94  LEU94       0.0001
     42  CD2        1.8460   -0.4150   36.8910 C.3    94  LEU94       0.0001
     43  N          6.1470   -1.0500   30.3110 N.3    97  GLN97      -0.1231
     44  CA         5.6570    0.2610   29.9030 C.3    97  GLN97       0.1698
     45  C          6.5320    1.3810   30.4890 C.2    97  GLN97       0.2592
     46  O          6.7900    2.4010   29.8360 O.2    97  GLN97      -0.2718
     47  CB         4.2190    0.4780   30.3880 C.3    97  GLN97       0.0381
     48  CG         3.2420   -0.6480   30.0830 C.3    97  GLN97       0.0905
     49  CD         1.8420   -0.2870   30.5270 C.2    97  GLN97       0.2608
     50  OE1        1.0190   -1.1500   30.8160 O.2    97  GLN97      -0.2717
     51  NE2        1.6060    0.9980   30.6950 N.am   97  GLN97      -0.0878
     52  N          6.9430    1.2070   31.7390 N.am   98  VAL98      -0.1980
     53  CA         7.7820    2.1920   32.4060 C.3    98  VAL98       0.1595
     54  C          9.1820    2.1810   31.8090 C.2    98  VAL98       0.2287
     55  O          9.7420    3.2270   31.5020 O.2    98  VAL98      -0.2864
     56  CB         7.8380    1.9390   33.9230 C.3    98  VAL98       0.0276
     57  CG1        8.8740    2.8540   34.5830 C.3    98  VAL98       0.0022
     58  CG2        6.4480    2.1470   34.5420 C.3    98  VAL98       0.0022
     59  N          9.0910    3.9140   28.4390 N.3   101  LEU101     -0.1231
     60  CA         8.9960    5.3700   28.4900 C.3   101  LEU101      0.1693
     61  C         10.2840    5.9750   29.0330 C.2   101  LEU101      0.2591
     62  O         10.8060    6.9440   28.4960 O.2   101  LEU101     -0.2718
     63  CB         7.7920    5.8110   29.3200 C.3   101  LEU101      0.0284
     64  CG         6.4640    5.5560   28.6010 C.3   101  LEU101      0.0019
     65  CD1        5.3240    5.4450   29.6150 C.3   101  LEU101      0.0001
     66  CD2        6.1800    6.6520   27.5820 C.3   101  LEU101      0.0001
     67  N         10.8080    5.3550   30.0800 N.am  102  LYS102     -0.1980
     68  CA        12.0310    5.8200   30.7140 C.3   102  LYS102      0.1596
     69  C         13.1960    5.9120   29.7170 C.2   102  LYS102      0.2287
     70  O         13.8910    6.9230   29.6550 O.2   102  LYS102     -0.2864
     71  CB        12.3800    4.9280   31.9040 C.3   102  LYS102      0.0298
     72  CG        13.8700    4.8460   32.2090 C.3   102  LYS102      0.0038
     73  CD        14.1300    3.9900   33.4350 C.3   102  LYS102      0.0206
     74  CE        15.4350    4.3670   34.1090 C.3   102  LYS102      0.1093
     75  NZ        15.1910    5.1510   35.3500 N.3   102  LYS102     -0.1314
     76  N         11.5120    8.2680   26.0280 N.3   105  VAL105     -0.1245
     77  CA        10.9940    9.6500   25.9800 C.3   105  VAL105      0.1561
     78  C         11.9680   10.6990   25.4460 C.2   105  VAL105      0.2260
     79  O         11.5770   11.5590   24.6760 O.2   105  VAL105     -0.2867
     80  CB        10.3120   10.1440   27.3020 C.3   105  VAL105      0.0252
     81  CG1        9.0770    9.3180   27.6390 C.3   105  VAL105      0.0019
     82  CG2       11.2950   10.1830   28.4720 C.3   105  VAL105      0.0019
     83  N         11.4030   13.6320   38.4910 N.3   251  LEU251     -0.1245
     84  CA        11.0480   12.7240   37.3990 C.3   251  LEU251      0.1561
     85  C         12.2420   12.6010   36.4410 C.2   251  LEU251      0.2260
     86  O         12.5770   11.5040   35.9660 O.2   251  LEU251     -0.2867
     87  CB         9.8350   13.2650   36.6460 C.3   251  LEU251      0.0270
     88  CG         9.3850   12.5640   35.3620 C.3   251  LEU251      0.0019
     89  CD1        8.7840   11.1730   35.6220 C.3   251  LEU251      0.0001
     90  CD2        8.3690   13.4330   34.6530 C.3   251  LEU251      0.0001
     91  N         15.1300   10.5090   38.0230 N.3   254  GLU254     -0.1231
     92  CA        14.9040    9.0720   37.9410 C.3   254  GLU254      0.1699
     93  C         15.3410    8.5510   36.5710 C.2   254  GLU254      0.2592
     94  O         16.1230    7.5990   36.4680 O.2   254  GLU254     -0.2718
     95  CB        13.4290    8.7390   38.1990 C.3   254  GLU254      0.0402
     96  CG        13.0270    8.6770   39.6710 C.3   254  GLU254      0.1161
     97  CD        13.9180    7.7610   40.4980 C.2   254  GLU254      0.3649
     98  OE1       15.0100    8.1990   40.9180 O.co2 254  GLU254     -0.2457
     99  OE2       13.4990    6.6200   40.7780 O.co2 254  GLU254     -0.2457
    100  N         14.8500    9.2030   35.5210 N.am  255  ILE255     -0.1980
    101  CA        15.1680    8.8180   34.1480 C.3   255  ILE255      0.1595
    102  C         16.6530    8.8030   33.8200 C.2   255  ILE255      0.2287
    103  O         17.1620    7.8370   33.2620 O.2   255  ILE255     -0.2864
    104  CB        14.4740    9.7370   33.1220 C.3   255  ILE255      0.0276
    105  CG1       12.9570    9.6460   33.2640 C.3   255  ILE255      0.0022
    106  CG2       14.9330    9.3960   31.7170 C.3   255  ILE255      0.0022
    107  CD1       12.2170   10.7640   32.5540 C.3   255  ILE255      0.0001
@<TRIPOS>BOND
     1    24    25    1
     2    28    25    1
     3    28    29    1
     4    79    78    2
     5    25    26    1
     6    17    18    2
     7    17    16    1
     8    31    29   ar
     9    31    33   ar
    10    29    30   ar
    11    78    77    1
    12    15    16    1
    13    77    76    1
    14    77    80    1
    15    26    27    2
    16    33    34   ar
    17    16    19    1
    18    30    32   ar
    19    80    81    1
    20    80    82    1
    21    34    32   ar
    22    19    20    1
    23    66    64    1
    24     8     9    1
    25    11    10    2
    26    10     9    1
    27    59    60    1
    28     9    12    1
    29    60    61    1
    30    60    63    1
    31    62    61    2
    32     1     2    1
    33    64    63    1
    34    64    65    1
    35    20    21    1
    36     2     3    1
    37     2     5    1
    38    61    67   am
    39     4     3    2
    40    70    69    2
    41    69    68    1
    42     7     5    1
    43    46    45    2
    44    21    22    1
    45    44    43    1
    46    44    47    1
    47    44    45    1
    48    12    13    1
    49    12    14    1
    50    67    68    1
    51    48    47    1
    52    48    49    1
    53     5     6    1
    54    22    23    1
    55    45    52   am
    56    49    51   am
    57    49    50    2
    58    68    71    1
    59    55    54    2
    60   106   104    1
    61    52    53    1
    62    54    53    1
    63    71    72    1
    64    72    73    1
    65    53    56    1
    66   107   105    1
    67   104   105    1
    68   104   101    1
    69   103   102    2
    70    35    36    1
    71    38    37    2
    72    73    74    1
    73    36    37    1
    74    36    39    1
    75   102   101    1
    76    56    58    1
    77    56    57    1
    78    74    75    1
    79   101   100    1
    80    41    40    1
    81    90    88    1
    82    39    40    1
    83    88    89    1
    84    88    87    1
    85   100    93   am
    86    40    42    1
    87    86    85    2
    88    85    84    1
    89    94    93    2
    90    93    92    1
    91    87    84    1
    92    84    83    1
    93    92    91    1
    94    92    95    1
    95    95    96    1
    96    96    97    1
    97    97    99   ar
    98    97    98   ar
