@<TRIPOS>MOLECULE
tmp/2xykB00.pdb
 247 240 0 0 0
SMALL
GASTEIGER

@<TRIPOS>ATOM
      1  N        -13.9520    9.0230   21.3510 N.3    26  TYR26      -0.1241
      2  CA       -15.2480    9.7190   21.5830 C.3    26  TYR26       0.1605
      3  C        -15.6260    9.7020   23.0310 C.2    26  TYR26       0.2264
      4  O        -16.1540   10.6810   23.5530 O.2    26  TYR26      -0.2867
      5  CB       -16.3890    9.1230   20.7200 C.3    26  TYR26       0.0534
      6  CG       -16.2720    9.5870   19.3020 C.ar   26  TYR26      -0.0201
      7  CD1      -16.5840   10.9070   18.9620 C.ar   26  TYR26      -0.0009
      8  CD2      -15.7710    8.7380   18.2980 C.ar   26  TYR26      -0.0009
      9  CE1      -16.4440   11.3790   17.6600 C.ar   26  TYR26       0.0417
     10  CE2      -15.6190    9.2010   16.9760 C.ar   26  TYR26       0.0417
     11  CZ       -15.9560   10.5320   16.6710 C.ar   26  TYR26       0.1957
     12  OH       -15.8350   11.0220   15.3830 O.3    26  TYR26      -0.2866
     13  N        -14.3870   21.1970   21.5630 N.3    38  CYS38      -0.1235
     14  CA       -14.5780   20.1470   20.5570 C.3    38  CYS38       0.1677
     15  C        -15.9130   19.3670   20.8140 C.2    38  CYS38       0.2270
     16  O        -16.7030   19.0900   19.8860 O.2    38  CYS38      -0.2867
     17  CB       -13.3620   19.1830   20.5840 C.3    38  CYS38       0.0956
     18  SG       -13.3780   17.7790   19.4160 S.3    38  CYS38      -0.0801
     19  N        -19.4970   21.0620   19.6990 N.3    41  ILE41      -0.1231
     20  CA       -19.8650   21.1280   18.2860 C.3    41  ILE41       0.1692
     21  C        -20.2370   19.7690   17.6560 C.2    41  ILE41       0.2592
     22  O        -20.6540   19.7180   16.4950 O.2    41  ILE41      -0.2718
     23  CB       -18.7360   21.8030   17.4250 C.3    41  ILE41       0.0266
     24  CG1      -17.4090   21.0250   17.5500 C.3    41  ILE41       0.0019
     25  CG2      -18.6020   23.3340   17.7980 C.3    41  ILE41       0.0020
     26  CD1      -16.4140   21.2710   16.3860 C.3    41  ILE41       0.0001
     27  N        -20.0600   18.6790   18.4180 N.am   42  HIS42      -0.1962
     28  CA       -20.4270   17.3540   17.9550 C.3    42  HIS42       0.1772
     29  C        -21.8600   17.0880   18.3960 C.2    42  HIS42       0.2462
     30  O        -22.3490   17.7110   19.3480 O.2    42  HIS42      -0.2730
     31  CB       -19.4870   16.2840   18.5440 C.3    42  HIS42       0.0785
     32  CG       -18.1700   16.1790   17.8380 C.ar   42  HIS42       0.0821
     33  ND1      -17.9050   15.2110   16.8880 N.ar   42  HIS42      -0.2267
     34  CD2      -17.0460   16.9310   17.9320 C.ar   42  HIS42       0.1154
     35  CE1      -16.6670   15.3590   16.4370 C.ar   42  HIS42       0.1986
     36  NE2      -16.1200   16.3890   17.0630 N.ar   42  HIS42      -0.2212
     37  N        -22.5500   16.1880   17.6840 N.am   43  PRO43      -0.2727
     38  CA       -23.9390   15.9020   18.0440 C.3    43  PRO43       0.1402
     39  C        -24.0870   15.4420   19.4980 C.2    43  PRO43       0.2269
     40  O        -23.1630   14.8830   20.0640 O.2    43  PRO43      -0.2865
     41  CB       -24.3290   14.7920   17.0680 C.3    43  PRO43       0.0296
     42  CG       -23.4450   15.0270   15.8590 C.3    43  PRO43       0.0237
     43  CD       -22.1130   15.4080   16.5010 C.3    43  PRO43       0.0939
     44  N        -23.3470    8.0370   15.7950 N.3    48  GLY48      -0.1210
     45  CA       -23.1670    8.2310   14.3370 C.3    48  GLY48       0.1956
     46  C        -21.8020    8.8110   13.9410 C.2    48  GLY48       0.2612
     47  O        -21.2250    8.4490   12.9090 O.2    48  GLY48      -0.2717
     48  N        -21.2680    9.7200   14.7560 N.am   49  SER49      -0.1952
     49  CA       -19.9120   10.2530   14.5200 C.3    49  SER49       0.1924
     50  C        -18.8710    9.1450   14.5760 C.2    49  SER49       0.2314
     51  O        -17.9380    9.0930   13.7710 O.2    49  SER49      -0.2863
     52  CB       -19.5400   11.2850   15.5810 C.3    49  SER49       0.2116
     53  OG       -20.3730   12.4050   15.4750 O.3    49  SER49      -0.2180
     54  N        -18.9050    6.6030   11.5130 N.3    52  LYS52      -0.1231
     55  CA       -18.1970    7.2400   10.3840 C.3    52  LYS52       0.1693
     56  C        -16.6800    7.3470   10.5840 C.2    52  LYS52       0.2592
     57  O        -15.9230    7.1030    9.6550 O.2    52  LYS52      -0.2718
     58  CB       -18.7840    8.6110   10.0720 C.3    52  LYS52       0.0285
     59  CG       -20.2280    8.5850    9.5760 C.3    52  LYS52       0.0035
     60  CD       -20.5810    9.8940    8.8890 C.3    52  LYS52       0.0206
     61  CE       -22.0960    9.9990    8.6780 C.3    52  LYS52       0.1093
     62  NZ       -22.4880   10.9440    7.5860 N.3    52  LYS52      -0.1314
     63  N        -16.2310    7.7420   11.7770 N.am   53  PHE53      -0.1976
     64  CA       -14.7990    7.8100   12.0390 C.3    53  PHE53       0.1639
     65  C        -14.1750    6.4170   11.9940 C.2    53  PHE53       0.2290
     66  O        -13.0760    6.2260   11.4690 O.2    53  PHE53      -0.2864
     67  CB       -14.5130    8.5260   13.3750 C.3    53  PHE53       0.0560
     68  CG       -13.0920    9.0290   13.5070 C.ar   53  PHE53      -0.0200
     69  CD1      -12.4430    9.6560   12.4200 C.ar   53  PHE53      -0.0042
     70  CD2      -12.4000    8.8750   14.7050 C.ar   53  PHE53      -0.0042
     71  CE1      -11.1270   10.1030   12.5340 C.ar   53  PHE53      -0.0003
     72  CE2      -11.0810    9.3360   14.8300 C.ar   53  PHE53      -0.0003
     73  CZ       -10.4490    9.9460   13.7530 C.ar   53  PHE53      -0.0000
     74  N        -13.9220    5.5940    8.4900 N.3    56  TYR56      -0.1227
     75  CA       -12.8830    6.4140    7.8710 C.3    56  TYR56       0.1736
     76  C        -11.4660    5.9030    8.1680 C.2    56  TYR56       0.2595
     77  O        -10.6480    5.8020    7.2570 O.2    56  TYR56      -0.2718
     78  CB       -12.9720    7.8820    8.2960 C.3    56  TYR56       0.0548
     79  CG       -11.7960    8.6400    7.7610 C.ar   56  TYR56      -0.0200
     80  CD1      -11.7720    9.0660    6.4190 C.ar   56  TYR56      -0.0009
     81  CD2      -10.6650    8.8540    8.5440 C.ar   56  TYR56      -0.0009
     82  CE1      -10.6720    9.7290    5.9120 C.ar   56  TYR56       0.0417
     83  CE2       -9.5650    9.5190    8.0340 C.ar   56  TYR56       0.0417
     84  CZ        -9.5770    9.9480    6.7240 C.ar   56  TYR56       0.1957
     85  OH        -8.4870   10.6090    6.2220 O.3    56  TYR56      -0.2866
     86  N        -11.1520    5.6760    9.4440 N.am   57  LEU57      -0.1980
     87  CA        -9.8270    5.1290    9.8050 C.3    57  LEU57       0.1596
     88  C         -9.6050    3.7560    9.1950 C.2    57  LEU57       0.2287
     89  O         -8.5390    3.4760    8.7070 O.2    57  LEU57      -0.2864
     90  CB        -9.6410    5.0780   11.3190 C.3    57  LEU57       0.0297
     91  CG        -9.5110    6.4510   11.9880 C.3    57  LEU57       0.0022
     92  CD1       -9.4640    6.3190   13.5090 C.3    57  LEU57       0.0001
     93  CD2       -8.2700    7.2080   11.4610 C.3    57  LEU57       0.0001
     94  N         -8.5490    4.5710    5.6390 N.3    60  TYR60      -0.1241
     95  CA        -7.3630    5.4260    5.6470 C.3    60  TYR60       0.1605
     96  C         -6.0610    4.6770    5.9860 C.2    60  TYR60       0.2264
     97  O         -4.9920    4.9040    5.3790 O.2    60  TYR60      -0.2867
     98  CB        -7.5900    6.5380    6.6530 C.3    60  TYR60       0.0534
     99  CG        -6.3830    7.4160    6.8880 C.ar   60  TYR60      -0.0201
    100  CD1       -5.8640    8.2120    5.8610 C.ar   60  TYR60      -0.0009
    101  CD2       -5.7690    7.4530    8.1360 C.ar   60  TYR60      -0.0009
    102  CE1       -4.7580    9.0150    6.0810 C.ar   60  TYR60       0.0417
    103  CE2       -4.6560    8.2480    8.3680 C.ar   60  TYR60       0.0417
    104  CZ        -4.1560    9.0220    7.3440 C.ar   60  TYR60       0.1957
    105  OH        -3.0680    9.8220    7.5890 O.3    60  TYR60      -0.2866
    106  N        -15.5140    3.6330    4.4420 N.3    67  TYR67      -0.1241
    107  CA       -16.0060    5.0240    4.4180 C.3    67  TYR67       0.1605
    108  C        -16.2350    5.5360    2.9620 C.2    67  TYR67       0.2264
    109  O        -17.2940    6.0920    2.6370 O.2    67  TYR67      -0.2867
    110  CB       -15.0790    5.9950    5.1670 C.3    67  TYR67       0.0534
    111  CG       -15.6240    7.4140    5.1440 C.ar   67  TYR67      -0.0201
    112  CD1      -15.3990    8.2440    4.0350 C.ar   67  TYR67      -0.0009
    113  CD2      -16.3970    7.9200    6.2130 C.ar   67  TYR67      -0.0009
    114  CE1      -15.9040    9.5360    3.9890 C.ar   67  TYR67       0.0417
    115  CE2      -16.9190    9.2340    6.1750 C.ar   67  TYR67       0.0417
    116  CZ       -16.6580   10.0260    5.0400 C.ar   67  TYR67       0.1957
    117  OH       -17.1530   11.3080    4.9310 O.3    67  TYR67      -0.2866
    118  N        -19.7860    6.8500    1.3800 N.3    71  HIS71      -0.1241
    119  CA       -19.9750    8.3240    1.4240 C.3    71  HIS71       0.1621
    120  C        -19.3100    9.0800    0.2480 C.2    71  HIS71       0.2264
    121  O        -19.5350   10.2730    0.0410 O.2    71  HIS71      -0.2867
    122  CB       -19.4810    8.8830    2.7690 C.3    71  HIS71       0.0745
    123  CG       -20.0980    8.2180    3.9650 C.ar   71  HIS71       0.0817
    124  ND1      -21.4580    8.2290    4.2090 N.ar   71  HIS71      -0.2268
    125  CD2      -19.5450    7.4830    4.9550 C.ar   71  HIS71       0.1154
    126  CE1      -21.7100    7.5440    5.3100 C.ar   71  HIS71       0.1986
    127  NE2      -20.5630    7.0930    5.7910 N.ar   71  HIS71      -0.2212
    128  N        -12.2540   16.0430    3.2320 N.3    76  LEU76      -0.1245
    129  CA       -12.4650   16.3120    4.6520 C.3    76  LEU76       0.1561
    130  C        -12.6190   17.7750    4.9940 C.2    76  LEU76       0.2260
    131  O        -13.5260   18.1360    5.7390 O.2    76  LEU76      -0.2867
    132  CB       -11.4060   15.6400    5.5330 C.3    76  LEU76       0.0270
    133  CG       -11.5010   14.1120    5.6710 C.3    76  LEU76       0.0019
    134  CD1      -10.4990   13.6790    6.7150 C.3    76  LEU76       0.0001
    135  CD2      -12.9200   13.6470    6.0280 C.3    76  LEU76       0.0001
    136  N        -16.1360   18.9120    4.1920 N.3    79  ARG79      -0.1231
    137  CA       -17.1330   18.3280    5.0930 C.3    79  ARG79       0.1694
    138  C        -17.1140   19.0300    6.4630 C.2    79  ARG79       0.2592
    139  O        -18.1540   19.2030    7.1150 O.2    79  ARG79      -0.2718
    140  CB       -16.9070   16.8070    5.2510 C.3    79  ARG79       0.0321
    141  CG       -17.2120   15.9950    3.9770 C.3    79  ARG79       0.0489
    142  CD       -17.2400   14.4640    4.2730 C.3    79  ARG79       0.2205
    143  NE       -17.1570   13.6460    3.0530 N.pl3  79  ARG79      -0.0865
    144  CZ       -18.1930   13.0630    2.4520 C.cat  79  ARG79       0.5346
    145  NH1      -19.4290   13.1820    2.9340 N.pl3  79  ARG79       0.1354
    146  NH2      -18.0010   12.3680    1.3460 N.pl3  79  ARG79       0.1354
    147  N        -15.9160   19.4210    6.9000 N.am   80  HIS80      -0.1976
    148  CA       -15.7700   20.1170    8.1800 C.3    80  HIS80       0.1656
    149  C        -16.2240   21.5790    8.2080 C.2    80  HIS80       0.2291
    150  O        -16.3410   22.1520    9.2920 O.2    80  HIS80      -0.2864
    151  CB       -14.3430   19.9690    8.6880 C.3    80  HIS80       0.0771
    152  CG       -14.0600   18.6110    9.2260 C.ar   80  HIS80       0.0820
    153  ND1      -13.7240   17.5470    8.4170 N.ar   80  HIS80      -0.2267
    154  CD2      -14.0650   18.1380   10.4980 C.ar   80  HIS80       0.1154
    155  CE1      -13.5420   16.4720    9.1700 C.ar   80  HIS80       0.1986
    156  NE2      -13.7510   16.8040   10.4340 N.ar   80  HIS80      -0.2212
    157  N        -19.0960   22.4620    8.0440 N.3    82  VAL82      -0.1231
    158  CA       -20.4060   22.4700    8.6910 C.3    82  VAL82       0.1692
    159  C        -20.2910   22.7000   10.2080 C.2    82  VAL82       0.2591
    160  O        -21.3130   22.8330   10.8960 O.2    82  VAL82      -0.2718
    161  CB       -21.2080   21.1560    8.4280 C.3    82  VAL82       0.0266
    162  CG1      -21.6040   21.0340    6.9480 C.3    82  VAL82       0.0020
    163  CG2      -20.4380   19.9320    8.9470 C.3    82  VAL82       0.0020
    164  N        -19.0550   22.7170   10.7200 N.am   83  ALA83      -0.1980
    165  CA       -18.8240   23.0330   12.1280 C.3    83  ALA83       0.1597
    166  C        -17.8850   24.2360   12.3180 C.2    83  ALA83       0.2287
    167  O        -16.9800   24.4770   11.5190 O.2    83  ALA83      -0.2864
    168  CB       -18.3070   21.8080   12.8790 C.3    83  ALA83       0.0319
    169  N        -14.8430   25.4810   13.5220 N.3    85  ILE85      -0.1245
    170  CA       -13.6290   24.9230   14.1240 C.3    85  ILE85       0.1561
    171  C        -12.5070   25.9510   14.3140 C.2    85  ILE85       0.2260
    172  O        -11.7950   26.2650   13.3630 O.2    85  ILE85      -0.2867
    173  CB       -13.1040   23.7190   13.3240 C.3    85  ILE85       0.0252
    174  CG1      -14.2220   22.6700   13.1350 C.3    85  ILE85       0.0019
    175  CG2      -11.8080   23.1370   13.9900 C.3    85  ILE85       0.0019
    176  CD1      -13.8180   21.4990   12.2340 C.3    85  ILE85       0.0001
    177  N        -11.0880   23.9990   19.4450 N.3    89  GLU89      -0.1231
    178  CA       -11.7540   22.7900   18.9190 C.3    89  GLU89       0.1699
    179  C        -10.6940   21.8700   18.3250 C.2    89  GLU89       0.2592
    180  O        -10.7290   20.6520   18.5590 O.2    89  GLU89      -0.2718
    181  CB       -12.8110   23.1390   17.8460 C.3    89  GLU89       0.0402
    182  CG       -14.0600   23.8980   18.3240 C.3    89  GLU89       0.1161
    183  CD       -13.8070   25.3730   18.7370 C.2    89  GLU89       0.3649
    184  OE1      -12.8600   26.0100   18.2250 O.co2  89  GLU89      -0.2457
    185  OE2      -14.5940   25.8970   19.5680 O.co2  89  GLU89      -0.2457
    186  N         -9.7460   22.4700   17.5890 N.am   90  ARG90      -0.1980
    187  CA        -8.6550   21.7530   16.9330 C.3    90  ARG90       0.1597
    188  C         -7.6800   21.0710   17.9110 C.2    90  ARG90       0.2287
    189  O         -7.4210   19.8870   17.7750 O.2    90  ARG90      -0.2864
    190  CB        -7.8720   22.6860   15.9820 C.3    90  ARG90       0.0334
    191  CG        -6.5810   22.0460   15.4160 C.3    90  ARG90       0.0492
    192  CD        -5.5300   23.1060   15.0650 C.3    90  ARG90       0.2205
    193  NE        -4.9260   23.6880   16.2670 N.pl3  90  ARG90      -0.0865
    194  CZ        -4.5190   24.9470   16.3960 C.cat  90  ARG90       0.5346
    195  NH1       -4.6510   25.8260   15.3970 N.pl3  90  ARG90       0.1354
    196  NH2       -3.9800   25.3270   17.5520 N.pl3  90  ARG90       0.1354
    197  N         -9.5480   18.1710   19.9250 N.3    93  TRP93      -0.1241
    198  CA        -9.6850   16.9830   19.0950 C.3    93  TRP93       0.1605
    199  C         -8.3420   16.2010   19.1690 C.2    93  TRP93       0.2264
    200  O         -8.3150   14.9880   19.4340 O.2    93  TRP93      -0.2867
    201  CB       -10.0170   17.4180   17.6560 C.3    93  TRP93       0.0550
    202  CG       -10.4010   16.2780   16.6930 C.ar   93  TRP93       0.0003
    203  CD1      -11.6630   15.9800   16.2470 C.ar   93  TRP93       0.0946
    204  CD2       -9.5130   15.3720   16.0020 C.ar   93  TRP93       0.0152
    205  NE1      -11.6230   14.9210   15.3670 N.ar   93  TRP93      -0.2442
    206  CE2      -10.3150   14.5280   15.2020 C.ar   93  TRP93       0.0810
    207  CE3       -8.1170   15.1620   16.0150 C.ar   93  TRP93       0.0012
    208  CZ2       -9.7710   13.4870   14.4250 C.ar   93  TRP93       0.0191
    209  CZ3       -7.5820   14.1290   15.2480 C.ar   93  TRP93       0.0001
    210  CH2       -8.4040   13.3090   14.4590 C.ar   93  TRP93       0.0015
    211  N         -2.0320   12.8650   10.6590 N.3   118  VAL118     -0.1245
    212  CA        -3.3370   13.1720   11.2930 C.3   118  VAL118      0.1561
    213  C         -3.3230   14.5800   11.8880 C.2   118  VAL118      0.2260
    214  O         -4.2690   15.3340   11.7160 O.2   118  VAL118     -0.2867
    215  CB        -3.7350   12.1440   12.4110 C.3   118  VAL118      0.0252
    216  CG1       -4.8800   12.7010   13.2940 C.3   118  VAL118      0.0019
    217  CG2       -4.1370   10.7860   11.7980 C.3   118  VAL118      0.0019
    218  N         -3.6600   17.0600    9.1610 N.3   121  LEU121     -0.1231
    219  CA        -5.0360   17.1420    8.6980 C.3   121  LEU121      0.1693
    220  C         -5.8780   17.9680    9.6460 C.2   121  LEU121      0.2591
    221  O         -6.6840   18.8020    9.2030 O.2   121  LEU121     -0.2718
    222  CB        -5.6570   15.7510    8.5170 C.3   121  LEU121      0.0284
    223  CG        -5.3420   15.0180    7.2100 C.3   121  LEU121      0.0019
    224  CD1       -5.5920   13.5110    7.3420 C.3   121  LEU121      0.0001
    225  CD2       -6.1320   15.6230    6.0270 C.3   121  LEU121      0.0001
    226  N         -5.6970   17.7560   10.9530 N.am  122  ALA122     -0.1980
    227  CA        -6.4720   18.5180   11.9480 C.3   122  ALA122      0.1597
    228  C         -6.2770   20.0060   11.7220 C.2   122  ALA122      0.2287
    229  O         -7.2400   20.7610   11.7000 O.2   122  ALA122     -0.2864
    230  CB        -6.0930   18.1170   13.4030 C.3   122  ALA122      0.0319
    231  N         -8.1950   21.1380    8.8330 N.3   125  MET125     -0.1230
    232  CA        -9.6570   21.1710    9.0650 C.3   125  MET125      0.1702
    233  C        -10.1560   22.5130    9.6510 C.2   125  MET125      0.2592
    234  O        -11.3430   22.8960    9.4920 O.2   125  MET125     -0.2718
    235  CB       -10.0950   20.0350   10.0280 C.3   125  MET125      0.0401
    236  CG        -9.9350   18.5920    9.4870 C.3   125  MET125      0.0596
    237  SD       -10.5070   18.4390    7.7850 S.3   125  MET125     -0.1393
    238  CE        -8.9730   18.5750    6.8390 C.3   125  MET125      0.0692
    239  N         -9.2500   23.2090   10.3320 N.am  126  GLN126     -0.1979
    240  CA        -9.5870   24.4770   10.9710 C.3   126  GLN126      0.1601
    241  C        -10.1120   25.4840    9.9410 C.2   126  GLN126      0.2287
    242  O         -9.5400   25.6690    8.8530 O.2   126  GLN126     -0.2864
    243  CB        -8.3950   25.0290   11.7690 C.3   126  GLN126      0.0394
    244  CG        -8.7460   26.2210   12.6820 C.3   126  GLN126      0.0908
    245  CD        -7.5200   26.8510   13.3120 C.2   126  GLN126      0.2608
    246  OE1       -6.4980   26.1840   13.4880 O.2   126  GLN126     -0.2717
    247  NE2       -7.6050   28.1560   13.6350 N.am  126  GLN126     -0.0878
@<TRIPOS>BOND
     1   121   120    2
     2   120   119    1
     3   146   144    1
     4   118   119    1
     5   119   122    1
     6   144   145    1
     7   144   143    2
     8   109   108    2
     9   122   123    1
    10   108   107    1
    11   143   142    1
    12   128   129    1
    13   123   124   ar
    14   123   125   ar
    15   141   142    1
    16   141   140    1
    17   114   112   ar
    18   114   116   ar
    19   112   111   ar
    20   136   137    1
    21   124   126   ar
    22   107   106    1
    23   107   110    1
    24   129   130    1
    25   129   132    1
    26   117   116    1
    27   125   127   ar
    28   130   131    2
    29   116   115   ar
    30   137   140    1
    31   137   138    1
    32   111   110    1
    33   111   113   ar
    34   126   127   ar
    35    97    96    2
    36   132   133    1
    37    94    95    1
    38    95    96    1
    39    95    98    1
    40   133   135    1
    41   133   134    1
    42   100   102   ar
    43   100    99   ar
    44    82    80   ar
    45    82    84   ar
    46   225   223    1
    47   102   104   ar
    48   115   113   ar
    49    85    84    1
    50    80    79   ar
    51   138   147   am
    52   138   139    2
    53    98    99    1
    54    84    83   ar
    55   238   237    1
    56    99   101   ar
    57   147   148    1
    58   162   161    1
    59   223   224    1
    60   223   222    1
    61    77    76    2
    62   104   105    1
    63   104   103   ar
    64    62    61    1
    65    79    78    1
    66    79    81   ar
    67   237   236    1
    68    75    76    1
    69    75    78    1
    70    75    74    1
    71    83    81   ar
    72   157   158    1
    73   101   103   ar
    74    76    86   am
    75   148   149    1
    76   148   151    1
    77   149   150    2
    78   153   155   ar
    79   153   152   ar
    80   161   158    1
    81   161   163    1
    82   222   219    1
    83    61    60    1
    84   151   152    1
    85   158   159    1
    86   219   218    1
    87   219   220    1
    88    89    88    2
    89   231   232    1
    90   242   241    2
    91    60    59    1
    92   232   233    1
    93   232   235    1
    94   155   156   ar
    95    88    87    1
    96   221   220    2
    97   152   154   ar
    98    86    87    1
    99   236   235    1
   100   234   233    2
   101    59    58    1
   102   220   226   am
   103   233   239   am
   104    57    56    2
   105    87    90    1
   106   241   240    1
   107    58    55    1
   108   159   164   am
   109   159   160    2
   110   239   240    1
   111    55    56    1
   112    55    54    1
   113   156   154   ar
   114    56    63   am
   115   211   212    1
   116   164   165    1
   117   226   227    1
   118   240   243    1
   119   212   213    1
   120   212   215    1
   121    90    91    1
   122    93    91    1
   123    66    65    2
   124   167   166    2
   125   229   228    2
   126   214   213    2
   127   228   227    1
   128   243   244    1
   129    63    64    1
   130   217   215    1
   131   227   230    1
   132    91    92    1
   133    65    64    1
   134    64    67    1
   135   165   166    1
   136   165   168    1
   137   176   174    1
   138   215   216    1
   139    69    71   ar
   140    69    68   ar
   141    71    73   ar
   142   244   245    1
   143    47    46    2
   144   174   173    1
   145   245   246    2
   146   245   247   am
   147   173   175    1
   148   173   170    1
   149   172   171    2
   150    67    68    1
   151    68    70   ar
   152   169   170    1
   153    73    72   ar
   154    51    50    2
   155    46    45    1
   156    46    48   am
   157   170   171    1
   158    45    44    1
   159   208   210   ar
   160   208   206   ar
   161   210   209   ar
   162    49    50    1
   163    49    48    1
   164    49    52    1
   165    70    72   ar
   166   192   191    1
   167   192   193    1
   168   206   205   ar
   169   206   204   ar
   170   209   207   ar
   171   205   203   ar
   172    12    11    1
   173   195   194    1
   174   191   190    1
   175    53    52    1
   176    42    43    1
   177    42    41    1
   178   190   187    1
   179   204   207   ar
   180   204   202   ar
   181   203   202   ar
   182   193   194    2
   183    26    24    1
   184   194   196    1
   185    35    33   ar
   186    35    36   ar
   187    22    21    2
   188    43    37    1
   189    11    10   ar
   190    11     9   ar
   191   202   201    1
   192    33    32   ar
   193   187   186    1
   194   187   188    1
   195    10     8   ar
   196    36    34   ar
   197    41    38    1
   198    23    24    1
   199    23    25    1
   200    23    20    1
   201   186   179   am
   202    21    20    1
   203    21    27   am
   204   201   198    1
   205     9     7   ar
   206    37    38    1
   207    37    29   am
   208   189   188    2
   209    32    34   ar
   210    32    31    1
   211   181   182    1
   212   181   178    1
   213    28    29    1
   214    28    27    1
   215    28    31    1
   216    38    39    1
   217   184   183   ar
   218    20    19    1
   219     8     6   ar
   220   182   183    1
   221   179   180    2
   222   179   178    1
   223    29    30    2
   224   183   185   ar
   225   178   177    1
   226     7     6   ar
   227   198   199    1
   228   198   197    1
   229   199   200    2
   230     6     5    1
   231    18    17    1
   232    39    40    2
   233    16    15    2
   234    14    17    1
   235    14    15    1
   236    14    13    1
   237     5     2    1
   238     1     2    1
   239     2     3    1
   240     3     4    2
