@<TRIPOS>MOLECULE
tmp/2xylA00.pdb
 139 135 0 0 0
SMALL
GASTEIGER

@<TRIPOS>ATOM
      1  N         20.6450   66.3240   46.3070 N.3    43  GLU43      -0.1231
      2  CA        20.0180   66.1140   45.0080 C.3    43  GLU43       0.1699
      3  C         18.9120   67.1410   44.7870 C.2    43  GLU43       0.2592
      4  O         18.7510   67.6590   43.6830 O.2    43  GLU43      -0.2718
      5  CB        19.4450   64.6930   44.8940 C.3    43  GLU43       0.0402
      6  CG        18.8300   64.3870   43.5200 C.3    43  GLU43       0.1161
      7  CD        18.1400   63.0290   43.4400 C.2    43  GLU43       0.3649
      8  OE1       17.6120   62.5520   44.4690 O.co2  43  GLU43      -0.2457
      9  OE2       18.1040   62.4490   42.3330 O.co2  43  GLU43      -0.2457
     10  N         18.1760   67.4560   45.8490 N.am   44  ASN44      -0.1974
     11  CA        17.0780   68.4150   45.7620 C.3    44  ASN44       0.1688
     12  C         16.8960   69.2820   47.0050 C.2    44  ASN44       0.2292
     13  O         16.3370   70.3730   46.9170 O.2    44  ASN44      -0.2864
     14  CB        15.7540   67.6860   45.4910 C.3    44  ASN44       0.1181
     15  CG        15.7010   67.0460   44.1160 C.2    44  ASN44       0.2629
     16  OD1       15.5680   67.7320   43.1040 O.2    44  ASN44      -0.2716
     17  ND2       15.7910   65.7260   44.0770 N.am   44  ASN44      -0.0877
     18  N         17.6990   73.2640   46.8680 N.3    47  LYS47      -0.1245
     19  CA        17.1760   74.0820   45.7770 C.3    47  LYS47       0.1561
     20  C         16.2020   75.1420   46.2870 C.2    47  LYS47       0.2260
     21  O         15.8050   75.1200   47.4560 O.2    47  LYS47      -0.2867
     22  CB        16.5280   73.1980   44.7040 C.3    47  LYS47       0.0271
     23  CG        17.5340   72.3180   43.9690 C.3    47  LYS47       0.0035
     24  CD        16.8720   71.3170   43.0450 C.3    47  LYS47       0.0206
     25  CE        17.9230   70.4600   42.3620 C.3    47  LYS47       0.1093
     26  NZ        17.3340   69.3310   41.5940 N.3    47  LYS47      -0.1314
     27  N         24.2820   72.8250   46.2490 N.3    80  HIS80      -0.1241
     28  CA        23.6800   72.7990   44.9290 C.3    80  HIS80       0.1621
     29  C         22.6450   73.8660   44.6210 C.2    80  HIS80       0.2264
     30  O         21.5390   73.8870   45.1620 O.2    80  HIS80      -0.2867
     31  CB        23.1350   71.4190   44.5720 C.3    80  HIS80       0.0745
     32  CG        22.6780   71.3120   43.1480 C.ar   80  HIS80       0.0817
     33  ND1       23.4090   71.8170   42.0970 N.ar   80  HIS80      -0.2268
     34  CD2       21.5490   70.7970   42.6100 C.ar   80  HIS80       0.1154
     35  CE1       22.7480   71.6200   40.9690 C.ar   80  HIS80       0.1986
     36  NE2       21.6180   71.0040   41.2530 N.ar   80  HIS80      -0.2212
     37  N         18.4820   79.1850   39.7350 N.3    84  TRP84      -0.1241
     38  CA        18.1820   78.2210   38.6810 C.3    84  TRP84       0.1605
     39  C         16.7600   78.4470   38.1840 C.2    84  TRP84       0.2264
     40  O         15.8420   78.6190   38.9840 O.2    84  TRP84      -0.2867
     41  CB        18.3180   76.7990   39.2340 C.3    84  TRP84       0.0550
     42  CG        18.2830   75.7160   38.2000 C.ar   84  TRP84       0.0003
     43  CD1       18.6780   75.8110   36.8960 C.ar   84  TRP84       0.0946
     44  CD2       17.8550   74.3620   38.3920 C.ar   84  TRP84       0.0152
     45  NE1       18.5240   74.6010   36.2660 N.ar   84  TRP84      -0.2442
     46  CE2       18.0200   73.6930   37.1600 C.ar   84  TRP84       0.0810
     47  CE3       17.3490   73.6470   39.4870 C.ar   84  TRP84       0.0012
     48  CZ2       17.6970   72.3420   36.9880 C.ar   84  TRP84       0.0191
     49  CZ3       17.0280   72.3050   39.3190 C.ar   84  TRP84       0.0001
     50  CH2       17.2030   71.6660   38.0770 C.ar   84  TRP84       0.0015
     51  N         12.6290   74.3660   38.9570 N.3    87  GLN87      -0.1245
     52  CA        12.2680   74.1670   40.3620 C.3    87  GLN87       0.1566
     53  C         12.2540   75.4890   41.1270 C.2    87  GLN87       0.2260
     54  O         12.8300   75.6150   42.2100 O.2    87  GLN87      -0.2867
     55  CB        13.1770   73.1340   41.0320 C.3    87  GLN87       0.0367
     56  CG        12.8390   71.7070   40.6330 C.3    87  GLN87       0.0905
     57  CD        13.6660   70.6780   41.3680 C.2    87  GLN87       0.2608
     58  OE1       13.3700   70.3340   42.5120 O.2    87  GLN87      -0.2717
     59  NE2       14.7010   70.1680   40.7090 N.am   87  GLN87      -0.0878
     60  N         23.0880   78.0910   37.8070 N.3   126  ASN126     -0.1225
     61  CA        23.0150   76.8070   37.1260 C.3   126  ASN126      0.1785
     62  C         22.2190   76.9250   35.8250 C.2   126  ASN126      0.2597
     63  O         21.1400   77.5150   35.8000 O.2   126  ASN126     -0.2718
     64  CB        22.3620   75.7820   38.0600 C.3   126  ASN126      0.1169
     65  CG        22.3940   74.3700   37.5130 C.2   126  ASN126      0.2627
     66  OD1       23.4550   73.8390   37.1950 O.2   126  ASN126     -0.2716
     67  ND2       21.2280   73.7400   37.4370 N.am  126  ASN126     -0.0877
     68  N         22.7990   76.4080   34.7440 N.am  127  GLU127     -0.1979
     69  CA        22.1710   76.3920   33.4240 C.3   127  GLU127      0.1602
     70  C         21.6630   77.7380   32.8980 C.2   127  GLU127      0.2287
     71  O         20.4840   77.8800   32.5610 O.2   127  GLU127     -0.2864
     72  CB        21.0490   75.3520   33.4160 C.3   127  GLU127      0.0415
     73  CG        21.5380   73.9730   33.8380 C.3   127  GLU127      0.1163
     74  CD        20.4280   72.9700   34.0510 C.2   127  GLU127      0.3649
     75  OE1       19.2650   73.2630   33.7000 O.co2 127  GLU127     -0.2457
     76  OE2       20.7280   71.8770   34.5730 O.co2 127  GLU127     -0.2457
     77  N         28.2860   69.3830   34.1420 N.3   203  GLN203     -0.1245
     78  CA        27.3180   68.3570   34.5040 C.3   203  GLN203      0.1566
     79  C         27.6770   66.9470   34.0470 C.2   203  GLN203      0.2260
     80  O         27.6960   66.0230   34.8520 O.2   203  GLN203     -0.2867
     81  CB        25.9170   68.7510   34.0330 C.3   203  GLN203      0.0367
     82  CG        25.3820   69.9780   34.7530 C.3   203  GLN203      0.0905
     83  CD        23.9020   70.2220   34.5290 C.2   203  GLN203      0.2608
     84  OE1       23.1660   69.3360   34.0960 O.2   203  GLN203     -0.2717
     85  NE2       23.4580   71.4290   34.8410 N.am  203  GLN203     -0.0878
     86  N         26.0660   64.8690   31.7670 N.3   205  HIS205     -0.1241
     87  CA        24.9400   63.9490   31.6250 C.3   205  HIS205      0.1621
     88  C         25.1250   63.4020   30.2080 C.2   205  HIS205      0.2264
     89  O         24.5030   63.8680   29.2480 O.2   205  HIS205     -0.2867
     90  CB        23.6010   64.6810   31.7620 C.3   205  HIS205      0.0745
     91  CG        23.2500   65.0450   33.1730 C.ar  205  HIS205      0.0817
     92  ND1       23.0720   64.1030   34.1640 N.ar  205  HIS205     -0.2268
     93  CD2       23.0350   66.2470   33.7570 C.ar  205  HIS205      0.1154
     94  CE1       22.7640   64.7080   35.2960 C.ar  205  HIS205      0.1986
     95  NE2       22.7350   66.0100   35.0770 N.ar  205  HIS205     -0.2212
     96  N         27.5530   66.3820   37.7420 N.3   233  GLU233     -0.1245
     97  CA        26.4100   65.4750   37.7800 C.3   233  GLU233      0.1567
     98  C         26.5270   64.3050   36.8180 C.2   233  GLU233      0.2260
     99  O         25.6100   64.0170   36.0480 O.2   233  GLU233     -0.2867
    100  CB        25.1500   66.2750   37.4830 C.3   233  GLU233      0.0388
    101  CG        25.0810   67.6000   38.2030 C.3   233  GLU233      0.1160
    102  CD        23.8740   68.4300   37.7950 C.2   233  GLU233      0.3649
    103  OE1       22.6020   67.7850   37.6190 O.co2 233  GLU233     -0.2457
    104  OE2       24.0260   69.6470   37.6490 O.co2 233  GLU233     -0.2457
    105  N         25.7010   61.6290   39.7750 N.3   273  TRP273     -0.1241
    106  CA        24.3570   62.0120   40.1850 C.3   273  TRP273      0.1605
    107  C         23.5210   60.8650   40.7510 C.2   273  TRP273      0.2264
    108  O         22.5100   60.4620   40.1670 O.2   273  TRP273     -0.2867
    109  CB        23.6260   62.7280   39.0460 C.3   273  TRP273      0.0550
    110  CG        22.6260   63.7150   39.5580 C.ar  273  TRP273      0.0003
    111  CD1       21.2820   63.7050   39.3450 C.ar  273  TRP273      0.0946
    112  CD2       22.8880   64.8340   40.4110 C.ar  273  TRP273      0.0152
    113  NE1       20.6850   64.7430   40.0180 N.ar  273  TRP273     -0.2442
    114  CE2       21.6500   65.4530   40.6830 C.ar  273  TRP273      0.0810
    115  CE3       24.0510   65.3730   40.9800 C.ar  273  TRP273      0.0012
    116  CZ2       21.5390   66.5850   41.4950 C.ar  273  TRP273      0.0191
    117  CZ3       23.9380   66.5010   41.7890 C.ar  273  TRP273      0.0001
    118  CH2       22.6920   67.0910   42.0380 C.ar  273  TRP273      0.0015
    119  N         17.4610   59.5780   38.2880 N.3   281  TRP281     -0.1241
    120  CA        16.4630   60.4800   37.7130 C.3   281  TRP281      0.1605
    121  C         16.2630   60.2910   36.2060 C.2   281  TRP281      0.2264
    122  O         15.2540   60.7330   35.6530 O.2   281  TRP281     -0.2867
    123  CB        16.8650   61.9390   37.9680 C.3   281  TRP281      0.0550
    124  CG        17.9680   62.4410   37.0500 C.ar  281  TRP281      0.0003
    125  CD1       19.1870   61.8610   36.8370 C.ar  281  TRP281      0.0946
    126  CD2       17.9250   63.5980   36.2030 C.ar  281  TRP281      0.0152
    127  NE1       19.9010   62.5830   35.9100 N.ar  281  TRP281     -0.2442
    128  CE2       19.1500   63.6520   35.5060 C.ar  281  TRP281      0.0810
    129  CE3       16.9700   64.5920   35.9670 C.ar  281  TRP281      0.0012
    130  CZ2       19.4430   64.6630   34.5860 C.ar  281  TRP281      0.0191
    131  CZ3       17.2630   65.5980   35.0510 C.ar  281  TRP281      0.0001
    132  CH2       18.4900   65.6240   34.3740 C.ar  281  TRP281      0.0015
    133  N         13.0360   61.4270   33.0910 N.3   285  VAL285     -0.1245
    134  CA        13.3010   62.5440   32.1930 C.3   285  VAL285      0.1561
    135  C         13.5570   62.0570   30.7650 C.2   285  VAL285      0.2260
    136  O         13.0580   62.6450   29.8070 O.2   285  VAL285     -0.2867
    137  CB        14.5190   63.3660   32.6850 C.3   285  VAL285      0.0252
    138  CG1       14.8550   64.4740   31.7000 C.3   285  VAL285      0.0019
    139  CG2       14.2260   63.9600   34.0520 C.3   285  VAL285      0.0019
@<TRIPOS>BOND
     1    89    88    2
     2   136   135    2
     3    88    87    1
     4   135   134    1
     5    87    90    1
     6    87    86    1
     7   138   137    1
     8    90    91    1
     9   134   137    1
    10   134   133    1
    11    71    70    2
    12   137   139    1
    13    70    69    1
    14    91    93   ar
    15    91    92   ar
    16    72    69    1
    17    72    73    1
    18    69    68    1
    19    75    74   ar
    20    93    95   ar
    21    73    74    1
    22    81    78    1
    23    81    82    1
    24    79    78    1
    25    79    80    2
    26    74    76   ar
    27    84    83    2
    28    77    78    1
    29    92    94   ar
    30   132   130   ar
    31   132   131   ar
    32    83    82    1
    33    83    85   am
    34   130   128   ar
    35    68    62   am
    36   131   129   ar
    37    95    94   ar
    38   128   127   ar
    39   128   126   ar
    40   122   121    2
    41    63    62    2
    42    62    61    1
    43   127   125   ar
    44   129   126   ar
    45    99    98    2
    46   126   124   ar
    47   121   120    1
    48    45    43   ar
    49    45    46   ar
    50    98    97    1
    51   125   124   ar
    52    43    42   ar
    53    48    46   ar
    54    48    50   ar
    55   124   123    1
    56    61    60    1
    57    61    64    1
    58    46    44   ar
    59    66    65    2
    60    67    65   am
    61   100    97    1
    62   100   101    1
    63    65    64    1
    64   103   102   ar
    65   104   102   ar
    66   120   123    1
    67   120   119    1
    68    96    97    1
    69   102   101    1
    70    50    49   ar
    71    39    38    1
    72    39    40    2
    73    42    44   ar
    74    42    41    1
    75    44    47   ar
    76    38    41    1
    77    38    37    1
    78    51    52    1
    79   109   110    1
    80   109   106    1
    81    49    47   ar
    82   111   110   ar
    83   111   113   ar
    84   110   112   ar
    85   105   106    1
    86   113   114   ar
    87   108   107    2
    88   106   107    1
    89    52    55    1
    90    52    53    1
    91   112   114   ar
    92   112   115   ar
    93    56    55    1
    94    56    57    1
    95   114   116   ar
    96    59    57   am
    97    35    36   ar
    98    35    33   ar
    99   115   117   ar
   100    53    54    2
   101    36    34   ar
   102    57    58    2
   103   116   118   ar
   104    26    25    1
   105   117   118   ar
   106    33    32   ar
   107     9     7   ar
   108    25    24    1
   109    34    32   ar
   110    24    23    1
   111    16    15    2
   112    32    31    1
   113     7     6    1
   114     7     8   ar
   115     6     5    1
   116     4     3    2
   117    23    22    1
   118    17    15   am
   119    15    14    1
   120    31    28    1
   121    29    28    1
   122    29    30    2
   123    22    19    1
   124     3     2    1
   125     3    10   am
   126     5     2    1
   127    28    27    1
   128     2     1    1
   129    14    11    1
   130    11    10    1
   131    11    12    1
   132    19    20    1
   133    19    18    1
   134    20    21    2
   135    13    12    2
