@<TRIPOS>MOLECULE
tmp/2xynB02.pdb
 77 71 0 0 0
SMALL
GASTEIGER

@<TRIPOS>ATOM
      1  N       -112.8440   18.6360  -13.6860 N.3   156  ASP156     -0.1225
      2  CA      -112.0510   19.3900  -14.6600 C.3   156  ASP156      0.1805
      3  C       -110.7540   19.8720  -14.0070 C.2   156  ASP156      0.2598
      4  O       -109.8030   20.2560  -14.7020 O.2   156  ASP156     -0.2718
      5  CB      -112.8350   20.5990  -15.1820 C.3   156  ASP156      0.1424
      6  CG      -114.3440   20.4040  -15.0910 C.2   156  ASP156      0.3668
      7  OD1     -114.8640   19.4340  -15.6980 O.co2 156  ASP156     -0.2456
      8  OD2     -115.0110   21.2110  -14.3950 O.co2 156  ASP156     -0.2456
      9  N       -110.7120   19.8450  -12.6770 N.am  157  THR157     -0.1953
     10  CA      -109.5130   20.2060  -11.9340 C.3   157  THR157      0.1897
     11  C       -109.1940   19.2070  -10.8290 C.2   157  THR157      0.2313
     12  O       -110.0480   18.4480  -10.4040 O.2   157  THR157     -0.2863
     13  CB      -109.6450   21.5930  -11.3020 C.3   157  THR157      0.1794
     14  OG1     -110.7770   21.6090  -10.4310 O.3   157  THR157     -0.2208
     15  CG2     -109.8100   22.6580  -12.3720 C.3   157  THR157      0.0378
     16  N       -107.0330   19.2810   -7.0280 N.3   159  THR159     -0.1218
     17  CA      -106.3530   20.1050   -6.0230 C.3   159  THR159      0.1862
     18  C       -105.3110   19.2820   -5.2590 C.2   159  THR159      0.2287
     19  O       -105.6470   18.2930   -4.5980 O.2   159  THR159     -0.2866
     20  CB      -107.3420   20.7320   -5.0260 C.3   159  THR159      0.1770
     21  OG1     -108.1730   21.6710   -5.7150 O.3   159  THR159     -0.2211
     22  CG2     -106.5780   21.4650   -3.9540 C.3   159  THR159      0.0375
     23  N       -101.7000   29.4420  -11.1990 N.3   174  GLU174     -0.1245
     24  CA      -102.8560   29.0120  -10.4030 C.3   174  GLU174      0.1567
     25  C       -102.5260   27.7860   -9.5670 C.2   174  GLU174      0.2260
     26  O       -103.1270   27.5730   -8.5160 O.2   174  GLU174     -0.2867
     27  CB      -104.0910   28.7500  -11.2740 C.3   174  GLU174      0.0388
     28  CG      -104.0730   27.4630  -12.0940 C.3   174  GLU174      0.1160
     29  CD      -103.4410   27.6270  -13.4680 C.2   174  GLU174      0.3649
     30  OE1     -102.7970   28.6760  -13.7100 O.co2 174  GLU174     -0.2457
     31  OE2     -103.5860   26.7090  -14.3120 O.co2 174  GLU174     -0.2457
     32  N       -103.0010   28.4930   -5.8430 N.3   178  TYR178     -0.1241
     33  CA      -104.2090   27.8080   -5.3350 C.3   178  TYR178      0.1605
     34  C       -104.1200   26.2750   -5.3540 C.2   178  TYR178      0.2264
     35  O       -105.1240   25.6110   -5.1870 O.2   178  TYR178     -0.2867
     36  CB      -105.4530   28.2420   -6.1360 C.3   178  TYR178      0.0534
     37  CG      -105.6250   29.7380   -6.2810 C.ar  178  TYR178     -0.0201
     38  CD1     -106.0700   30.5250   -5.2200 C.ar  178  TYR178     -0.0009
     39  CD2     -105.3500   30.3640   -7.4830 C.ar  178  TYR178     -0.0009
     40  CE1     -106.2240   31.9040   -5.3600 C.ar  178  TYR178      0.0417
     41  CE2     -105.4890   31.7310   -7.6340 C.ar  178  TYR178      0.0417
     42  CZ      -105.9250   32.5030   -6.5750 C.ar  178  TYR178      0.1957
     43  OH      -106.0580   33.8690   -6.7450 O.3   178  TYR178     -0.2866
     44  N       -104.1040   24.3820   -7.7130 N.3   180  THR180     -0.1218
     45  CA      -105.0830   23.8890   -8.6910 C.3   180  THR180      0.1862
     46  C       -104.4070   23.3480   -9.9530 C.2   180  THR180      0.2287
     47  O       -103.6550   24.0400  -10.6100 O.2   180  THR180     -0.2866
     48  CB      -106.0660   25.0030   -9.1010 C.3   180  THR180      0.1770
     49  OG1     -106.4980   25.7090   -7.9370 O.3   180  THR180     -0.2211
     50  CG2     -107.2740   24.4180   -9.8360 C.3   180  THR180      0.0375
     51  N       -104.9910   21.3280  -13.7610 N.3   182  SER182     -0.1217
     52  CA      -105.9580   21.0930  -14.8220 C.3   182  SER182      0.1889
     53  C       -105.2030   20.7320  -16.0820 C.2   182  SER182      0.2288
     54  O       -103.9760   20.7770  -16.0900 O.2   182  SER182     -0.2866
     55  CB      -106.7440   22.3690  -15.0870 C.3   182  SER182      0.2089
     56  OG      -105.8870   23.3290  -15.6840 O.3   182  SER182     -0.2183
     57  N       -105.1750   22.6870  -18.4700 N.3   184  LYS184     -0.1245
     58  CA      -104.5880   23.9830  -18.7870 C.3   184  LYS184      0.1561
     59  C       -103.2770   24.2300  -18.0150 C.2   184  LYS184      0.2260
     60  O       -102.4100   24.9770  -18.4690 O.2   184  LYS184     -0.2867
     61  CB      -105.5920   25.1040  -18.5350 C.3   184  LYS184      0.0271
     62  CG      -106.8450   25.0300  -19.3940 C.3   184  LYS184      0.0035
     63  CD      -106.5290   25.1880  -20.8830 C.3   184  LYS184      0.0206
     64  CE      -107.7780   25.5950  -21.6670 C.3   184  LYS184      0.1093
     65  NZ      -107.6320   25.4350  -23.1410 N.3   184  LYS184     -0.1314
     66  N       -106.0950   30.6000  -17.2090 N.3   245  PRO245     -0.2102
     67  CA      -106.0550   29.2730  -17.8150 C.3   245  PRO245      0.1504
     68  C       -106.9840   29.1190  -19.0160 C.2   245  PRO245      0.2575
     69  O       -106.6440   28.4170  -19.9580 O.2   245  PRO245     -0.2718
     70  CB      -106.4960   28.3520  -16.6700 C.3   245  PRO245      0.0282
     71  CG      -106.1450   29.1020  -15.4330 C.3   245  PRO245      0.0208
     72  CD      -106.3730   30.5330  -15.7640 C.3   245  PRO245      0.0893
     73  N       -108.1380   29.7780  -18.9850 N.am  246  ALA246     -0.1980
     74  CA      -109.1110   29.6610  -20.0730 C.3   246  ALA246      0.1597
     75  C       -108.5400   30.1290  -21.4070 C.2   246  ALA246      0.2287
     76  O       -108.8770   29.5800  -22.4470 O.2   246  ALA246     -0.2864
     77  CB      -110.3710   30.4380  -19.7460 C.3   246  ALA246      0.0319
@<TRIPOS>BOND
     1    65    64    1
     2    76    75    2
     3    64    63    1
     4    75    74    1
     5    63    62    1
     6    74    77    1
     7    74    73    1
     8    69    68    2
     9    62    61    1
    10    68    73   am
    11    68    67    1
    12    58    61    1
    13    58    57    1
    14    58    59    1
    15    60    59    2
    16    67    66    1
    17    67    70    1
    18    66    72    1
    19    70    71    1
    20    54    53    2
    21    53    52    1
    22    72    71    1
    23     7     6   ar
    24    56    55    1
    25     5     6    1
    26     5     2    1
    27     6     8   ar
    28    55    52    1
    29    52    51    1
    30     4     3    2
    31     2     3    1
    32     2     1    1
    33    31    29   ar
    34     3     9   am
    35    30    29   ar
    36    29    28    1
    37     9    10    1
    38    15    13    1
    39    28    27    1
    40    10    13    1
    41    10    11    1
    42    13    14    1
    43    27    24    1
    44    23    24    1
    45    11    12    2
    46    47    46    2
    47    24    25    1
    48    46    45    1
    49    50    48    1
    50    25    26    2
    51    48    45    1
    52    48    49    1
    53    45    44    1
    54    41    39   ar
    55    41    42   ar
    56    39    37   ar
    57    16    17    1
    58    43    42    1
    59    42    40   ar
    60    37    36    1
    61    37    38   ar
    62    36    33    1
    63    17    18    1
    64    17    20    1
    65    32    33    1
    66    21    20    1
    67    40    38   ar
    68    34    33    1
    69    34    35    2
    70    18    19    2
    71    20    22    1
