@<TRIPOS>MOLECULE
tmp/2xynB00.pdb
 196 187 0 0 0
SMALL
GASTEIGER

@<TRIPOS>ATOM
      1  N        -79.4480    1.6870  -14.7760 N.3    15  LEU15      -0.1231
      2  CA       -79.7790    2.6240  -15.8440 C.3    15  LEU15       0.1693
      3  C        -79.8200    4.0220  -15.3130 C.2    15  LEU15       0.2592
      4  O        -80.3670    4.2770  -14.2310 O.2    15  LEU15      -0.2718
      5  CB       -81.1330    2.3120  -16.4540 C.3    15  LEU15       0.0284
      6  CG       -81.5720    3.1720  -17.6400 C.3    15  LEU15       0.0019
      7  CD1      -80.4260    3.3320  -18.6570 C.3    15  LEU15       0.0001
      8  CD2      -82.8200    2.5600  -18.2850 C.3    15  LEU15       0.0001
      9  N        -79.2400    4.9310  -16.0990 N.am   16  GLY16      -0.1957
     10  CA       -79.2480    6.3520  -15.7870 C.3    16  GLY16       0.1869
     11  C        -78.6630    6.6250  -14.4140 C.2    16  GLY16       0.2309
     12  O        -77.4500    6.4750  -14.1940 O.2    16  GLY16      -0.2863
     13  N        -83.5020    9.8570  -11.3020 N.3    20  TYR20      -0.1241
     14  CA       -84.4000    8.9330  -12.0110 C.3    20  TYR20       0.1605
     15  C        -84.6530    7.6170  -11.2790 C.2    20  TYR20       0.2264
     16  O        -85.2920    6.6940  -11.8290 O.2    20  TYR20      -0.2867
     17  CB       -83.8840    8.6850  -13.4310 C.3    20  TYR20       0.0534
     18  CG       -84.0390    9.9030  -14.2910 C.ar   20  TYR20      -0.0201
     19  CD1      -85.3020   10.3830  -14.6150 C.ar   20  TYR20      -0.0009
     20  CD2      -82.9280   10.6150  -14.7500 C.ar   20  TYR20      -0.0009
     21  CE1      -85.4560   11.5380  -15.3920 C.ar   20  TYR20       0.0417
     22  CE2      -83.0780   11.7540  -15.5370 C.ar   20  TYR20       0.0417
     23  CZ       -84.3390   12.2050  -15.8490 C.ar   20  TYR20       0.1957
     24  OH       -84.4850   13.3110  -16.6380 O.3    20  TYR20      -0.2866
     25  N        -83.1690    2.3430  -11.3900 N.3    23  VAL23      -0.1245
     26  CA       -83.6330    1.7890  -12.6510 C.3    23  VAL23       0.1561
     27  C        -82.5200    1.0170  -13.3440 C.2    23  VAL23       0.2260
     28  O        -81.3360    1.2940  -13.1410 O.2    23  VAL23      -0.2867
     29  CB       -84.1930    2.8580  -13.5740 C.3    23  VAL23       0.0252
     30  CG1      -85.2180    2.2450  -14.4470 C.3    23  VAL23       0.0019
     31  CG2      -84.8400    3.9690  -12.7830 C.3    23  VAL23       0.0019
     32  N        -86.6120   -1.5800  -19.7810 N.3    36  ALA36      -0.1245
     33  CA       -86.1580   -0.8040  -18.6480 C.3    36  ALA36       0.1562
     34  C        -86.8870   -1.3280  -17.4240 C.2    36  ALA36       0.2260
     35  O        -88.1070   -1.4830  -17.4550 O.2    36  ALA36      -0.2867
     36  CB       -86.4500    0.6530  -18.8660 C.3    36  ALA36       0.0290
     37  N        -87.7090   -0.6370  -13.4600 N.3    38  LYS38      -0.1245
     38  CA       -87.7080    0.2080  -12.2690 C.3    38  LYS38       0.1561
     39  C        -87.9800   -0.6490  -11.0070 C.2    38  LYS38       0.2260
     40  O        -88.9120   -1.4290  -10.9800 O.2    38  LYS38      -0.2867
     41  CB       -88.7290    1.3590  -12.4010 C.3    38  LYS38       0.0271
     42  CG       -88.4470    2.5180  -11.4520 C.3    38  LYS38       0.0035
     43  CD       -89.5240    3.5890  -11.5170 C.3    38  LYS38       0.0206
     44  CE       -89.3120    4.6440  -10.4340 C.3    38  LYS38       0.1093
     45  NZ       -89.3380    4.0560   -9.0590 N.3    38  LYS38      -0.1314
     46  N        -97.7150    4.0590   -9.4570 N.3    51  GLU51      -0.1245
     47  CA       -97.1680    4.3780  -10.7830 C.3    51  GLU51       0.1567
     48  C        -97.5250    3.3020  -11.8010 C.2    51  GLU51       0.2260
     49  O        -97.8900    3.6110  -12.9440 O.2    51  GLU51      -0.2867
     50  CB       -95.6270    4.6160  -10.7370 C.3    51  GLU51       0.0388
     51  CG       -95.1750    5.6550  -11.7910 C.3    51  GLU51       0.1160
     52  CD       -93.7100    6.0900  -11.6500 C.2    51  GLU51       0.3649
     53  OE1      -93.0350    5.6170  -10.6970 O.co2  51  GLU51      -0.2457
     54  OE2      -93.2350    6.9060  -12.4980 O.co2  51  GLU51      -0.2457
     55  N       -100.0070    3.5000  -15.4960 N.3    55  MET55      -0.1245
     56  CA       -99.4220    3.0870  -16.7680 C.3    55  MET55       0.1570
     57  C       -100.1330    1.9190  -17.4200 C.2    55  MET55       0.2261
     58  O        -99.9030    1.6740  -18.5950 O.2    55  MET55      -0.2867
     59  CB       -97.9480    2.7310  -16.5830 C.3    55  MET55       0.0387
     60  CG       -97.0790    3.9080  -16.1850 C.3    55  MET55       0.0595
     61  SD       -95.3650    3.3840  -15.9980 S.3    55  MET55      -0.1393
     62  CE       -94.8690    3.1930  -17.7190 C.3    55  MET55       0.0692
     63  N        -94.3170    6.4690  -23.0930 N.3    64  VAL64      -0.1245
     64  CA       -93.5080    5.2850  -22.8860 C.3    64  VAL64       0.1561
     65  C        -94.4030    4.1380  -22.3900 C.2    64  VAL64       0.2260
     66  O        -95.1110    4.2950  -21.4050 O.2    64  VAL64      -0.2867
     67  CB       -92.3730    5.4860  -21.8970 C.3    64  VAL64       0.0252
     68  CG1      -91.4510    4.2980  -21.9600 C.3    64  VAL64       0.0019
     69  CG2      -91.5860    6.6930  -22.2470 C.3    64  VAL64       0.0019
     70  N        -91.3010   -2.5140  -12.5220 N.3    78  ILE78      -0.1245
     71  CA       -92.0540   -1.9630  -13.6420 C.3    78  ILE78       0.1561
     72  C        -91.1640   -2.1020  -14.8640 C.2    78  ILE78       0.2260
     73  O        -90.0540   -1.5690  -14.8870 O.2    78  ILE78      -0.2867
     74  CB       -92.4340   -0.4950  -13.4550 C.3    78  ILE78       0.0252
     75  CG1      -93.2830   -0.3320  -12.1870 C.3    78  ILE78       0.0019
     76  CG2      -93.1870   -0.0020  -14.6780 C.3    78  ILE78       0.0019
     77  CD1      -93.4750    1.0980  -11.7380 C.3    78  ILE78       0.0001
     78  N        -90.8060   -1.4320  -18.8240 N.3    80  THR80      -0.1203
     79  CA       -91.2600   -0.5540  -19.9160 C.3    80  THR80       0.1994
     80  C        -90.4220   -0.7570  -21.1590 C.2    80  THR80       0.2618
     81  O        -89.3210   -1.3010  -21.0790 O.2    80  THR80      -0.2717
     82  CB       -91.0300    0.8970  -19.5330 C.3    80  THR80       0.1784
     83  OG1      -89.7140    1.0160  -18.9710 O.3    80  THR80      -0.2211
     84  CG2      -92.0510    1.3480  -18.4870 C.3    80  THR80       0.0376
     85  N        -90.9160   -0.2940  -22.3030 N.am   81  GLU81      -0.1965
     86  CA       -90.0810   -0.1980  -23.5230 C.3    81  GLU81       0.1733
     87  C        -88.8350    0.6690  -23.2690 C.2    81  GLU81       0.2616
     88  O        -88.8750    1.5800  -22.4690 O.2    81  GLU81      -0.2715
     89  CB       -90.8840    0.3500  -24.6980 C.3    81  GLU81       0.0429
     90  CG       -91.3150    1.8040  -24.5860 C.3    81  GLU81       0.1163
     91  CD       -91.9250    2.3210  -25.8900 C.2    81  GLU81       0.3649
     92  OE1      -91.1690    2.2840  -26.8870 O.co2  81  GLU81      -0.2457
     93  OE2      -93.1270    2.7510  -25.9190 O.co2  81  GLU81      -0.2457
     94  N        -87.7270    0.3330  -23.9140 N.am   82  TYR82      -0.1960
     95  CA       -86.4330    0.9700  -23.6440 C.3    82  TYR82       0.1771
     96  C        -86.1780    1.9960  -24.7030 C.2    82  TYR82       0.2619
     97  O        -86.2510    1.6950  -25.8880 O.2    82  TYR82      -0.2715
     98  CB       -85.2980   -0.0550  -23.6840 C.3    82  TYR82       0.0574
     99  CG       -83.9280    0.5470  -23.4780 C.ar   82  TYR82      -0.0198
    100  CD1      -83.6040    1.1770  -22.2810 C.ar   82  TYR82      -0.0009
    101  CD2      -82.9480    0.4520  -24.4590 C.ar   82  TYR82      -0.0009
    102  CE1      -82.3320    1.7410  -22.0770 C.ar   82  TYR82       0.0417
    103  CE2      -81.6800    0.9870  -24.2610 C.ar   82  TYR82       0.0417
    104  CZ       -81.3770    1.6430  -23.0760 C.ar   82  TYR82       0.1957
    105  OH       -80.1250    2.1950  -22.8960 O.3    82  TYR82      -0.2866
    106  N        -85.8910    3.2110  -24.2770 N.am   83  MET83      -0.1964
    107  CA       -85.5830    4.2970  -25.1820 C.3    83  MET83       0.1722
    108  C        -84.0810    4.5150  -25.0700 C.2    83  MET83       0.2458
    109  O        -83.5860    5.0140  -24.0610 O.2    83  MET83      -0.2730
    110  CB       -86.3400    5.5430  -24.7520 C.3    83  MET83       0.0427
    111  CG       -87.8020    5.2950  -24.5480 C.3    83  MET83       0.0599
    112  SD       -88.5700    4.9950  -26.1200 S.3    83  MET83      -0.1393
    113  CE       -88.7150    6.6590  -26.7830 C.3    83  MET83       0.0692
    114  N        -83.3410    4.1050  -26.0890 N.am   84  PRO84      -0.2716
    115  CA       -81.9020    4.0700  -25.9310 C.3    84  PRO84       0.1536
    116  C        -81.2000    5.4240  -25.7960 C.2    84  PRO84       0.2599
    117  O        -80.0460    5.4430  -25.3800 O.2    84  PRO84      -0.2715
    118  CB       -81.4360    3.3480  -27.2020 C.3    84  PRO84       0.0310
    119  CG       -82.4940    3.5800  -28.1740 C.3    84  PRO84       0.0237
    120  CD       -83.7630    3.5530  -27.3820 C.3    84  PRO84       0.0939
    121  N        -81.8440    6.5410  -26.1350 N.am   85  TYR85      -0.1960
    122  CA       -81.1430    7.8330  -26.0270 C.3    85  TYR85       0.1771
    123  C        -81.3430    8.5590  -24.7150 C.2    85  TYR85       0.2620
    124  O        -80.6580    9.5180  -24.4250 O.2    85  TYR85      -0.2715
    125  CB       -81.4050    8.7150  -27.2460 C.3    85  TYR85       0.0574
    126  CG       -80.8140    8.0510  -28.4630 C.ar   85  TYR85      -0.0198
    127  CD1      -79.4780    8.2070  -28.7860 C.ar   85  TYR85      -0.0009
    128  CD2      -81.5700    7.2010  -29.2260 C.ar   85  TYR85      -0.0009
    129  CE1      -78.9290    7.5720  -29.8580 C.ar   85  TYR85       0.0417
    130  CE2      -81.0270    6.5470  -30.3030 C.ar   85  TYR85       0.0417
    131  CZ       -79.6970    6.7360  -30.6180 C.ar   85  TYR85       0.1957
    132  OH       -79.1410    6.0810  -31.6980 O.3    85  TYR85      -0.2866
    133  N        -82.2110    8.0330  -23.8750 N.am   86  GLY86      -0.1940
    134  CA       -82.3870    8.6050  -22.5570 C.3    86  GLY86       0.2014
    135  C        -83.2460    9.8560  -22.5430 C.2    86  GLY86       0.2638
    136  O        -84.0150   10.1070  -23.4680 O.2    86  GLY86      -0.2714
    137  N        -83.1250   10.6420  -21.4830 N.am   87  ASN87      -0.1972
    138  CA       -83.9920   11.7990  -21.3250 C.3    87  ASN87       0.1688
    139  C        -83.6740   12.9510  -22.2890 C.2    87  ASN87       0.2292
    140  O        -82.5160   13.1810  -22.6410 O.2    87  ASN87      -0.2864
    141  CB       -83.9890   12.2820  -19.8730 C.3    87  ASN87       0.1181
    142  CG       -82.8090   13.1610  -19.5480 C.2    87  ASN87       0.2629
    143  OD1      -82.8720   14.3540  -19.7450 O.2    87  ASN87      -0.2716
    144  ND2      -81.7280   12.5720  -19.0390 N.am   87  ASN87      -0.0877
    145  N        -76.5450   17.6070  -25.2640 N.3    94  GLU94      -0.1245
    146  CA       -75.3530   16.9440  -25.7390 C.3    94  GLU94       0.1567
    147  C        -75.3620   16.7200  -27.2440 C.2    94  GLU94       0.2260
    148  O        -74.3550   16.3100  -27.8090 O.2    94  GLU94      -0.2867
    149  CB       -75.1900   15.6330  -24.9820 C.3    94  GLU94       0.0388
    150  CG       -75.0800   15.8720  -23.4620 C.3    94  GLU94       0.1160
    151  CD       -75.2170   14.5980  -22.6480 C.2    94  GLU94       0.3649
    152  OE1      -75.5110   13.5490  -23.2390 O.co2  94  GLU94      -0.2457
    153  OE2      -75.0260   14.6690  -21.4150 O.co2  94  GLU94      -0.2457
    154  N        -86.9000   16.7950  -18.9610 N.3   132  ARG132     -0.1245
    155  CA       -86.2690   15.7280  -18.1870 C.3   132  ARG132      0.1563
    156  C        -87.1780   14.5140  -18.0650 C.2   132  ARG132      0.2260
    157  O        -86.7200   13.4170  -17.6920 O.2   132  ARG132     -0.2867
    158  CB       -85.9060   16.2040  -16.7700 C.3   132  ARG132      0.0307
    159  CG       -87.0980   16.7380  -16.0040 C.3   132  ARG132      0.0489
    160  CD       -86.8720   16.8750  -14.5490 C.3   132  ARG132      0.2205
    161  NE       -88.1150   17.3030  -13.9030 N.pl3 132  ARG132     -0.0865
    162  CZ       -88.4990   18.5620  -13.6350 C.cat 132  ARG132      0.5346
    163  NH1      -87.7490   19.6290  -13.9350 N.pl3 132  ARG132      0.1354
    164  NH2      -89.6830   18.7490  -13.0360 N.pl3 132  ARG132      0.1354
    165  N        -88.4610   11.0060  -23.0810 N.3   135  LEU135     -0.1245
    166  CA       -87.3570   10.1160  -23.4560 C.3   135  LEU135      0.1561
    167  C        -87.2020   10.1070  -24.9660 C.2   135  LEU135      0.2260
    168  O        -88.1590   10.4000  -25.6680 O.2   135  LEU135     -0.2867
    169  CB       -87.5970    8.7010  -22.9230 C.3   135  LEU135      0.0270
    170  CG       -87.4590    8.4600  -21.4040 C.3   135  LEU135      0.0019
    171  CD1      -88.3750    7.3390  -20.9740 C.3   135  LEU135      0.0001
    172  CD2      -86.0270    8.1680  -20.9620 C.3   135  LEU135      0.0001
    173  N        -92.8440   10.4830  -20.5120 N.3   145  ALA145     -0.1231
    174  CA       -92.7150    9.4500  -19.4790 C.3   145  ALA145      0.1694
    175  C        -92.9500   10.0050  -18.0670 C.2   145  ALA145      0.2592
    176  O        -93.3690   11.1550  -17.8830 O.2   145  ALA145     -0.2718
    177  CB       -91.3450    8.8120  -19.5610 C.3   145  ALA145      0.0304
    178  N        -92.6850    9.1620  -17.0760 N.am  146  ASP146     -0.1960
    179  CA       -92.6800    9.5420  -15.6620 C.3   146  ASP146      0.1840
    180  C        -94.0330   10.0310  -15.1670 C.2   146  ASP146      0.2622
    181  O        -94.2680   11.2290  -14.9540 O.2   146  ASP146     -0.2715
    182  CB       -91.5420   10.5170  -15.3880 C.3   146  ASP146      0.1450
    183  CG       -90.2010    9.9450  -15.8310 C.2   146  ASP146      0.3671
    184  OD1      -90.1240    8.6730  -15.9460 O.co2 146  ASP146     -0.2456
    185  OD2      -89.2500   10.7480  -16.0700 O.co2 146  ASP146     -0.2456
    186  N        -94.9030    9.0500  -14.9540 N.am  147  PHE147     -0.1974
    187  CA       -96.2750    9.2760  -14.5470 C.3   147  PHE147      0.1639
    188  C        -96.4240    9.0990  -13.0350 C.2   147  PHE147      0.2290
    189  O        -97.4370    8.6070  -12.5530 O.2   147  PHE147     -0.2864
    190  CB       -97.1900    8.3310  -15.3260 C.3   147  PHE147      0.0560
    191  CG       -96.9830    8.4020  -16.8060 C.ar  147  PHE147     -0.0200
    192  CD1      -97.6640    9.3390  -17.5780 C.ar  147  PHE147     -0.0042
    193  CD2      -96.0710    7.5630  -17.4300 C.ar  147  PHE147     -0.0042
    194  CE1      -97.4550    9.4190  -18.9620 C.ar  147  PHE147     -0.0003
    195  CE2      -95.8580    7.6390  -18.8090 C.ar  147  PHE147     -0.0003
    196  CZ       -96.5570    8.5640  -19.5720 C.ar  147  PHE147     -0.0000
@<TRIPOS>BOND
     1   132   131    1
     2   131   130   ar
     3   131   129   ar
     4   130   128   ar
     5   129   127   ar
     6   128   126   ar
     7   127   126   ar
     8   126   125    1
     9   119   120    1
    10   119   118    1
    11   148   147    2
    12   120   114    1
    13   125   122    1
    14   147   146    1
    15   118   115    1
    16    92    91   ar
    17   113   112    1
    18   121   122    1
    19   121   116   am
    20   112   111    1
    21   114   115    1
    22   114   108   am
    23   122   123    1
    24   115   116    1
    25    93    91   ar
    26    91    90    1
    27    97    96    2
    28   116   117    2
    29   146   145    1
    30   146   149    1
    31   168   167    2
    32   107   108    1
    33   107   110    1
    34   107   106    1
    35   108   109    2
    36   149   150    1
    37   167   166    1
    38   110   111    1
    39   123   124    2
    40   123   133   am
    41    96   106   am
    42    96    95    1
    43    89    90    1
    44    89    86    1
    45   101   103   ar
    46   101    99   ar
    47   103   104   ar
    48    94    95    1
    49    94    87   am
    50   133   134    1
    51    98    95    1
    52    98    99    1
    53    86    87    1
    54    86    85    1
    55    99   100   ar
    56   136   135    2
    57   150   151    1
    58   166   165    1
    59   166   169    1
    60    87    88    2
    61   152   151   ar
    62    63    64    1
    63   104   105    1
    64   104   102   ar
    65   169   170    1
    66    64    65    1
    67    64    67    1
    68   151   153   ar
    69   140   139    2
    70   134   135    1
    71   135   137   am
    72    65    66    2
    73    85    80   am
    74   139   138    1
    75   100   102   ar
    76    69    67    1
    77    68    67    1
    78   137   138    1
    79   170   171    1
    80   170   172    1
    81   138   141    1
    82    80    81    2
    83    80    79    1
    84   173   174    1
    85    79    82    1
    86    79    78    1
    87   141   142    1
    88    32    33    1
    89   143   142    2
    90   196   194   ar
    91   196   195   ar
    92   177   174    1
    93   142   144   am
    94    82    83    1
    95    82    84    1
    96   174   175    1
    97   194   192   ar
    98   154   155    1
    99    36    33    1
   100   195   193   ar
   101     7     6    1
   102    33    34    1
   103    58    57    2
   104     8     6    1
   105   155   156    1
   106   155   158    1
   107   175   176    2
   108   175   178   am
   109   156   157    2
   110    62    61    1
   111     6     5    1
   112   192   191   ar
   113    35    34    2
   114   193   191   ar
   115    57    56    1
   116   178   179    1
   117   191   190    1
   118   158   159    1
   119    56    59    1
   120    56    55    1
   121    24    23    1
   122    59    60    1
   123     5     2    1
   124    60    61    1
   125     9    10    1
   126     9     3   am
   127   185   183   ar
   128   159   160    1
   129   184   183   ar
   130    23    22   ar
   131    23    21   ar
   132     2     3    1
   133     2     1    1
   134   183   182    1
   135    10    11    1
   136   179   182    1
   137   179   180    1
   138    22    20   ar
   139    21    19   ar
   140   190   187    1
   141     3     4    2
   142   180   186   am
   143   180   181    2
   144   186   187    1
   145    73    72    2
   146    72    71    1
   147    20    18   ar
   148    76    74    1
   149    19    18   ar
   150   160   161    1
   151   187   188    1
   152    30    29    1
   153    11    12    2
   154    18    17    1
   155   163   162    1
   156   161   162    2
   157    71    74    1
   158    71    70    1
   159   162   164    1
   160    29    31    1
   161    29    26    1
   162    37    38    1
   163    74    75    1
   164    17    14    1
   165    27    28    2
   166    27    26    1
   167   188   189    2
   168    49    48    2
   169    26    25    1
   170    54    52   ar
   171    41    38    1
   172    41    42    1
   173    38    39    1
   174    75    77    1
   175    14    13    1
   176    14    15    1
   177    16    15    2
   178    48    47    1
   179    51    52    1
   180    51    50    1
   181    52    53   ar
   182    43    42    1
   183    43    44    1
   184    39    40    2
   185    47    50    1
   186    47    46    1
   187    44    45    1
