@<TRIPOS>MOLECULE
tmp/2xynC03.pdb
 97 92 0 0 0
SMALL
GASTEIGER

@<TRIPOS>ATOM
      1  N        -68.2950   35.1690  -19.6530 N.3   163  ALA163     -0.1231
      2  CA       -67.8660   33.8930  -20.2050 C.3   163  ALA163      0.1694
      3  C        -68.9510   32.8970  -19.8330 C.2   163  ALA163      0.2592
      4  O        -69.6030   33.0610  -18.7990 O.2   163  ALA163     -0.2718
      5  CB       -66.5270   33.4760  -19.6230 C.3   163  ALA163      0.0304
      6  N        -69.1640   31.8880  -20.6720 N.am  164  LYS164     -0.1966
      7  CA       -70.1620   30.8520  -20.3980 C.3   164  LYS164      0.1728
      8  C        -69.4670   29.4790  -20.3510 C.2   164  LYS164      0.2616
      9  O        -68.6820   29.1510  -21.2450 O.2   164  LYS164     -0.2715
     10  CB       -71.2610   30.8990  -21.4630 C.3   164  LYS164      0.0311
     11  CG       -72.2210   32.0650  -21.3140 C.3   164  LYS164      0.0038
     12  CD       -72.9730   31.9680  -20.0010 C.3   164  LYS164      0.0206
     13  CE       -74.0000   33.0690  -19.8600 C.3   164  LYS164      0.1093
     14  NZ       -73.3470   34.3910  -19.7110 N.3   164  LYS164     -0.1314
     15  N        -69.7530   28.6950  -19.3070 N.am  165  PHE165     -0.1974
     16  CA       -69.0250   27.4580  -18.9990 C.3   165  PHE165      0.1639
     17  C        -69.9720   26.2800  -18.9780 C.2   165  PHE165      0.2290
     18  O        -71.1660   26.4830  -18.7860 O.2   165  PHE165     -0.2864
     19  CB       -68.4060   27.5750  -17.6030 C.3   165  PHE165      0.0560
     20  CG       -67.7520   28.9120  -17.3280 C.ar  165  PHE165     -0.0200
     21  CD1      -66.4860   29.2060  -17.8330 C.ar  165  PHE165     -0.0042
     22  CD2      -68.4220   29.8860  -16.5900 C.ar  165  PHE165     -0.0042
     23  CE1      -65.8940   30.4560  -17.6130 C.ar  165  PHE165     -0.0003
     24  CE2      -67.8360   31.1440  -16.3620 C.ar  165  PHE165     -0.0003
     25  CZ       -66.5700   31.4270  -16.8780 C.ar  165  PHE165     -0.0000
     26  N        -71.6780   24.0450  -16.9700 N.3   167  ILE167     -0.1245
     27  CA       -71.9720   24.1260  -15.5470 C.3   167  ILE167      0.1561
     28  C        -71.7820   22.8140  -14.7930 C.2   167  ILE167      0.2260
     29  O        -71.2070   22.7930  -13.7110 O.2   167  ILE167     -0.2867
     30  CB       -73.3990   24.6700  -15.3360 C.3   167  ILE167      0.0252
     31  CG1      -73.4850   26.0900  -15.9180 C.3   167  ILE167      0.0019
     32  CG2      -73.7790   24.6220  -13.8680 C.3   167  ILE167      0.0019
     33  CD1      -74.4460   27.0290  -15.1990 C.3   167  ILE167      0.0001
     34  N        -68.0280   29.1040  -11.1220 N.3   175  LEU175     -0.1231
     35  CA       -69.3610   29.6200  -11.3970 C.3   175  LEU175      0.1693
     36  C        -69.5850   30.9590  -10.6870 C.2   175  LEU175      0.2591
     37  O        -70.0840   31.9030  -11.2820 O.2   175  LEU175     -0.2718
     38  CB       -70.4250   28.6140  -10.9560 C.3   175  LEU175      0.0284
     39  CG       -70.4600   27.2940  -11.7310 C.3   175  LEU175      0.0019
     40  CD1      -71.3190   26.2680  -11.0110 C.3   175  LEU175      0.0001
     41  CD2      -70.9600   27.5150  -13.1410 C.3   175  LEU175      0.0001
     42  N        -69.2060   31.0250   -9.4160 N.am  176  ALA176     -0.1980
     43  CA       -69.5010   32.1840   -8.5770 C.3   176  ALA176      0.1597
     44  C        -68.5690   33.3710   -8.8120 C.2   176  ALA176      0.2287
     45  O        -69.0270   34.5150   -8.8570 O.2   176  ALA176     -0.2864
     46  CB       -69.4660   31.7930   -7.1120 C.3   176  ALA176      0.0319
     47  N        -65.8270   33.3680  -11.3250 N.3   178  ASN178     -0.1240
     48  CA       -65.0110   33.2130  -12.5400 C.3   178  ASN178      0.1653
     49  C        -63.5390   32.8420  -12.2700 C.2   178  ASN178      0.2266
     50  O        -62.6550   33.1750  -13.0660 O.2   178  ASN178     -0.2867
     51  CB       -65.0740   34.4870  -13.3960 C.3   178  ASN178      0.1155
     52  CG       -66.1690   34.4460  -14.4650 C.2   178  ASN178      0.2627
     53  OD1      -67.1330   33.6860  -14.3870 O.2   178  ASN178     -0.2716
     54  ND2      -66.0160   35.3020  -15.4700 N.am  178  ASN178     -0.0877
     55  N        -80.0900   23.3400  -14.5520 N.3   209  LEU209     -0.1231
     56  CA       -78.7510   23.9070  -14.4640 C.3   209  LEU209      0.1693
     57  C        -78.7030   25.1390  -13.5720 C.2   209  LEU209      0.2592
     58  O        -77.6680   25.4340  -12.9820 O.2   209  LEU209     -0.2718
     59  CB       -78.2240   24.2740  -15.8530 C.3   209  LEU209      0.0284
     60  CG       -77.8900   23.1270  -16.8180 C.3   209  LEU209      0.0019
     61  CD1      -77.5730   23.6360  -18.2250 C.3   209  LEU209      0.0001
     62  CD2      -76.7870   22.2490  -16.2960 C.3   209  LEU209      0.0001
     63  N        -79.8050   25.8720  -13.4560 N.am  210  SER210     -0.1952
     64  CA       -79.7900   27.0720  -12.6170 C.3   210  SER210      0.1924
     65  C        -79.8620   26.7300  -11.1200 C.2   210  SER210      0.2314
     66  O        -79.5930   27.5850  -10.3020 O.2   210  SER210     -0.2863
     67  CB       -80.9130   28.0250  -13.0230 C.3   210  SER210      0.2116
     68  OG       -82.1740   27.5070  -12.5780 O.3   210  SER210     -0.2180
     69  N        -75.7030   25.0830   -8.6600 N.3   213  TYR213     -0.1227
     70  CA       -74.8990   25.7640   -7.6460 C.3   213  TYR213      0.1736
     71  C        -75.5050   25.7030   -6.2420 C.2   213  TYR213      0.2595
     72  O        -74.8210   25.3590   -5.2890 O.2   213  TYR213     -0.2718
     73  CB       -74.6630   27.2120   -8.0360 C.3   213  TYR213      0.0548
     74  CG       -73.7630   27.9330   -7.0570 C.ar  213  TYR213     -0.0200
     75  CD1      -74.2880   28.5440   -5.9140 C.ar  213  TYR213     -0.0009
     76  CD2      -72.3870   28.0040   -7.2670 C.ar  213  TYR213     -0.0009
     77  CE1      -73.4650   29.1920   -5.0050 C.ar  213  TYR213      0.0417
     78  CE2      -71.5500   28.6730   -6.3570 C.ar  213  TYR213      0.0417
     79  CZ       -72.1040   29.2520   -5.2360 C.ar  213  TYR213      0.1957
     80  OH       -71.3070   29.8960   -4.3490 O.3   213  TYR213     -0.2866
     81  N        -76.7810   26.0400   -6.1090 N.am  214  ASP214     -0.1974
     82  CA       -77.4310   26.0290   -4.7870 C.3   214  ASP214      0.1709
     83  C        -77.5540   24.6060   -4.2320 C.2   214  ASP214      0.2293
     84  O        -77.4390   24.4010   -3.0280 O.2   214  ASP214     -0.2864
     85  CB       -78.8120   26.7060   -4.8300 C.3   214  ASP214      0.1436
     86  CG       -78.7280   28.1880   -5.2270 C.2   214  ASP214      0.3671
     87  OD1      -77.6620   28.7510   -5.2810 O.co2 214  ASP214     -0.2456
     88  OD2      -79.8720   28.7440   -5.4730 O.co2 214  ASP214     -0.2456
     89  N        -74.0720   23.9910   -3.0220 N.3   217  GLU217     -0.1245
     90  CA       -73.8230   24.7650   -1.7900 C.3   217  GLU217      0.1567
     91  C        -74.5510   24.1450   -0.5990 C.2   217  GLU217      0.2260
     92  O        -74.0270   24.1530    0.5100 O.2   217  GLU217     -0.2867
     93  CB       -74.2080   26.2560   -1.9230 C.3   217  GLU217      0.0388
     94  CG       -73.9510   27.0720   -0.6940 C.3   217  GLU217      0.1160
     95  CD       -74.1960   28.5450   -0.8170 C.2   217  GLU217      0.3649
     96  OE1      -74.6610   28.9970   -1.8420 O.co2 217  GLU217     -0.2457
     97  OE2      -74.0900   29.3150    0.1500 O.co2 217  GLU217     -0.2457
@<TRIPOS>BOND
     1    10    11    1
     2    10     7    1
     3    11    12    1
     4     9     8    2
     5     6     7    1
     6     6     3   am
     7     7     8    1
     8     8    15   am
     9     2     3    1
    10     2     1    1
    11     2     5    1
    12    12    13    1
    13    13    14    1
    14     3     4    2
    15    15    16    1
    16    16    17    1
    17    16    19    1
    18    17    18    2
    19    61    60    1
    20    21    23   ar
    21    21    20   ar
    22    23    25   ar
    23    19    20    1
    24    20    22   ar
    25    26    27    1
    26    25    24   ar
    27    60    62    1
    28    60    59    1
    29    22    24   ar
    30    31    30    1
    31    31    33    1
    32    59    56    1
    33    27    30    1
    34    27    28    1
    35    54    52   am
    36    30    32    1
    37    28    29    2
    38    55    56    1
    39    52    53    2
    40    52    51    1
    41    56    57    1
    42    57    63   am
    43    57    58    2
    44    63    64    1
    45    51    48    1
    46    41    39    1
    47    50    49    2
    48    67    64    1
    49    67    68    1
    50    64    65    1
    51    48    49    1
    52    48    47    1
    53    39    40    1
    54    39    38    1
    55    35    34    1
    56    35    38    1
    57    35    36    1
    58    37    36    2
    59    65    66    2
    60    36    42   am
    61    42    43    1
    62    45    44    2
    63    44    43    1
    64    69    70    1
    65    43    46    1
    66    73    70    1
    67    73    74    1
    68    70    71    1
    69    76    74   ar
    70    76    78   ar
    71    74    75   ar
    72    78    79   ar
    73    71    81   am
    74    71    72    2
    75    81    82    1
    76    75    77   ar
    77    88    86   ar
    78    87    86   ar
    79    79    77   ar
    80    79    80    1
    81    86    85    1
    82    85    82    1
    83    82    83    1
    84    83    84    2
    85    89    90    1
    86    93    90    1
    87    93    94    1
    88    96    95   ar
    89    90    91    1
    90    95    94    1
    91    95    97   ar
    92    91    92    2
