@<TRIPOS>MOLECULE
tmp/2xypA00.pdb
 85 81 0 0 0
SMALL
GASTEIGER

@<TRIPOS>ATOM
      1  N         27.3640   45.0950   26.2120 N.3    31  THR31      -0.1203
      2  CA        28.1200   44.5570   27.3400 C.3    31  THR31       0.1994
      3  C         29.6010   44.4970   26.9920 C.2    31  THR31       0.2618
      4  O         30.4610   44.5280   27.8720 O.2    31  THR31      -0.2717
      5  CB        27.6630   43.1280   27.7110 C.3    31  THR31       0.1784
      6  OG1       28.0380   42.2220   26.6670 O.3    31  THR31      -0.2211
      7  CG2       26.1530   43.0820   27.8980 C.3    31  THR31       0.0376
      8  N         29.8900   44.4040   25.7000 N.am   32  GLY32      -0.1942
      9  CA        31.2710   44.3290   25.2660 C.3    32  GLY32       0.2014
     10  C         31.8460   42.9510   25.5280 C.2    32  GLY32       0.2639
     11  O         33.0650   42.7720   25.5520 O.2    32  GLY32      -0.2714
     12  N         30.9670   41.9750   25.7310 N.am   33  MET33      -0.1963
     13  CA        31.3970   40.6070   25.9820 C.3    33  MET33       0.1736
     14  C         31.4730   39.8410   24.6670 C.2    33  MET33       0.2617
     15  O         30.5720   39.9260   23.8320 O.2    33  MET33      -0.2715
     16  CB        30.4350   39.9090   26.9490 C.3    33  MET33       0.0427
     17  CG        30.3260   40.6000   28.3000 C.3    33  MET33       0.0599
     18  SD        29.6470   39.5690   29.6180 S.3    33  MET33      -0.1393
     19  CE        27.9590   40.1760   29.6700 C.3    33  MET33       0.0692
     20  N         32.5590   39.0980   24.4890 N.am   34  THR34      -0.1951
     21  CA        32.7710   38.3270   23.2730 C.3    34  THR34       0.1897
     22  C         31.9640   37.0400   23.2600 C.2    34  THR34       0.2313
     23  O         31.5450   36.5420   24.3070 O.2    34  THR34      -0.2863
     24  CB        34.2560   37.9630   23.1040 C.3    34  THR34       0.1794
     25  OG1       34.6710   37.1290   24.1940 O.3    34  THR34      -0.2208
     26  CG2       35.1080   39.2170   23.0800 C.3    34  THR34       0.0378
     27  N         30.3130   33.6510   30.6770 N.3    93  HIS93      -0.1226
     28  CA        31.4210   34.4570   31.1600 C.3    93  HIS93       0.1752
     29  C         31.1130   34.5810   32.6470 C.2    93  HIS93       0.2597
     30  O         29.9860   34.3240   33.0660 O.2    93  HIS93      -0.2718
     31  CB        31.4020   35.8590   30.5430 C.3    93  HIS93       0.0759
     32  CG        31.7310   35.8940   29.0850 C.ar   93  HIS93       0.0818
     33  ND1       32.9170   35.4090   28.5780 N.ar   93  HIS93      -0.2268
     34  CD2       31.0450   36.3890   28.0280 C.ar   93  HIS93       0.1154
     35  CE1       32.9470   35.6040   27.2710 C.ar   93  HIS93       0.1986
     36  NE2       31.8230   36.1970   26.9130 N.ar   93  HIS93      -0.2212
     37  N         32.0970   34.9720   33.4440 N.am   94  GLY94      -0.1942
     38  CA        31.8390   35.1270   34.8630 C.3    94  GLY94       0.2014
     39  C         32.9700   35.7670   35.6360 C.2    94  GLY94       0.2638
     40  O         34.0230   36.0730   35.0820 O.2    94  GLY94      -0.2714
     41  N         32.7260   35.9890   36.9240 N.am   95  GLU95      -0.1977
     42  CA        33.7100   36.5560   37.8390 C.3    95  GLU95       0.1602
     43  C         33.4690   35.8230   39.1480 C.2    95  GLU95       0.2287
     44  O         32.5280   35.0340   39.2460 O.2    95  GLU95      -0.2864
     45  CB        33.4800   38.0530   38.0460 C.3    95  GLU95       0.0415
     46  CG        33.5770   38.8800   36.7840 C.3    95  GLU95       0.1163
     47  CD        33.6270   40.3640   37.0750 C.2    95  GLU95       0.3649
     48  OE1       32.7500   40.8610   37.8130 O.co2  95  GLU95      -0.2457
     49  OE2       34.5450   41.0330   36.5630 O.co2  95  GLU95      -0.2457
     50  N         27.3820   35.4430   34.1010 N.3   100  PHE100     -0.1241
     51  CA        26.8100   36.4650   33.2440 C.3   100  PHE100      0.1605
     52  C         25.6600   36.0740   32.3380 C.2   100  PHE100      0.2264
     53  O         25.7120   35.0670   31.6280 O.2   100  PHE100     -0.2867
     54  CB        27.9120   37.1000   32.3910 C.3   100  PHE100      0.0534
     55  CG        28.6830   38.1660   33.1050 C.ar  100  PHE100     -0.0203
     56  CD1       28.1970   39.4710   33.1660 C.ar  100  PHE100     -0.0042
     57  CD2       29.8780   37.8650   33.7470 C.ar  100  PHE100     -0.0042
     58  CE1       28.8940   40.4600   33.8580 C.ar  100  PHE100     -0.0003
     59  CE2       30.5810   38.8450   34.4410 C.ar  100  PHE100     -0.0003
     60  CZ        30.0880   40.1460   34.4960 C.ar  100  PHE100     -0.0000
     61  N         34.6870   31.8730   34.3570 N.3   135  CYS135     -0.1235
     62  CA        35.8300   32.4180   35.0770 C.3   135  CYS135      0.1677
     63  C         35.4010   32.8210   36.4800 C.2   135  CYS135      0.2270
     64  O         34.2280   33.1110   36.7220 O.2   135  CYS135     -0.2867
     65  CB        36.3870   33.6480   34.3580 C.3   135  CYS135      0.0956
     66  SG        36.8670   33.3170   32.6660 S.3   135  CYS135     -0.0801
     67  N         37.5820   34.9670   38.0420 N.3   137  GLY137     -0.1210
     68  CA        38.5480   36.0320   38.1960 C.3   137  GLY137      0.1956
     69  C         39.4380   36.0490   36.9730 C.2   137  GLY137      0.2612
     70  O         39.1140   35.4350   35.9570 O.2   137  GLY137     -0.2717
     71  N         40.5700   36.7300   37.0710 N.am  138  THR138     -0.1952
     72  CA        41.4770   36.8380   35.9380 C.3   138  THR138      0.1897
     73  C         42.8350   36.1870   36.1550 C.2   138  THR138      0.2313
     74  O         43.6720   36.1870   35.2530 O.2   138  THR138     -0.2863
     75  CB        41.7000   38.3130   35.5790 C.3   138  THR138      0.1794
     76  OG1       42.1530   39.0150   36.7430 O.3   138  THR138     -0.2208
     77  CG2       40.4060   38.9410   35.0950 C.3   138  THR138      0.0378
     78  N         45.9310   33.6740   36.3730 N.3   140  LEU140     -0.1245
     79  CA        46.3820   32.6010   35.4890 C.3   140  LEU140      0.1561
     80  C         47.3780   31.7310   36.2470 C.2   140  LEU140      0.2260
     81  O         48.2760   32.2430   36.9170 O.2   140  LEU140     -0.2867
     82  CB        47.0410   33.1930   34.2370 C.3   140  LEU140      0.0270
     83  CG        46.1200   34.0460   33.3550 C.3   140  LEU140      0.0019
     84  CD1       46.9400   34.7840   32.3060 C.3   140  LEU140      0.0001
     85  CD2       45.0690   33.1590   32.6980 C.3   140  LEU140      0.0001
@<TRIPOS>BOND
     1    26    24    1
     2    24    21    1
     3    24    25    1
     4    22    21    1
     5    22    23    2
     6    21    20    1
     7    15    14    2
     8    20    14   am
     9    14    13    1
    10     9    10    1
    11     9     8    1
    12    10    11    2
    13    10    12   am
    14     8     3   am
    15    12    13    1
    16    13    16    1
    17     1     2    1
    18     6     5    1
    19    36    35   ar
    20    36    34   ar
    21    16    17    1
    22     3     2    1
    23     3     4    2
    24    35    33   ar
    25     2     5    1
    26     5     7    1
    27    34    32   ar
    28    17    18    1
    29    33    32   ar
    30    32    31    1
    31    18    19    1
    32    31    28    1
    33    27    28    1
    34    28    29    1
    35    53    52    2
    36    84    83    1
    37    52    51    1
    38    54    55    1
    39    54    51    1
    40    29    30    2
    41    29    37   am
    42    66    65    1
    43    85    83    1
    44    55    56   ar
    45    55    57   ar
    46    56    58   ar
    47    51    50    1
    48    83    82    1
    49    37    38    1
    50    57    59   ar
    51    58    60   ar
    52    82    79    1
    53    61    62    1
    54    65    62    1
    55    59    60   ar
    56    38    39    1
    57    62    63    1
    58    40    39    2
    59    77    75    1
    60    74    73    2
    61    79    80    1
    62    79    78    1
    63    75    72    1
    64    75    76    1
    65    39    41   am
    66    72    73    1
    67    72    71    1
    68    70    69    2
    69    80    81    2
    70    63    64    2
    71    49    47   ar
    72    46    47    1
    73    46    45    1
    74    41    42    1
    75    69    71   am
    76    69    68    1
    77    47    48   ar
    78    42    45    1
    79    42    43    1
    80    67    68    1
    81    43    44    2
