@<TRIPOS>MOLECULE
tmp/2xyrA00.pdb
 168 163 0 0 0
SMALL
GASTEIGER

@<TRIPOS>ATOM
      1  N         34.3240   58.2580   -0.8360 N.3    41  ASN41      -0.1240
      2  CA        34.7780   58.9870   -2.0070 C.3    41  ASN41       0.1653
      3  C         34.0080   58.7810   -3.2940 C.2    41  ASN41       0.2266
      4  O         33.9110   59.6900   -4.1190 O.2    41  ASN41      -0.2867
      5  CB        36.2910   58.8660   -2.1960 C.3    41  ASN41       0.1155
      6  CG        37.0450   59.6360   -1.1300 C.2    41  ASN41       0.2627
      7  OD1       36.4800   60.5530   -0.5150 O.2    41  ASN41      -0.2716
      8  ND2       38.3010   59.2490   -0.8660 N.am   41  ASN41      -0.0877
      9  N         32.4410   62.2180   -4.6990 N.3    45  TYR45      -0.1241
     10  CA        32.6380   62.5790   -6.1090 C.3    45  TYR45       0.1605
     11  C         31.3680   62.4660   -6.9350 C.2    45  TYR45       0.2264
     12  O         31.1740   63.2390   -7.8810 O.2    45  TYR45      -0.2867
     13  CB        33.6780   61.6860   -6.7670 C.3    45  TYR45       0.0534
     14  CG        35.0990   62.1040   -6.5910 C.ar   45  TYR45      -0.0201
     15  CD1       35.7410   61.9860   -5.3510 C.ar   45  TYR45      -0.0009
     16  CD2       35.8360   62.5790   -7.6780 C.ar   45  TYR45      -0.0009
     17  CE1       37.0680   62.3430   -5.1960 C.ar   45  TYR45       0.0417
     18  CE2       37.1690   62.9320   -7.5430 C.ar   45  TYR45       0.0417
     19  CZ        37.7800   62.8110   -6.2990 C.ar   45  TYR45       0.1957
     20  OH        39.1010   63.1680   -6.1590 O.3    45  TYR45      -0.2866
     21  N         43.1740   64.8190  -13.2350 N.3    67  HIS67      -0.1241
     22  CA        42.7090   64.5920  -11.8610 C.3    67  HIS67       0.1621
     23  C         43.8790   64.4640  -10.8970 C.2    67  HIS67       0.2264
     24  O         44.6080   63.4770  -10.9200 O.2    67  HIS67      -0.2867
     25  CB        41.8300   63.3430  -11.8120 C.3    67  HIS67       0.0745
     26  CG        41.2680   63.0200  -10.4580 C.ar   67  HIS67       0.0817
     27  ND1       40.9370   61.7350  -10.0810 N.ar   67  HIS67      -0.2268
     28  CD2       40.9240   63.8140   -9.4130 C.ar   67  HIS67       0.1154
     29  CE1       40.4310   61.7490   -8.8600 C.ar   67  HIS67       0.1986
     30  NE2       40.4120   62.9990   -8.4330 N.ar   67  HIS67      -0.2212
     31  N         45.5030   64.1140   -7.0470 N.3    69  GLY69      -0.1210
     32  CA        45.2000   63.5210   -5.7560 C.3    69  GLY69       0.1956
     33  C         44.2150   62.3930   -5.9230 C.2    69  GLY69       0.2612
     34  O         43.2920   62.2590   -5.1200 O.2    69  GLY69      -0.2717
     35  N         44.4250   61.5850   -6.9680 N.am   70  ALA70      -0.1965
     36  CA        43.4990   60.5160   -7.3590 C.3    70  ALA70       0.1728
     37  C         43.6720   59.2260   -6.5750 C.2    70  ALA70       0.2617
     38  O         42.7590   58.4080   -6.5180 O.2    70  ALA70      -0.2715
     39  CB        43.6200   60.2260   -8.8390 C.3    70  ALA70       0.0334
     40  N         44.8500   59.0210   -6.0020 N.am   71  GLY71      -0.1940
     41  CA        45.1270   57.7780   -5.3060 C.3    71  GLY71       0.2014
     42  C         44.6510   57.8540   -3.8770 C.2    71  GLY71       0.2639
     43  O         44.1650   58.8860   -3.4410 O.2    71  GLY71      -0.2714
     44  N         44.7900   56.7540   -3.1490 N.am   72  SER72      -0.1949
     45  CA        44.3980   56.6910   -1.7420 C.3    72  SER72       0.1924
     46  C         45.2040   55.6070   -1.0190 C.2    72  SER72       0.2314
     47  O         45.9360   54.8440   -1.6560 O.2    72  SER72      -0.2863
     48  CB        42.8820   56.4520   -1.6070 C.3    72  SER72       0.2116
     49  OG        42.4920   55.1770   -2.0920 O.3    72  SER72      -0.2180
     50  N         38.8430   55.6960   -6.3310 N.3    78  PRO78      -0.2102
     51  CA        37.3820   55.7690   -6.3890 C.3    78  PRO78       0.1504
     52  C         36.8830   57.0160   -7.1360 C.2    78  PRO78       0.2576
     53  O         35.9420   56.9250   -7.9100 O.2    78  PRO78      -0.2718
     54  CB        36.9650   55.8070   -4.9070 C.3    78  PRO78       0.0282
     55  CG        38.2180   55.4390   -4.1290 C.3    78  PRO78       0.0208
     56  CD        39.3530   55.8770   -4.9600 C.3    78  PRO78       0.0893
     57  N         37.5160   58.1590   -6.8980 N.am   79  GLY79      -0.1957
     58  CA        37.1470   59.4120   -7.5360 C.3    79  GLY79       0.1869
     59  C         37.3160   59.3480   -9.0410 C.2    79  GLY79       0.2309
     60  O         36.4570   59.8150   -9.8080 O.2    79  GLY79      -0.2863
     61  N         46.6530   61.5000  -11.1880 N.3    96  SER96      -0.1202
     62  CA        47.9570   61.6640  -10.6160 C.3    96  SER96       0.2020
     63  C         47.8640   61.5380   -9.1160 C.2    96  SER96       0.2619
     64  O         46.8160   61.8340   -8.5290 O.2    96  SER96      -0.2717
     65  CB        48.5250   63.0240  -11.0180 C.3    96  SER96       0.2103
     66  OG        49.8360   63.1730  -10.5270 O.3    96  SER96      -0.2182
     67  N         48.9490   61.0590   -8.5110 N.am   97  ASP97      -0.1959
     68  CA        49.0940   61.0140   -7.0540 C.3    97  ASP97       0.1840
     69  C         50.5530   60.7850   -6.6810 C.2    97  ASP97       0.2622
     70  O         51.3290   60.2030   -7.4520 O.2    97  ASP97      -0.2715
     71  CB        48.1970   59.9330   -6.4210 C.3    97  ASP97       0.1450
     72  CG        48.0590   60.0860   -4.9000 C.2    97  ASP97       0.3671
     73  OD1       48.9980   59.6890   -4.1690 O.co2  97  ASP97      -0.2456
     74  OD2       47.0130   60.5980   -4.4250 O.co2  97  ASP97      -0.2456
     75  N         50.9040   61.2410   -5.4820 N.am   98  LEU98      -0.1963
     76  CA        52.2370   61.0850   -4.9240 C.3    98  LEU98       0.1728
     77  C         52.6630   59.6080   -4.7710 C.2    98  LEU98       0.2616
     78  O         53.8280   59.2660   -5.0250 O.2    98  LEU98      -0.2715
     79  CB        52.3200   61.8590   -3.6000 C.3    98  LEU98       0.0311
     80  CG        53.5440   61.7590   -2.6840 C.3    98  LEU98       0.0022
     81  CD1       54.8940   61.9980   -3.4180 C.3    98  LEU98       0.0001
     82  CD2       53.3660   62.7140   -1.5030 C.3    98  LEU98       0.0001
     83  N         51.7180   58.7450   -4.3840 N.am   99  ASN99      -0.1972
     84  CA        51.9690   57.3100   -4.2140 C.3    99  ASN99       0.1688
     85  C         51.2370   56.4510   -5.2390 C.2    99  ASN99       0.2292
     86  O         50.2040   56.8520   -5.7850 O.2    99  ASN99      -0.2864
     87  CB        51.5790   56.8590   -2.8090 C.3    99  ASN99       0.1181
     88  CG        52.1860   57.7320   -1.7220 C.2    99  ASN99       0.2629
     89  OD1       51.4570   58.3520   -0.9340 O.2    99  ASN99      -0.2716
     90  ND2       53.5270   57.7930   -1.6730 N.am   99  ASN99      -0.0877
     91  N         54.1210   60.3550   -8.5700 N.3   111  GLY111     -0.1210
     92  CA        55.1390   61.2970   -8.1390 C.3   111  GLY111      0.1956
     93  C         54.4840   62.5430   -7.5980 C.2   111  GLY111      0.2612
     94  O         53.2740   62.7340   -7.7500 O.2   111  GLY111     -0.2717
     95  N         55.2770   63.3940   -6.9520 N.am  112  ASP112     -0.1959
     96  CA        54.7830   64.6880   -6.5020 C.3   112  ASP112      0.1840
     97  C         54.1920   65.3870   -7.7110 C.2   112  ASP112      0.2622
     98  O         54.7400   65.2850   -8.8140 O.2   112  ASP112     -0.2715
     99  CB        55.9200   65.5280   -5.9210 C.3   112  ASP112      0.1450
    100  CG        55.4180   66.7260   -5.1150 C.2   112  ASP112      0.3671
    101  OD1       54.5660   67.5000   -5.6160 O.co2 112  ASP112     -0.2456
    102  OD2       55.8920   66.9000   -3.9690 O.co2 112  ASP112     -0.2456
    103  N         53.0790   66.0860   -7.5170 N.am  113  CYS113     -0.1968
    104  CA        52.4450   66.8020   -8.6300 C.3   113  CYS113      0.1712
    105  C         53.3390   67.8750   -9.2830 C.2   113  CYS113      0.2296
    106  O         53.1460   68.2030  -10.4520 O.2   113  CYS113     -0.2864
    107  CB        51.0780   67.3740   -8.2280 C.3   113  CYS113      0.0983
    108  SG        51.1150   68.7610   -7.0650 S.3   113  CYS113     -0.0798
    109  N         41.8780   66.6090   -5.5120 N.3   128  ASP128     -0.1225
    110  CA        41.5220   66.1450   -4.1730 C.3   128  ASP128      0.1805
    111  C         42.7710   66.0500   -3.2930 C.2   128  ASP128      0.2598
    112  O         42.7690   65.3660   -2.2700 O.2   128  ASP128     -0.2718
    113  CB        40.8020   64.7990   -4.2320 C.3   128  ASP128      0.1424
    114  CG        40.0970   64.4570   -2.9280 C.2   128  ASP128      0.3668
    115  OD1       39.7250   65.3940   -2.1960 O.co2 128  ASP128     -0.2456
    116  OD2       39.9040   63.2610   -2.6200 O.co2 128  ASP128     -0.2456
    117  N         43.8320   66.7450   -3.6910 N.am  129  MET129     -0.1965
    118  CA        45.0710   66.7120   -2.9370 C.3   129  MET129      0.1736
    119  C         44.9090   67.2310   -1.5240 C.2   129  MET129      0.2616
    120  O         44.2060   68.2050   -1.2780 O.2   129  MET129     -0.2715
    121  CB        46.1830   67.4390   -3.6710 C.3   129  MET129      0.0427
    122  CG        46.7880   66.5760   -4.7470 C.3   129  MET129      0.0599
    123  SD        48.1470   67.3070   -5.6490 S.3   129  MET129     -0.1393
    124  CE        47.4030   68.7880   -6.3460 C.3   129  MET129      0.0692
    125  N         45.5540   66.5300   -0.6020 N.am  130  TYR130     -0.1960
    126  CA        45.4490   66.7980    0.8250 C.3   130  TYR130      0.1771
    127  C         46.6440   66.2560    1.6010 C.2   130  TYR130      0.2619
    128  O         47.0770   65.1150    1.4030 O.2   130  TYR130     -0.2715
    129  CB        44.1650   66.1780    1.3860 C.3   130  TYR130      0.0574
    130  CG        43.9280   66.4560    2.8520 C.ar  130  TYR130     -0.0198
    131  CD1       43.6130   67.7370    3.2890 C.ar  130  TYR130     -0.0009
    132  CD2       43.9990   65.4320    3.8020 C.ar  130  TYR130     -0.0009
    133  CE1       43.3780   68.0030    4.6290 C.ar  130  TYR130      0.0417
    134  CE2       43.7620   65.6910    5.1550 C.ar  130  TYR130      0.0417
    135  CZ        43.4580   66.9830    5.5540 C.ar  130  TYR130      0.1957
    136  OH        43.2240   67.2720    6.8720 O.3   130  TYR130     -0.2866
    137  N         47.1560   67.0910    2.4930 N.am  131  ASP131     -0.1971
    138  CA        48.1930   66.7100    3.4430 C.3   131  ASP131      0.1709
    139  C         47.6240   66.9180    4.8520 C.2   131  ASP131      0.2293
    140  O         47.1480   68.0220    5.1620 O.2   131  ASP131     -0.2864
    141  CB        49.4380   67.5860    3.2310 C.3   131  ASP131      0.1436
    142  CG        50.6480   67.1190    4.0460 C.2   131  ASP131      0.3671
    143  OD1       50.5950   66.0170    4.6580 O.co2 131  ASP131     -0.2456
    144  OD2       51.6540   67.8750    4.0630 O.co2 131  ASP131     -0.2456
    145  N         52.8160   74.2130   -0.8360 N.3   142  GLY142     -0.1210
    146  CA        52.8200   72.8230   -1.2910 C.3   142  GLY142      0.1956
    147  C         52.2060   72.7060   -2.6740 C.2   142  GLY142      0.2611
    148  O         52.5140   73.5170   -3.5730 O.2   142  GLY142     -0.2717
    149  N         51.3180   71.7210   -2.8370 N.am  143  PHE143     -0.1976
    150  CA        50.6340   71.4950   -4.1080 C.3   143  PHE143      0.1639
    151  C         49.8410   72.6960   -4.5890 C.2   143  PHE143      0.2290
    152  O         49.7050   72.9050   -5.7890 O.2   143  PHE143     -0.2864
    153  CB        49.7480   70.2360   -4.0730 C.3   143  PHE143      0.0560
    154  CG        48.7070   70.2310   -2.9810 C.ar  143  PHE143     -0.0200
    155  CD1       47.5210   70.9340   -3.1230 C.ar  143  PHE143     -0.0042
    156  CD2       48.9030   69.4900   -1.8260 C.ar  143  PHE143     -0.0042
    157  CE1       46.5570   70.9220   -2.1200 C.ar  143  PHE143     -0.0003
    158  CE2       47.9470   69.4650   -0.8110 C.ar  143  PHE143     -0.0003
    159  CZ        46.7750   70.1880   -0.9580 C.ar  143  PHE143     -0.0000
    160  N         39.7970   70.7190   -3.8390 N.3   164  LYS164     -0.1245
    161  CA        39.4550   70.4250   -2.4730 C.3   164  LYS164      0.1561
    162  C         40.2430   71.2690   -1.4760 C.2   164  LYS164      0.2260
    163  O         41.4710   71.3520   -1.5230 O.2   164  LYS164     -0.2867
    164  CB        39.6310   68.9370   -2.2250 C.3   164  LYS164      0.0271
    165  CG        39.0200   68.4360   -0.9510 C.3   164  LYS164      0.0035
    166  CD        40.0760   68.3620    0.1400 C.3   164  LYS164      0.0206
    167  CE        39.8130   67.2580    1.1200 C.3   164  LYS164      0.1093
    168  NZ        39.8540   65.9620    0.4430 N.3   164  LYS164     -0.1314
@<TRIPOS>BOND
     1    21    22    1
     2    22    25    1
     3    22    23    1
     4    25    26    1
     5    61    62    1
     6    65    62    1
     7    65    66    1
     8    24    23    2
     9    62    63    1
    10    26    27   ar
    11    26    28   ar
    12   106   105    2
    13    27    29   ar
    14    60    59    2
    15    28    30   ar
    16   105   104    1
    17    63    64    2
    18    63    67   am
    19    59    58    1
    20    29    30   ar
    21    39    36    1
    22    98    97    2
    23   104   107    1
    24   104   103    1
    25    91    92    1
    26    67    68    1
    27   107   108    1
    28    92    93    1
    29    53    52    2
    30    12    11    2
    31    94    93    2
    32    97   103   am
    33    97    96    1
    34    16    18   ar
    35    16    14   ar
    36    93    95   am
    37    18    19   ar
    38    58    57    1
    39    70    69    2
    40    36    35    1
    41    36    37    1
    42    52    57   am
    43    52    51    1
    44    68    69    1
    45    68    71    1
    46    31    32    1
    47    35    33   am
    48    95    96    1
    49    11    10    1
    50    13    14    1
    51    13    10    1
    52    69    75   am
    53    14    15   ar
    54    37    38    2
    55    37    40   am
    56    96    99    1
    57    71    72    1
    58    51    50    1
    59    51    54    1
    60   124   123    1
    61    50    56    1
    62    19    20    1
    63    19    17   ar
    64    10     9    1
    65    40    41    1
    66    33    32    1
    67    33    34    2
    68    99   100    1
    69   152   151    2
    70    86    85    2
    71   123   122    1
    72   101   100   ar
    73   109   110    1
    74    75    76    1
    75    15    17   ar
    76    41    42    1
    77    85    84    1
    78   100   102   ar
    79    78    77    2
    80    56    55    1
    81    76    77    1
    82    76    79    1
    83    54    55    1
    84    72    74   ar
    85    72    73   ar
    86    77    83   am
    87   122   121    1
    88   151   150    1
    89    83    84    1
    90   113   110    1
    91   113   114    1
    92    84    87    1
    93   110   111    1
    94     4     3    2
    95   150   153    1
    96   150   149    1
    97   153   154    1
    98    42    43    2
    99    42    44   am
   100   160   161    1
   101   117   111   am
   102   117   118    1
   103   121   118    1
   104    79    80    1
   105   148   147    2
   106    81    80    1
   107     3     2    1
   108   111   112    2
   109    44    45    1
   110   155   154   ar
   111   155   157   ar
   112   154   156   ar
   113   118   119    1
   114   114   116   ar
   115   114   115   ar
   116   149   147   am
   117    87    88    1
   118    80    82    1
   119   147   146    1
   120   161   164    1
   121   161   162    1
   122   164   165    1
   123     5     2    1
   124     5     6    1
   125   157   159   ar
   126    49    48    1
   127     2     1    1
   128   156   158   ar
   129    45    48    1
   130    45    46    1
   131    88    90   am
   132    88    89    2
   133    47    46    2
   134   119   120    2
   135   119   125   am
   136   163   162    2
   137   146   145    1
   138     6     8   am
   139     6     7    2
   140   159   158   ar
   141   165   166    1
   142   125   126    1
   143   166   167    1
   144   168   167    1
   145   126   129    1
   146   126   127    1
   147   129   130    1
   148   128   127    2
   149   127   137   am
   150   137   138    1
   151   130   131   ar
   152   130   132   ar
   153   141   138    1
   154   141   142    1
   155   131   133   ar
   156   138   139    1
   157   132   134   ar
   158   142   144   ar
   159   142   143   ar
   160   133   135   ar
   161   139   140    2
   162   134   135   ar
   163   135   136    1
