@<TRIPOS>MOLECULE
tmp/2xytI00.pdb
 90 81 0 0 0
SMALL
GASTEIGER

@<TRIPOS>ATOM
      1  N         84.1290  114.3210   70.8910 N.3    34  THR34      -0.1218
      2  CA        83.5760  115.1160   69.7940 C.3    34  THR34       0.1862
      3  C         82.7810  116.2500   70.4380 C.2    34  THR34       0.2287
      4  O         81.6350  116.0660   70.8300 O.2    34  THR34      -0.2866
      5  CB        82.6290  114.2620   68.9370 C.3    34  THR34       0.1770
      6  OG1       83.3520  113.1540   68.3790 O.3    34  THR34      -0.2211
      7  CG2       81.9820  115.0950   67.8270 C.3    34  THR34       0.0375
      8  N         79.9710  114.1160   72.2730 N.3    53  TYR53      -0.1241
      9  CA        79.9100  112.6670   72.1240 C.3    53  TYR53       0.1605
     10  C         81.2070  112.1620   72.7090 C.2    53  TYR53       0.2264
     11  O         82.2820  112.6900   72.3850 O.2    53  TYR53      -0.2867
     12  CB        79.9080  112.2390   70.6510 C.3    53  TYR53       0.0534
     13  CG        78.7370  112.6780   69.8080 C.ar   53  TYR53      -0.0201
     14  CD1       77.6410  113.3230   70.3610 C.ar   53  TYR53      -0.0009
     15  CD2       78.7380  112.4330   68.4410 C.ar   53  TYR53      -0.0009
     16  CE1       76.5720  113.7130   69.5550 C.ar   53  TYR53       0.0417
     17  CE2       77.6850  112.8070   67.6440 C.ar   53  TYR53       0.0417
     18  CZ        76.6120  113.4460   68.1960 C.ar   53  TYR53       0.1957
     19  OH        75.5730  113.7920   67.3670 O.3    53  TYR53      -0.2866
     20  N         83.5070  109.0170   72.7100 N.3    55  GLN55      -0.1245
     21  CA        83.8280  107.7090   72.1420 C.3    55  GLN55       0.1566
     22  C         84.6480  106.8610   73.1240 C.2    55  GLN55       0.2260
     23  O         85.6260  107.3390   73.6910 O.2    55  GLN55      -0.2867
     24  CB        84.5820  107.8410   70.8070 C.3    55  GLN55       0.0367
     25  CG        84.8710  106.4770   70.1530 C.3    55  GLN55       0.0905
     26  CD        85.8200  106.5390   68.9540 C.2    55  GLN55       0.2608
     27  OE1       86.0970  105.5150   68.3230 O.2    55  GLN55      -0.2717
     28  NE2       86.3040  107.7350   68.6260 N.am   55  GLN55      -0.0878
     29  N         86.3890  102.8380   73.4000 N.3    57  ARG57      -0.1245
     30  CA        86.6310  101.5550   72.7340 C.3    57  ARG57       0.1563
     31  C         87.5040  100.6820   73.6070 C.2    57  ARG57       0.2260
     32  O         88.4360  101.1710   74.2450 O.2    57  ARG57      -0.2867
     33  CB        87.2970  101.7280   71.3550 C.3    57  ARG57       0.0307
     34  CG        86.5060  102.5990   70.3610 C.3    57  ARG57       0.0489
     35  CD        86.9440  102.3880   68.8960 C.3    57  ARG57       0.2205
     36  NE        88.3900  102.3080   68.7140 N.pl3  57  ARG57      -0.0865
     37  CZ        89.1890  103.3540   68.5080 C.cat  57  ARG57       0.5346
     38  NH1       88.6900  104.5810   68.4600 N.pl3  57  ARG57       0.1354
     39  NH2       90.4960  103.1750   68.3580 N.pl3  57  ARG57       0.1354
     40  N         82.2150   93.7440   67.7750 N.3   108  THR108     -0.1218
     41  CA        82.7830   93.1750   66.5620 C.3   108  THR108      0.1862
     42  C         83.3660   91.7930   66.8570 C.2   108  THR108      0.2287
     43  O         83.7600   91.5200   67.9880 O.2   108  THR108     -0.2866
     44  CB        83.8430   94.1350   65.9880 C.3   108  THR108      0.1770
     45  OG1       83.2120   95.3940   65.7440 O.3   108  THR108     -0.2211
     46  CG2       84.4140   93.6250   64.6670 C.3   108  THR108      0.0375
     47  N         82.7240   99.2990   70.6180 N.3   114  MET114     -0.1245
     48  CA        82.7010  100.7450   70.4120 C.3   114  MET114      0.1570
     49  C         81.4010  101.3100   70.9630 C.2   114  MET114      0.2261
     50  O         80.3200  100.8970   70.5460 O.2   114  MET114     -0.2867
     51  CB        82.8230  101.1140   68.9270 C.3   114  MET114      0.0387
     52  CG        82.7500  102.6220   68.6640 C.3   114  MET114      0.0595
     53  SD        83.2580  103.0690   66.9820 S.3   114  MET114     -0.1393
     54  CE        84.5200  101.8350   66.6700 C.3   114  MET114      0.0692
     55  N         79.5130  105.0690   72.1230 N.3   116  ILE116     -0.1245
     56  CA        79.5890  106.5160   71.9160 C.3   116  ILE116      0.1561
     57  C         78.3620  107.2520   72.4870 C.2   116  ILE116      0.2260
     58  O         77.4990  107.7050   71.7480 O.2   116  ILE116     -0.2867
     59  CB        79.7090  106.8570   70.4040 C.3   116  ILE116      0.0252
     60  CG1       80.7490  105.9600   69.7290 C.3   116  ILE116      0.0019
     61  CG2       80.0510  108.3300   70.2160 C.3   116  ILE116      0.0019
     62  CD1       80.9410  106.2390   68.2120 C.3   116  ILE116      0.0001
     63  N         93.2500  108.3420   70.2800 N.3   157  ASP157     -0.1239
     64  CA        93.6940  108.1110   68.9030 C.3   157  ASP157      0.1674
     65  C         94.5370  109.2910   68.4500 C.2   157  ASP157      0.2266
     66  O         95.4960  109.1440   67.6920 O.2   157  ASP157     -0.2867
     67  CB        92.5030  107.9580   67.9510 C.3   157  ASP157      0.1410
     68  CG        91.7890  106.6230   68.1010 C.2   157  ASP157      0.3668
     69  OD1       92.4780  105.5890   68.2390 O.co2 157  ASP157     -0.2456
     70  OD2       90.5340  106.6110   68.0630 O.co2 157  ASP157     -0.2456
     71  N         87.9480  116.2380   68.5870 N.3   162  ASP162     -0.1239
     72  CA        87.1880  116.3390   67.3410 C.3   162  ASP162      0.1674
     73  C         86.2270  117.5330   67.3920 C.2   162  ASP162      0.2266
     74  O         85.2630  117.5280   68.1510 O.2   162  ASP162     -0.2867
     75  CB        86.4230  115.0420   67.0790 C.3   162  ASP162      0.1410
     76  CG        85.5380  115.0990   65.8350 C.2   162  ASP162      0.3668
     77  OD1       85.4710  116.1490   65.1500 O.co2 162  ASP162     -0.2456
     78  OD2       84.8860  114.0690   65.5510 O.co2 162  ASP162     -0.2456
     79  N         84.8790  118.7810   64.4540 N.3   164  SER164     -0.1202
     80  CA        84.1890  118.7640   63.1680 C.3   164  SER164      0.2020
     81  C         82.6660  118.8320   63.3180 C.2   164  SER164      0.2619
     82  O         81.9550  119.0330   62.3410 O.2   164  SER164     -0.2717
     83  CB        84.5720  117.5110   62.3810 C.3   164  SER164      0.2103
     84  OG        83.9440  116.3560   62.9300 O.3   164  SER164     -0.2182
     85  N         82.1640  118.6470   64.5350 N.am  165  SER165     -0.1951
     86  CA        80.7310  118.7690   64.7830 C.3   165  SER165      0.1924
     87  C         80.4360  119.8990   65.7670 C.2   165  SER165      0.2314
     88  O         79.3620  119.9480   66.3510 O.2   165  SER165     -0.2863
     89  CB        80.1480  117.4510   65.3260 C.3   165  SER165      0.2116
     90  OG        80.3340  116.3900   64.4060 O.3   165  SER165     -0.2180
@<TRIPOS>BOND
     1    82    81    2
     2    83    84    1
     3    83    80    1
     4    80    81    1
     5    80    79    1
     6    81    85   am
     7    90    89    1
     8    85    86    1
     9    46    44    1
    10    86    89    1
    11    86    87    1
    12    77    76   ar
    13    78    76   ar
    14    45    44    1
    15    87    88    2
    16    76    75    1
    17    44    41    1
    18    41    42    1
    19    41    40    1
    20    54    53    1
    21    42    43    2
    22    53    52    1
    23    75    72    1
    24    72    73    1
    25    72    71    1
    26    19    18    1
    27    73    74    2
    28    17    18   ar
    29    17    15   ar
    30    66    65    2
    31     7     5    1
    32    67    68    1
    33    67    64    1
    34    70    68   ar
    35    68    69   ar
    36    18    16   ar
    37    62    60    1
    38    27    26    2
    39    39    37    1
    40     6     5    1
    41    15    13   ar
    42    65    64    1
    43    38    37    1
    44    37    36    2
    45    28    26   am
    46    52    51    1
    47    36    35    1
    48    35    34    1
    49    64    63    1
    50    51    48    1
    51     5     2    1
    52    26    25    1
    53    16    14   ar
    54    60    59    1
    55     2     3    1
    56     2     1    1
    57    13    14   ar
    58    13    12    1
    59    25    24    1
    60    61    59    1
    61    34    33    1
    62    59    56    1
    63    48    47    1
    64    48    49    1
    65     3     4    2
    66    50    49    2
    67    12     9    1
    68    24    21    1
    69    33    30    1
    70    58    57    2
    71    56    55    1
    72    56    57    1
    73     9     8    1
    74     9    10    1
    75    21    20    1
    76    21    22    1
    77    11    10    2
    78    30    29    1
    79    30    31    1
    80    22    23    2
    81    31    32    2
