@<TRIPOS>MOLECULE
tmp/2xyuA00.pdb
 152 142 0 0 0
SMALL
GASTEIGER

@<TRIPOS>ATOM
      1  N         11.9240   12.9400   13.8950 N.3    16  ILE16      -0.1245
      2  CA        12.3390   13.1120   15.2810 C.3    16  ILE16       0.1561
      3  C         12.5390   11.7770   15.9810 C.2    16  ILE16       0.2260
      4  O         13.0680   11.7310   17.0900 O.2    16  ILE16      -0.2867
      5  CB        11.3610   14.0120   16.0880 C.3    16  ILE16       0.0252
      6  CG1        9.9950   13.3400   16.2690 C.3    16  ILE16       0.0019
      7  CG2       11.2080   15.3660   15.4130 C.3    16  ILE16       0.0019
      8  CD1        8.9240   14.2970   16.8280 C.3    16  ILE16       0.0001
      9  N          8.0490    0.0230   14.0690 N.3    21  PHE21      -0.1241
     10  CA         6.7380    0.3680   13.5260 C.3    21  PHE21       0.1605
     11  C          6.8510    1.3730   12.3740 C.2    21  PHE21       0.2264
     12  O          5.9380    1.4920   11.5470 O.2    21  PHE21      -0.2867
     13  CB         5.8750    0.9830   14.6260 C.3    21  PHE21       0.0534
     14  CG         6.3940    2.3000   15.1160 C.ar   21  PHE21      -0.0203
     15  CD1        6.0670    3.4770   14.4550 C.ar   21  PHE21      -0.0042
     16  CD2        7.2370    2.3610   16.2120 C.ar   21  PHE21      -0.0042
     17  CE1        6.5580    4.6940   14.8940 C.ar   21  PHE21      -0.0003
     18  CE2        7.7280    3.5760   16.6580 C.ar   21  PHE21      -0.0003
     19  CZ         7.3870    4.7450   15.9980 C.ar   21  PHE21      -0.0000
     20  N          8.4840    8.6490   13.3850 N.3    24  VAL24      -0.1245
     21  CA         7.7280    9.8010   13.8450 C.3    24  VAL24       0.1561
     22  C          8.4580   11.0480   13.3840 C.2    24  VAL24       0.2260
     23  O          9.6720   11.1530   13.5230 O.2    24  VAL24      -0.2867
     24  CB         7.5930    9.8240   15.3790 C.3    24  VAL24       0.0252
     25  CG1        6.8860   11.1110   15.8330 C.3    24  VAL24       0.0019
     26  CG2        6.8540    8.5710   15.8700 C.3    24  VAL24       0.0019
     27  N          3.0230   16.2860   15.5140 N.3    40  ALA40      -0.1245
     28  CA         3.9080   15.1480   15.3660 C.3    40  ALA40       0.1562
     29  C          3.2100   14.2330   14.3890 C.2    40  ALA40       0.2260
     30  O          1.9850   14.2050   14.3470 O.2    40  ALA40      -0.2867
     31  CB         4.1270   14.4700   16.6940 C.3    40  ALA40       0.0290
     32  N          3.0670   10.2500   12.8920 N.3    42  LYS42      -0.1245
     33  CA         3.5090    8.8600   12.9000 C.3    42  LYS42       0.1561
     34  C          3.1270    8.1700   11.5960 C.2    42  LYS42       0.2260
     35  O          1.9590    8.1460   11.1930 O.2    42  LYS42      -0.2867
     36  CB         2.9220    8.1160   14.0900 C.3    42  LYS42       0.0271
     37  CG         3.2790    6.6350   14.1580 C.3    42  LYS42       0.0035
     38  CD         2.9040    6.0920   15.5210 C.3    42  LYS42       0.0206
     39  CE         3.0230    4.5810   15.6150 C.3    42  LYS42       0.1093
     40  NZ         2.6490    4.1380   16.9970 N.3    42  LYS42      -0.1314
     41  N         -5.1400    2.0420   16.3290 N.3    59  GLU59      -0.1196
     42  CA        -4.6020    2.8710   17.3910 C.3    59  GLU59       0.1783
     43  C         -5.1360    4.3070   17.3050 C.2    59  GLU59       0.2306
     44  O         -5.3310    4.9530   18.3380 O.2    59  GLU59      -0.2863
     45  CB        -3.0670    2.8600   17.3880 C.2    59  GLU59       0.0071
     46  CG        -2.3490    3.8820   18.1370 C.2    59  GLU59       0.0834
     47  CD        -0.8410    3.8050   18.2100 C.2    59  GLU59       0.3877
     48  OE1       -0.2140    2.8740   17.5960 O.co2  59  GLU59      -0.2406
     49  OE2       -0.2730    4.5430   19.0570 O.co2  59  GLU59      -0.2406
     50  N         -7.3080    6.3680   20.2560 N.3    63  MET63      -0.1245
     51  CA        -6.9140    7.7200   20.6040 C.3    63  MET63       0.1570
     52  C         -8.0610    8.6890   20.3390 C.2    63  MET63       0.2261
     53  O         -8.2550    9.6390   21.0820 O.2    63  MET63      -0.2867
     54  CB        -5.6890    8.1350   19.7840 C.3    63  MET63       0.0387
     55  CG        -4.5240    7.1650   19.8830 C.3    63  MET63       0.0595
     56  SD        -3.1660    7.6750   18.8180 S.3    63  MET63      -0.1393
     57  CE        -2.7960    9.2680   19.5720 C.3    63  MET63       0.0692
     58  N         -2.6940   12.8120   25.1180 N.3    72  ILE72      -0.1245
     59  CA        -2.2310   13.3380   23.8390 C.3    72  ILE72       0.1561
     60  C         -3.4030   13.5390   22.8480 C.2    72  ILE72       0.2260
     61  O         -4.2340   12.6510   22.6410 O.2    72  ILE72      -0.2867
     62  CB        -1.0680   12.4670   23.2410 C.3    72  ILE72       0.0252
     63  CG1       -0.3570   13.2020   22.1040 C.3    72  ILE72       0.0019
     64  CG2       -1.5480   11.1140   22.7930 C.3    72  ILE72       0.0019
     65  CD1        0.3920   14.4130   22.5700 C.3    72  ILE72       0.0001
     66  N         -0.7470    9.1810   11.2540 N.3    86  ILE86      -0.1245
     67  CA        -1.4940    9.6110   12.4230 C.3    86  ILE86       0.1561
     68  C         -0.8720   10.9340   12.8480 C.2    86  ILE86       0.2260
     69  O          0.3530   11.0310   12.9800 O.2    86  ILE86      -0.2867
     70  CB        -1.3560    8.5930   13.5680 C.3    86  ILE86       0.0252
     71  CG1       -2.0350    7.2630   13.1820 C.3    86  ILE86       0.0019
     72  CG2       -1.9150    9.1660   14.8620 C.3    86  ILE86       0.0019
     73  CD1       -1.9790    6.1960   14.2570 C.3    86  ILE86       0.0001
     74  N         -0.7600   14.0100   15.6140 N.3    88  THR88      -0.1203
     75  CA        -1.1110   14.4720   16.9530 C.3    88  THR88       0.1994
     76  C         -0.5400   15.8600   17.1960 C.2    88  THR88       0.2618
     77  O          0.2710   16.3450   16.4060 O.2    88  THR88      -0.2717
     78  CB        -0.5200   13.5490   18.0260 C.3    88  THR88       0.1784
     79  OG1        0.9120   13.5610   17.9100 O.3    88  THR88      -0.2211
     80  CG2       -1.0350   12.1210   17.8460 C.3    88  THR88       0.0376
     81  N         -0.9370   16.4780   18.3080 N.am   89  GLU89      -0.1965
     82  CA        -0.4010   17.7750   18.7170 C.3    89  GLU89       0.1733
     83  C          1.0960   17.6560   18.9910 C.2    89  GLU89       0.2616
     84  O          1.5330   16.6610   19.5540 O.2    89  GLU89      -0.2715
     85  CB        -1.1260   18.2930   19.9740 C.3    89  GLU89       0.0429
     86  CG        -0.9430   17.4210   21.2500 C.3    89  GLU89       0.1163
     87  CD        -1.7950   17.9120   22.4340 C.2    89  GLU89       0.3649
     88  OE1       -1.8780   19.1430   22.6650 O.co2  89  GLU89      -0.2457
     89  OE2       -2.4080   17.0710   23.1250 O.co2  89  GLU89      -0.2457
     90  N          1.8780   18.6650   18.5950 N.am   90  TYR90      -0.1960
     91  CA         3.3240   18.6440   18.8390 C.3    90  TYR90       0.1771
     92  C          3.6520   18.9670   20.2940 C.2    90  TYR90       0.2619
     93  O          3.2150   19.9820   20.8270 O.2    90  TYR90      -0.2715
     94  CB         4.0690   19.6170   17.9180 C.3    90  TYR90       0.0574
     95  CG         5.5840   19.5720   18.0750 C.ar   90  TYR90      -0.0198
     96  CD1        6.2940   18.4100   17.7880 C.ar   90  TYR90      -0.0009
     97  CD2        6.3060   20.6970   18.5000 C.ar   90  TYR90      -0.0009
     98  CE1        7.6790   18.3550   17.9320 C.ar   90  TYR90       0.0417
     99  CE2        7.6980   20.6560   18.6300 C.ar   90  TYR90       0.0417
    100  CZ         8.3740   19.4770   18.3470 C.ar   90  TYR90       0.1957
    101  OH         9.7480   19.4040   18.4820 O.3    90  TYR90      -0.2866
    102  N          4.4400   18.1020   20.9250 N.am   91  MET91      -0.1977
    103  CA         4.8440   18.3040   22.3150 C.3    91  MET91       0.1605
    104  C          6.3300   18.6630   22.3680 C.2    91  MET91       0.2287
    105  O          7.2020   17.8260   22.1180 O.2    91  MET91      -0.2864
    106  CB         4.5100   17.0650   23.1540 C.3    91  MET91       0.0413
    107  CG         3.0110   16.6950   23.1570 C.3    91  MET91       0.0598
    108  SD         1.9470   17.7630   24.1700 S.3    91  MET91      -0.1393
    109  CE         2.3570   17.1610   25.8220 C.3    91  MET91       0.0692
    110  N          9.1080   16.7270   24.3320 N.3    94  GLY94      -0.1210
    111  CA         9.1700   15.2980   24.0780 C.3    94  GLY94       0.1956
    112  C          8.7820   14.4050   25.2480 C.2    94  GLY94       0.2612
    113  O          7.8730   14.7180   26.0300 O.2    94  GLY94      -0.2717
    114  N          9.4750   13.2780   25.3490 N.am   95  SER95      -0.1952
    115  CA         9.2230   12.2600   26.3690 C.3    95  SER95       0.1924
    116  C          9.6720   12.6980   27.7590 C.2    95  SER95       0.2314
    117  O         10.7780   13.2240   27.9290 O.2    95  SER95      -0.2863
    118  CB         9.9460   10.9630   25.9880 C.3    95  SER95       0.2116
    119  OG         9.3940   10.4170   24.8000 O.3    95  SER95      -0.2180
    120  N          4.2240   12.4820   27.3950 N.3   142  LEU142     -0.1245
    121  CA         4.8290   13.5500   26.5780 C.3   142  LEU142      0.1561
    122  C          4.6900   14.9120   27.2740 C.2   142  LEU142      0.2260
    123  O          3.7790   15.1050   28.0770 O.2   142  LEU142     -0.2867
    124  CB         4.2130   13.5960   25.1700 C.3   142  LEU142      0.0270
    125  CG         4.4170   12.3850   24.2490 C.3   142  LEU142      0.0019
    126  CD1        3.4140   12.3920   23.1080 C.3   142  LEU142      0.0001
    127  CD2        5.8400   12.3370   23.7050 C.3   142  LEU142      0.0001
    128  N          0.4720    9.1470   26.7540 N.3   152  SER152     -0.1202
    129  CA         0.6240    8.7660   25.3550 C.3   152  SER152      0.2020
    130  C          0.6010    7.2470   25.1910 C.2   152  SER152      0.2619
    131  O          0.0840    6.5210   26.0450 O.2   152  SER152     -0.2717
    132  CB         1.9760    9.2770   24.8430 C.3   152  SER152      0.2103
    133  OG         2.0600    9.1900   23.4370 O.3   152  SER152     -0.2182
    134  N          1.1860    6.7790   24.0880 N.am  153  ASP153     -0.1959
    135  CA         1.4680    5.3550   23.8760 C.3   153  ASP153      0.1840
    136  C          0.2070    4.5200   23.8540 C.2   153  ASP153      0.2622
    137  O         -0.0010    3.6740   24.7200 O.2   153  ASP153     -0.2715
    138  CB         2.4120    4.8270   24.9640 C.3   153  ASP153      0.1450
    139  CG         2.7760    3.3640   24.7720 C.2   153  ASP153      0.3671
    140  OD1        2.9370    2.9310   23.6050 O.co2 153  ASP153     -0.2456
    141  OD2        2.8900    2.6450   25.7930 O.co2 153  ASP153     -0.2456
    142  N         -0.6390    4.7710   22.8650 N.am  154  PHE154     -0.1974
    143  CA        -1.8290    3.9670   22.6710 C.3   154  PHE154      0.1639
    144  C         -1.6510    3.1080   21.4150 C.2   154  PHE154      0.2290
    145  O         -2.4870    2.2620   21.0890 O.2   154  PHE154     -0.2864
    146  CB        -3.0610    4.8770   22.5640 C.3   154  PHE154      0.0560
    147  CG        -3.3230    5.7020   23.8040 C.ar  154  PHE154     -0.0200
    148  CD1       -3.9220    5.1310   24.9220 C.ar  154  PHE154     -0.0042
    149  CD2       -2.9820    7.0470   23.8500 C.ar  154  PHE154     -0.0042
    150  CE1       -4.1680    5.8830   26.0610 C.ar  154  PHE154     -0.0003
    151  CE2       -3.2300    7.8120   24.9880 C.ar  154  PHE154     -0.0003
    152  CZ        -3.8260    7.2280   26.0960 C.ar  154  PHE154     -0.0000
@<TRIPOS>BOND
     1    35    34    2
     2    66    67    1
     3    12    11    2
     4    34    33    1
     5    11    10    1
     6    67    68    1
     7    67    70    1
     8    68    69    2
     9    32    33    1
    10    33    36    1
    11    71    70    1
    12    71    73    1
    13    22    23    2
    14    22    21    1
    15    20    21    1
    16    10     9    1
    17    10    13    1
    18    70    72    1
    19    21    24    1
    20     1     2    1
    21    36    37    1
    22    37    38    1
    23    30    29    2
    24    29    28    1
    25    15    17   ar
    26    15    14   ar
    27    13    14    1
    28    17    19   ar
    29    14    16   ar
    30     2     3    1
    31     2     5    1
    32    28    27    1
    33    28    31    1
    34    24    25    1
    35    24    26    1
    36     7     5    1
    37    38    39    1
    38    74    75    1
    39    39    40    1
    40     3     4    2
    41    19    18   ar
    42     5     6    1
    43    16    18   ar
    44     6     8    1
    45    41    42    1
    46    77    76    2
    47    75    76    1
    48    75    78    1
    49    76    81   am
    50    43    42    1
    51    43    44    2
    52    45    42    1
    53    45    46    2
    54    48    47   ar
    55    96    98   ar
    56    96    95   ar
    57    80    78    1
    58    79    78    1
    59    94    95    1
    60    94    91    1
    61    98   100   ar
    62    95    97   ar
    63    46    47    1
    64    47    49   ar
    65    81    82    1
    66   100   101    1
    67   100    99   ar
    68    97    99   ar
    69    90    91    1
    70    90    83   am
    71    82    83    1
    72    82    85    1
    73    56    57    1
    74    56    55    1
    75    91    92    1
    76    83    84    2
    77    54    55    1
    78    54    51    1
    79    85    86    1
    80    50    51    1
    81    92    93    2
    82    92   102   am
    83    52    51    1
    84    52    53    2
    85   102   103    1
    86   145   144    2
    87    86    87    1
    88   144   143    1
    89    63    65    1
    90    63    62    1
    91   105   104    2
    92   103   104    1
    93   103   106    1
    94    87    88   ar
    95    87    89   ar
    96   146   143    1
    97   146   147    1
    98    61    60    2
    99   143   142    1
   100    64    62    1
   101    60    59    1
   102   142   136   am
   103   126   125    1
   104   106   107    1
   105   107   108    1
   106    62    59    1
   107   133   132    1
   108   140   139   ar
   109   127   125    1
   110   147   149   ar
   111   147   148   ar
   112    59    58    1
   113   149   151   ar
   114   136   135    1
   115   136   137    2
   116   135   134    1
   117   135   138    1
   118   111   110    1
   119   111   112    1
   120   134   130   am
   121   108   109    1
   122   125   124    1
   123   139   138    1
   124   139   141   ar
   125   119   118    1
   126   132   129    1
   127   148   150   ar
   128   151   152   ar
   129   124   121    1
   130   130   129    1
   131   130   131    2
   132   112   114   am
   133   112   113    2
   134   114   115    1
   135   129   128    1
   136   118   115    1
   137   150   152   ar
   138   115   116    1
   139   121   122    1
   140   121   120    1
   141   122   123    2
   142   116   117    2
