@<TRIPOS>MOLECULE
tmp/2xyxA00.pdb
 249 237 0 0 0
SMALL
GASTEIGER

@<TRIPOS>ATOM
      1  N          8.1710    6.1560   46.6000 N.3    34  ILE34      -0.1245
      2  CA         9.2750    5.5280   47.3370 C.3    34  ILE34       0.1561
      3  C         10.4990    6.4550   47.1490 C.2    34  ILE34       0.2260
      4  O         10.8990    6.7350   46.0110 O.2    34  ILE34      -0.2867
      5  CB         9.5400    4.0680   46.8960 C.3    34  ILE34       0.0252
      6  CG1        8.3000    3.1750   47.1540 C.3    34  ILE34       0.0019
      7  CG2       10.7750    3.5070   47.6040 C.3    34  ILE34       0.0019
      8  CD1        8.2660    1.8530   46.3600 C.3    34  ILE34       0.0001
      9  N         10.0370    2.7490   51.4380 N.3    40  LEU40      -0.1245
     10  CA        10.3490    1.4570   50.8300 C.3    40  LEU40       0.1561
     11  C          9.7660    0.3370   51.6940 C.2    40  LEU40       0.2260
     12  O          9.1930   -0.6070   51.1490 O.2    40  LEU40      -0.2867
     13  CB        11.8720    1.2960   50.6160 C.3    40  LEU40       0.0270
     14  CG        12.4110   -0.0700   50.1510 C.3    40  LEU40       0.0019
     15  CD1       11.7970   -0.5050   48.8100 C.3    40  LEU40       0.0001
     16  CD2       13.9380   -0.0560   50.0870 C.3    40  LEU40       0.0001
     17  N          2.5820   -6.5850   45.3100 N.3    49  TRP49      -0.1241
     18  CA         3.6890   -6.9200   44.4180 C.3    49  TRP49       0.1605
     19  C          3.4640   -8.3190   43.8120 C.2    49  TRP49       0.2264
     20  O          2.6530   -9.0890   44.3440 O.2    49  TRP49      -0.2867
     21  CB         5.0320   -6.8540   45.1790 C.3    49  TRP49       0.0550
     22  CG         5.3670   -5.5290   45.8210 C.ar   49  TRP49       0.0003
     23  CD1        4.9210   -5.0680   47.0260 C.ar   49  TRP49       0.0946
     24  CD2        6.3460   -4.5770   45.3690 C.ar   49  TRP49       0.0152
     25  NE1        5.4950   -3.8500   47.3110 N.ar   49  TRP49      -0.2442
     26  CE2        6.3980   -3.5400   46.3300 C.ar   49  TRP49       0.0810
     27  CE3        7.1590   -4.4780   44.2220 C.ar   49  TRP49       0.0012
     28  CZ2        7.2470   -2.4310   46.1940 C.ar   49  TRP49       0.0191
     29  CZ3        7.9770   -3.3640   44.0750 C.ar   49  TRP49       0.0001
     30  CH2        8.0270   -2.3650   45.0590 C.ar   49  TRP49       0.0015
     31  N         20.2250   -1.4510   49.6870 N.3    63  SER63      -0.1217
     32  CA        20.7430   -1.4500   48.3100 C.3    63  SER63       0.1889
     33  C         20.6270   -2.8120   47.6040 C.2    63  SER63       0.2288
     34  O         20.2740   -2.8680   46.4180 O.2    63  SER63      -0.2866
     35  CB        22.1870   -0.9640   48.2870 C.3    63  SER63       0.2089
     36  OG        22.2830    0.3780   48.7330 O.3    63  SER63      -0.2183
     37  N         18.4460   -5.2140   48.6100 N.3    65  HIS65      -0.1226
     38  CA        17.0090   -5.4900   48.5320 C.3    65  HIS65       0.1752
     39  C         16.4210   -4.9280   47.2240 C.2    65  HIS65       0.2596
     40  O         15.6300   -5.6170   46.5870 O.2    65  HIS65      -0.2718
     41  CB        16.2610   -4.9300   49.7470 C.3    65  HIS65       0.0759
     42  CG        14.7810   -5.1860   49.7080 C.ar   65  HIS65       0.0818
     43  ND1       14.2570   -6.4640   49.8870 N.ar   65  HIS65      -0.2268
     44  CD2       13.7600   -4.3230   49.5080 C.ar   65  HIS65       0.1154
     45  CE1       12.9440   -6.3330   49.7780 C.ar   65  HIS65       0.1986
     46  NE2       12.5960   -5.0670   49.5460 N.ar   65  HIS65      -0.2212
     47  N         16.8150   -3.6890   46.8280 N.am   66  VAL66      -0.1966
     48  CA        16.3790   -3.0120   45.5890 C.3    66  VAL66       0.1727
     49  C         16.9200   -3.8090   44.3840 C.2    66  VAL66       0.2616
     50  O         16.1970   -4.0300   43.4030 O.2    66  VAL66      -0.2715
     51  CB        16.8130   -1.5110   45.5510 C.3    66  VAL66       0.0290
     52  CG1       16.3880   -0.8280   44.2490 C.3    66  VAL66       0.0023
     53  CG2       16.2690   -0.7420   46.7510 C.3    66  VAL66       0.0023
     54  N         18.1920   -4.2550   44.4840 N.am   67  PHE67      -0.1974
     55  CA        18.8630   -5.0470   43.4590 C.3    67  PHE67       0.1639
     56  C         18.1050   -6.3560   43.2480 C.2    67  PHE67       0.2290
     57  O         17.8940   -6.7470   42.1030 O.2    67  PHE67      -0.2864
     58  CB        20.3290   -5.2910   43.8380 C.3    67  PHE67       0.0560
     59  CG        21.0850   -6.2340   42.9340 C.ar   67  PHE67      -0.0200
     60  CD1       21.6490   -5.7800   41.7460 C.ar   67  PHE67      -0.0042
     61  CD2       21.2470   -7.5760   43.2770 C.ar   67  PHE67      -0.0042
     62  CE1       22.3490   -6.6530   40.9110 C.ar   67  PHE67      -0.0003
     63  CE2       21.9350   -8.4470   42.4380 C.ar   67  PHE67      -0.0003
     64  CZ        22.4890   -7.9770   41.2640 C.ar   67  PHE67      -0.0000
     65  N         14.8270   -6.8780   44.0380 N.3    69  ARG69      -0.1231
     66  CA        13.5260   -6.4920   43.4750 C.3    69  ARG69       0.1694
     67  C         13.6240   -6.2560   41.9650 C.2    69  ARG69       0.2592
     68  O         12.7080   -6.6280   41.2260 O.2    69  ARG69      -0.2718
     69  CB        12.9360   -5.2690   44.1970 C.3    69  ARG69       0.0321
     70  CG        12.2260   -5.6420   45.4930 C.3    69  ARG69       0.0489
     71  CD        10.7530   -5.2740   45.4630 C.3    69  ARG69       0.2205
     72  NE         9.9960   -5.8710   46.5690 N.pl3  69  ARG69      -0.0865
     73  CZ         9.3410   -7.0320   46.5050 C.cat  69  ARG69       0.5346
     74  NH1        9.3500   -7.7470   45.3880 N.pl3  69  ARG69       0.1354
     75  NH2        8.6770   -7.4850   47.5580 N.pl3  69  ARG69       0.1354
     76  N         14.7560   -5.6930   41.5130 N.am   70  CYS70      -0.1970
     77  CA        15.0510   -5.4630   40.1010 C.3    70  CYS70       0.1712
     78  C         15.2510   -6.7820   39.3810 C.2    70  CYS70       0.2296
     79  O         14.8090   -6.9350   38.2480 O.2    70  CYS70      -0.2864
     80  CB        16.2880   -4.5830   39.9590 C.3    70  CYS70       0.0983
     81  SG        15.9910   -2.8400   40.2960 S.3    70  CYS70      -0.0798
     82  N         11.9010   -8.6090   38.6860 N.3    73  THR73      -0.1203
     83  CA        11.2320   -7.8870   37.6040 C.3    73  THR73       0.1994
     84  C         11.8660   -8.2260   36.2460 C.2    73  THR73       0.2618
     85  O         11.1390   -8.4770   35.2920 O.2    73  THR73      -0.2717
     86  CB        11.1300   -6.3900   37.9450 C.3    73  THR73       0.1784
     87  OG1       10.2420   -6.2390   39.0570 O.3    73  THR73      -0.2211
     88  CG2       10.6330   -5.5460   36.7910 C.3    73  THR73       0.0376
     89  N         13.2090   -8.2850   36.1870 N.am   74  THR74      -0.1952
     90  CA        13.9860   -8.6300   34.9950 C.3    74  THR74       0.1897
     91  C         13.6020  -10.0380   34.5290 C.2    74  THR74       0.2313
     92  O         13.1460  -10.1960   33.4070 O.2    74  THR74      -0.2863
     93  CB        15.4830   -8.4760   35.3090 C.3    74  THR74       0.1794
     94  OG1       15.7350   -7.1250   35.6650 O.3    74  THR74      -0.2208
     95  CG2       16.3730   -8.8640   34.1580 C.3    74  THR74       0.0378
     96  N         17.6720   -8.2880   27.1270 N.3   108  HIS108     -0.1241
     97  CA        17.9820   -7.0500   27.8530 C.3   108  HIS108      0.1621
     98  C         17.7740   -5.8310   26.9870 C.2   108  HIS108      0.2264
     99  O         17.3730   -4.7850   27.5050 O.2   108  HIS108     -0.2867
    100  CB        19.3910   -7.0600   28.4430 C.3   108  HIS108      0.0745
    101  CG        19.4820   -7.7800   29.7400 C.ar  108  HIS108      0.0817
    102  ND1       19.8700   -9.1120   29.8020 N.ar  108  HIS108     -0.2268
    103  CD2       19.1980   -7.3460   30.9880 C.ar  108  HIS108      0.1154
    104  CE1       19.8000   -9.4440   31.0790 C.ar  108  HIS108      0.1986
    105  NE2       19.4200   -8.4110   31.8350 N.ar  108  HIS108     -0.2212
    106  N         14.0050   -5.3800   27.1180 N.3   111  ILE111     -0.1231
    107  CA        13.7090   -4.9000   28.4690 C.3   111  ILE111      0.1692
    108  C         13.9290   -3.3790   28.5670 C.2   111  ILE111      0.2592
    109  O         13.0080   -2.6750   28.9610 O.2   111  ILE111     -0.2718
    110  CB        14.4860   -5.7110   29.5710 C.3   111  ILE111      0.0266
    111  CG1       13.9200   -7.1500   29.7240 C.3   111  ILE111      0.0019
    112  CG2       14.4910   -4.9770   30.9210 C.3   111  ILE111      0.0020
    113  CD1       14.7940   -8.1360   30.4960 C.3   111  ILE111      0.0001
    114  N         15.1110   -2.8830   28.1700 N.am  112  PHE112     -0.1976
    115  CA        15.4370   -1.4540   28.2490 C.3   112  PHE112      0.1639
    116  C         14.5590   -0.5520   27.3710 C.2   112  PHE112      0.2290
    117  O         14.2080    0.5500   27.7900 O.2   112  PHE112     -0.2864
    118  CB        16.9460   -1.1860   28.0940 C.3   112  PHE112      0.0560
    119  CG        17.8330   -1.9640   29.0490 C.ar  112  PHE112     -0.0200
    120  CD1       17.4390   -2.1940   30.3640 C.ar  112  PHE112     -0.0042
    121  CD2       19.0800   -2.4300   28.6450 C.ar  112  PHE112     -0.0042
    122  CE1       18.2530   -2.9150   31.2380 C.ar  112  PHE112     -0.0003
    123  CE2       19.8950   -3.1470   29.5240 C.ar  112  PHE112     -0.0003
    124  CZ        19.4710   -3.3920   30.8100 C.ar  112  PHE112     -0.0000
    125  N         11.3050   -0.4420   29.3310 N.3   115  LEU115     -0.1245
    126  CA        11.5500    0.2770   30.5690 C.3   115  LEU115      0.1561
    127  C         11.2120    1.7530   30.3720 C.2   115  LEU115      0.2260
    128  O         10.6450    2.3540   31.2750 O.2   115  LEU115     -0.2867
    129  CB        13.0130    0.0970   31.0050 C.3   115  LEU115      0.0270
    130  CG        13.4040    0.5940   32.3970 C.3   115  LEU115      0.0019
    131  CD1       12.5470   -0.0450   33.4930 C.3   115  LEU115      0.0001
    132  CD2       14.8960    0.3730   32.6590 C.3   115  LEU115      0.0001
    133  N          7.5970    2.9630   31.4400 N.3   118  ILE118     -0.1245
    134  CA         7.3160    3.1770   32.8720 C.3   118  ILE118      0.1561
    135  C          8.2370    4.2520   33.5350 C.2   118  ILE118      0.2260
    136  O          8.1170    4.5120   34.7360 O.2   118  ILE118     -0.2867
    137  CB         7.2970    1.8240   33.6680 C.3   118  ILE118      0.0252
    138  CG1        8.6590    1.0960   33.6190 C.3   118  ILE118      0.0019
    139  CG2        6.1340    0.9170   33.2260 C.3   118  ILE118      0.0019
    140  CD1        8.9670    0.2310   34.7660 C.3   118  ILE118      0.0001
    141  N         10.5690    6.0620   38.1920 N.3   124  LEU124     -0.1245
    142  CA         9.8020    5.0460   37.4780 C.3   124  LEU124      0.1561
    143  C          8.6900    4.3800   38.3030 C.2   124  LEU124      0.2260
    144  O          8.7590    4.3380   39.5390 O.2   124  LEU124     -0.2867
    145  CB        10.7430    3.9760   36.8890 C.3   124  LEU124      0.0270
    146  CG        11.4540    3.0430   37.8820 C.3   124  LEU124      0.0019
    147  CD1       11.2500    1.6070   37.5080 C.3   124  LEU124      0.0001
    148  CD2       12.9230    3.3840   38.0160 C.3   124  LEU124      0.0001
    149  N          6.4850    1.2620   39.8110 N.3   126  VAL126     -0.1245
    150  CA         6.7230   -0.0730   40.3820 C.3   126  VAL126      0.1561
    151  C          5.3790   -0.6930   40.7960 C.2   126  VAL126      0.2260
    152  O          4.3480   -0.0400   40.6450 O.2   126  VAL126     -0.2867
    153  CB         7.7920   -0.1320   41.5130 C.3   126  VAL126      0.0252
    154  CG1        9.1560    0.3150   41.0140 C.3   126  VAL126      0.0019
    155  CG2        7.3660    0.6670   42.7420 C.3   126  VAL126      0.0019
    156  N          9.1150    4.8440   42.3470 N.3   133  VAL133     -0.1245
    157  CA        10.4510    4.9580   42.9580 C.3   133  VAL133      0.1561
    158  C         11.1710    6.1700   42.3630 C.2   133  VAL133      0.2260
    159  O         11.2440    6.2920   41.1460 O.2   133  VAL133     -0.2867
    160  CB        11.2820    3.6420   42.8330 C.3   133  VAL133      0.0252
    161  CG1       12.6870    3.7960   43.4180 C.3   133  VAL133      0.0019
    162  CG2       10.5670    2.4860   43.5080 C.3   133  VAL133      0.0019
    163  N         16.5050    8.6070   44.9950 N.3   137  PHE137     -0.1227
    164  CA        16.6060    7.5150   45.9690 C.3   137  PHE137      0.1736
    165  C         17.5300    6.4290   45.4330 C.2   137  PHE137      0.2595
    166  O         18.3070    5.8690   46.2030 O.2   137  PHE137     -0.2718
    167  CB        15.2330    6.9000   46.2780 C.3   137  PHE137      0.0547
    168  CG        15.2830    5.5990   47.0470 C.ar  137  PHE137     -0.0202
    169  CD1       15.7720    5.5570   48.3510 C.ar  137  PHE137     -0.0042
    170  CD2       14.8400    4.4180   46.4700 C.ar  137  PHE137     -0.0042
    171  CE1       15.8200    4.3550   49.0600 C.ar  137  PHE137     -0.0003
    172  CE2       14.8830    3.2160   47.1800 C.ar  137  PHE137     -0.0003
    173  CZ        15.3710    3.1930   48.4690 C.ar  137  PHE137     -0.0000
    174  N         17.4450    6.1160   44.1260 N.am  138  LEU138     -0.1980
    175  CA        18.3010    5.0870   43.5350 C.3   138  LEU138      0.1596
    176  C         19.7490    5.5700   43.5070 C.2   138  LEU138      0.2287
    177  O         20.6720    4.7850   43.7470 O.2   138  LEU138     -0.2864
    178  CB        17.7970    4.6360   42.1530 C.3   138  LEU138      0.0297
    179  CG        16.3630    4.0870   42.1140 C.3   138  LEU138      0.0022
    180  CD1       15.8510    3.9780   40.6970 C.3   138  LEU138      0.0001
    181  CD2       16.2450    2.7640   42.8530 C.3   138  LEU138      0.0001
    182  N         21.7220    5.0010   46.9210 N.3   141  LEU141     -0.1245
    183  CA        22.1420    3.6590   47.3240 C.3   141  LEU141      0.1561
    184  C         23.6710    3.5520   47.2870 C.2   141  LEU141      0.2260
    185  O         24.3200    4.4130   46.6990 O.2   141  LEU141     -0.2867
    186  CB        21.4670    2.5900   46.4420 C.3   141  LEU141      0.0270
    187  CG        19.9270    2.6210   46.3590 C.3   141  LEU141      0.0019
    188  CD1       19.4280    1.6830   45.2930 C.3   141  LEU141      0.0001
    189  CD2       19.2750    2.2700   47.6990 C.3   141  LEU141      0.0001
    190  N         25.6370   -0.3020   43.3510 N.3   145  PHE145     -0.1227
    191  CA        24.1840   -0.3000   43.1280 C.3   145  PHE145      0.1736
    192  C         23.5900    1.0300   42.6600 C.2   145  PHE145      0.2596
    193  O         22.6560    1.0310   41.8610 O.2   145  PHE145     -0.2718
    194  CB        23.4200   -0.8970   44.3240 C.3   145  PHE145      0.0547
    195  CG        23.9300   -2.2590   44.7180 C.ar  145  PHE145     -0.0202
    196  CD1       23.7740   -3.3500   43.8700 C.ar  145  PHE145     -0.0042
    197  CD2       24.6420   -2.4360   45.8970 C.ar  145  PHE145     -0.0042
    198  CE1       24.2920   -4.6060   44.2130 C.ar  145  PHE145     -0.0003
    199  CE2       25.1560   -3.6900   46.2430 C.ar  145  PHE145     -0.0003
    200  CZ        24.9750   -4.7710   45.3980 C.ar  145  PHE145     -0.0000
    201  N         24.1670    2.1540   43.1020 N.am  146  SER146     -0.1952
    202  CA        23.7210    3.4850   42.6940 C.3   146  SER146      0.1924
    203  C         24.1070    3.8250   41.2470 C.2   146  SER146      0.2314
    204  O         23.5670    4.7890   40.6870 O.2   146  SER146     -0.2863
    205  CB        24.2750    4.5420   43.6410 C.3   146  SER146      0.2116
    206  OG        25.6630    4.3600   43.8760 O.3   146  SER146     -0.2180
    207  N         24.0020    1.4900   38.5070 N.3   148  ILE148     -0.1231
    208  CA        23.4300    0.6050   37.4980 C.3   148  ILE148      0.1692
    209  C         22.3800    1.2750   36.6050 C.2   148  ILE148      0.2591
    210  O         22.5050    1.2450   35.3880 O.2   148  ILE148     -0.2718
    211  CB        22.9630   -0.7560   38.1030 C.3   148  ILE148      0.0266
    212  CG1       24.1070   -1.4560   38.8940 C.3   148  ILE148      0.0019
    213  CG2       22.3990   -1.6650   37.0080 C.3   148  ILE148      0.0020
    214  CD1       23.6830   -2.4160   40.0250 C.3   148  ILE148      0.0001
    215  N         21.3510    1.8630   37.2170 N.am  149  ILE149     -0.1980
    216  CA        20.1880    2.4330   36.5450 C.3   149  ILE149      0.1595
    217  C         20.3810    3.7640   35.8280 C.2   149  ILE149      0.2287
    218  O         19.5690    4.0840   34.9610 O.2   149  ILE149     -0.2864
    219  CB        18.9340    2.3600   37.4640 C.3   149  ILE149      0.0276
    220  CG1       17.6140    2.2700   36.6500 C.3   149  ILE149      0.0022
    221  CG2       18.9390    3.4430   38.5470 C.3   149  ILE149      0.0022
    222  CD1       16.3640    1.8160   37.3890 C.3   149  ILE149      0.0001
    223  N         20.2070    3.8640   31.9000 N.3   152  LYS152     -0.1245
    224  CA        18.8810    3.4440   31.4370 C.3   152  LYS152      0.1561
    225  C         18.0190    4.6830   31.3150 C.2   152  LYS152      0.2260
    226  O         17.3330    4.8510   30.3070 O.2   152  LYS152     -0.2867
    227  CB        18.2340    2.4280   32.4110 C.3   152  LYS152      0.0271
    228  CG        18.7850    1.0030   32.3330 C.3   152  LYS152      0.0035
    229  CD        20.1770    0.8590   32.9240 C.3   152  LYS152      0.0206
    230  CE        20.7570   -0.4970   32.6630 C.3   152  LYS152      0.1093
    231  NZ        22.2270   -0.4840   32.8450 N.3   152  LYS152     -0.1314
    232  N         25.8480   -2.9190   30.8070 N.3   234  HIS234     -0.1241
    233  CA        25.0690   -3.5750   31.8610 C.3   234  HIS234      0.1621
    234  C         25.6940   -4.9040   32.3090 C.2   234  HIS234      0.2264
    235  O         25.8600   -5.1130   33.5100 O.2   234  HIS234     -0.2867
    236  CB        23.5960   -3.7280   31.4380 C.3   234  HIS234      0.0745
    237  CG        22.7020   -4.2710   32.5170 C.ar  234  HIS234      0.0817
    238  ND1       22.4550   -5.6280   32.6370 N.ar  234  HIS234     -0.2268
    239  CD2       22.0130   -3.6210   33.4810 C.ar  234  HIS234      0.1154
    240  CE1       21.6280   -5.7520   33.6580 C.ar  234  HIS234      0.1986
    241  NE2       21.3360   -4.5720   34.1950 N.ar  234  HIS234     -0.2212
    242  N         27.3310   -5.9320   35.8210 N.3   238  MET238     -0.1245
    243  CA        26.8550   -7.1600   36.4580 C.3   238  MET238      0.1570
    244  C         27.9480   -8.1560   36.7770 C.2   238  MET238      0.2261
    245  O         27.8700   -8.8400   37.8010 O.2   238  MET238     -0.2867
    246  CB        25.7010   -7.7790   35.6770 C.3   238  MET238      0.0387
    247  CG        24.4270   -6.9480   35.7580 C.3   238  MET238      0.0595
    248  SD        23.7400   -6.8180   37.4230 S.3   238  MET238     -0.1393
    249  CE        23.1880   -5.1800   37.3890 C.3   238  MET238      0.0692
@<TRIPOS>BOND
     1    98    99    2
     2    98    97    1
     3   106   107    1
     4    96    97    1
     5   116   117    2
     6   116   115    1
     7    97   100    1
     8   118   115    1
     9   118   119    1
    10   114   115    1
    11   114   108   am
    12   100   101    1
    13   107   108    1
    14   107   110    1
    15   108   109    2
    16   121   119   ar
    17   121   123   ar
    18   119   120   ar
    19   125   126    1
    20   123   124   ar
    21   110   111    1
    22   110   112    1
    23   111   113    1
    24   101   102   ar
    25   101   103   ar
    26   102   104   ar
    27   226   225    2
    28   120   122   ar
    29   127   126    1
    30   127   128    2
    31   126   129    1
    32   232   233    1
    33   124   122   ar
    34   103   105   ar
    35   129   130    1
    36   104   105   ar
    37   225   224    1
    38   224   223    1
    39   224   227    1
    40   236   233    1
    41   236   237    1
    42   133   134    1
    43   233   234    1
    44   234   235    2
    45   228   227    1
    46   228   229    1
    47   130   132    1
    48   130   131    1
    49   237   238   ar
    50   237   239   ar
    51   238   240   ar
    52   230   231    1
    53   230   229    1
    54   134   135    1
    55   134   137    1
    56   139   137    1
    57    92    91    2
    58   239   241   ar
    59   135   136    2
    60   138   137    1
    61   138   140    1
    62   240   241   ar
    63    95    93    1
    64    91    90    1
    65   218   217    2
    66    90    93    1
    67    90    89    1
    68    85    84    2
    69    93    94    1
    70   210   209    2
    71   246   247    1
    72   246   243    1
    73   247   248    1
    74   242   243    1
    75   217   216    1
    76    89    84   am
    77    84    83    1
    78   243   244    1
    79   216   215    1
    80   216   219    1
    81   209   215   am
    82   209   208    1
    83   220   222    1
    84   220   219    1
    85   244   245    2
    86    88    86    1
    87   145   142    1
    88   145   146    1
    89   213   211    1
    90   249   248    1
    91   219   221    1
    92   142   141    1
    93   142   143    1
    94   208   211    1
    95   208   207    1
    96   147   146    1
    97    83    86    1
    98    83    82    1
    99   146   148    1
   100    86    87    1
   101   211   212    1
   102    79    78    2
   103   143   144    2
   104   212   214    1
   105    78    77    1
   106   149   150    1
   107    80    77    1
   108    80    81    1
   109    77    76    1
   110   150   151    1
   111   150   153    1
   112   152   151    2
   113   204   203    2
   114   180   179    1
   115    62    64   ar
   116    62    60   ar
   117   154   153    1
   118   159   158    2
   119    68    67    2
   120   203   202    1
   121    64    63   ar
   122   153   155    1
   123    76    67   am
   124    60    59   ar
   125   193   192    2
   126    67    66    1
   127    57    56    2
   128   179   178    1
   129   179   181    1
   130   178   175    1
   131   156   157    1
   132   158   157    1
   133    63    61   ar
   134   192   201   am
   135   192   191    1
   136   202   201    1
   137   202   205    1
   138   160   157    1
   139   160   161    1
   140   160   162    1
   141    59    61   ar
   142    59    58    1
   143   191   190    1
   144   191   194    1
   145    56    55    1
   146    50    49    2
   147    55    58    1
   148    55    54    1
   149    66    65    1
   150    66    69    1
   151   176   175    1
   152   176   177    2
   153   175   174    1
   154   205   206    1
   155    19    20    2
   156    19    18    1
   157   196   198   ar
   158   196   195   ar
   159    29    27   ar
   160    29    30   ar
   161   174   165   am
   162    69    70    1
   163   198   200   ar
   164    27    24   ar
   165    52    51    1
   166   194   195    1
   167    49    54   am
   168    49    48    1
   169    18    21    1
   170    18    17    1
   171   195   197   ar
   172   163   164    1
   173    30    28   ar
   174    21    22    1
   175   188   187    1
   176    24    22   ar
   177    24    26   ar
   178    74    73    1
   179   200   199   ar
   180   165   164    1
   181   165   166    2
   182    71    70    1
   183    71    72    1
   184    51    48    1
   185    51    53    1
   186    48    47    1
   187    22    23   ar
   188   197   199   ar
   189   164   167    1
   190     4     3    2
   191    28    26   ar
   192   167   168    1
   193    26    25   ar
   194   187   186    1
   195   187   189    1
   196     8     6    1
   197    34    33    2
   198   186   183    1
   199   170   168   ar
   200   170   172   ar
   201    73    72    2
   202    73    75    1
   203    40    39    2
   204     1     2    1
   205   185   184    2
   206    47    39   am
   207     5     6    1
   208     5     2    1
   209     5     7    1
   210   182   183    1
   211    23    25   ar
   212   168   169   ar
   213     3     2    1
   214   172   173   ar
   215    39    38    1
   216   184   183    1
   217    33    32    1
   218    35    32    1
   219    35    36    1
   220    32    31    1
   221   169   171   ar
   222   173   171   ar
   223    38    37    1
   224    38    41    1
   225    15    14    1
   226    44    46   ar
   227    44    42   ar
   228    46    45   ar
   229    42    41    1
   230    42    43   ar
   231    45    43   ar
   232    16    14    1
   233    14    13    1
   234    13    10    1
   235    10     9    1
   236    10    11    1
   237    12    11    2
