@<TRIPOS>MOLECULE
tmp/2xz4A00.pdb
 98 96 0 0 0
SMALL
GASTEIGER

@<TRIPOS>ATOM
      1  N         22.0380   -7.5040   -0.0870 N.3   114  ILE114     -0.1245
      2  CA        21.7680   -8.6280    0.7900 C.3   114  ILE114      0.1561
      3  C         23.0640   -9.3820    1.0860 C.2   114  ILE114      0.2260
      4  O         23.3240   -9.7770    2.2250 O.2   114  ILE114     -0.2867
      5  CB        20.7210   -9.5550    0.1410 C.3   114  ILE114      0.0252
      6  CG1       19.4270   -8.7740   -0.1010 C.3   114  ILE114      0.0019
      7  CG2       20.5100  -10.8130    0.9870 C.3   114  ILE114      0.0019
      8  CD1       18.3630   -9.5440   -0.8810 C.3   114  ILE114      0.0001
      9  N         25.1820   -7.7950    3.7880 N.3   117  ALA117     -0.1231
     10  CA        24.7260   -8.1040    5.1400 C.3   117  ALA117      0.1694
     11  C         25.1880   -9.4910    5.5710 C.2   117  ALA117      0.2591
     12  O         25.6130   -9.6800    6.7150 O.2   117  ALA117     -0.2718
     13  CB        23.1930   -7.9910    5.2360 C.3   117  ALA117      0.0304
     14  N         25.1030  -10.4500    4.6500 N.am  118  LYS118     -0.1980
     15  CA        25.5430  -11.8280    4.9130 C.3   118  LYS118      0.1596
     16  C         27.0250  -11.8540    5.2460 C.2   118  LYS118      0.2287
     17  O         27.4420  -12.5130    6.1860 O.2   118  LYS118     -0.2864
     18  CB        25.2460  -12.7320    3.7040 C.3   118  LYS118      0.0298
     19  CG        25.7140  -14.1780    3.8750 C.3   118  LYS118      0.0038
     20  CD        25.5580  -15.0200    2.5990 C.3   118  LYS118      0.0206
     21  CE        24.1070  -15.2410    2.2240 C.3   118  LYS118      0.1093
     22  NZ        23.3640  -16.0350    3.2570 N.3   118  LYS118     -0.1314
     23  N         27.6470  -10.4870    8.7460 N.3   121  MET121     -0.1230
     24  CA        27.3140  -11.4610    9.7770 C.3   121  MET121      0.1702
     25  C         28.3510  -12.5940    9.9100 C.2   121  MET121      0.2592
     26  O         28.6890  -12.9790   11.0310 O.2   121  MET121     -0.2718
     27  CB        25.9040  -12.0220    9.5480 C.3   121  MET121      0.0401
     28  CG        24.8460  -10.9280    9.6500 C.3   121  MET121      0.0596
     29  SD        23.1580  -11.5500    9.4770 S.3   121  MET121     -0.1393
     30  CE        22.6390  -10.8160    7.9260 C.3   121  MET121      0.0692
     31  N         28.8760  -13.1150    8.7980 N.am  122  ASP122     -0.1974
     32  CA        29.8710  -14.1800    8.9470 C.3   122  ASP122      0.1709
     33  C         31.1470  -13.6630    9.5780 C.2   122  ASP122      0.2293
     34  O         31.7920  -14.3960   10.3220 O.2   122  ASP122     -0.2864
     35  CB        30.2250  -14.9160    7.6590 C.3   122  ASP122      0.1436
     36  CG        31.1610  -16.1020    7.9220 C.2   122  ASP122      0.3671
     37  OD1       30.8440  -16.9240    8.8170 O.co2 122  ASP122     -0.2456
     38  OD2       32.2290  -16.1990    7.2790 O.co2 122  ASP122     -0.2456
     39  N         23.5630  -17.4700   16.3170 N.3   134  TYR134     -0.1241
     40  CA        22.7950  -16.2210   16.3170 C.3   134  TYR134      0.1605
     41  C         21.5210  -16.3340   15.4820 C.2   134  TYR134      0.2264
     42  O         21.4390  -17.1290   14.5290 O.2   134  TYR134     -0.2867
     43  CB        23.6380  -15.0290   15.8300 C.3   134  TYR134      0.0534
     44  CG        23.9050  -15.0150   14.3360 C.ar  134  TYR134     -0.0201
     45  CD1       24.9880  -15.6900   13.8030 C.ar  134  TYR134     -0.0009
     46  CD2       23.0640  -14.3180   13.4590 C.ar  134  TYR134     -0.0009
     47  CE1       25.2360  -15.6870   12.4380 C.ar  134  TYR134      0.0417
     48  CE2       23.2970  -14.3190   12.0980 C.ar  134  TYR134      0.0417
     49  CZ        24.3900  -14.9980   11.5920 C.ar  134  TYR134      0.1957
     50  OH        24.6470  -15.0020   10.2350 O.3   134  TYR134     -0.2866
     51  N         18.2480  -14.0980   13.4440 N.3   136  ILE136     -0.1245
     52  CA        17.9440  -12.8460   12.7380 C.3   136  ILE136      0.1561
     53  C         16.4590  -12.5070   12.8830 C.2   136  ILE136      0.2260
     54  O         15.6020  -13.3660   12.6690 O.2   136  ILE136     -0.2867
     55  CB        18.2880  -12.9520   11.2390 C.3   136  ILE136      0.0252
     56  CG1       19.7680  -13.2880   11.0560 C.3   136  ILE136      0.0019
     57  CG2       17.9010  -11.6520   10.4850 C.3   136  ILE136      0.0019
     58  CD1       20.1630  -13.5430    9.5940 C.3   136  ILE136      0.0001
     59  N         12.7950  -16.5000    3.9990 N.3   158  ASN158     -0.1225
     60  CA        13.6080  -17.6180    3.5220 C.3   158  ASN158      0.1785
     61  C         15.0960  -17.4950    3.8410 C.2   158  ASN158      0.2597
     62  O         15.9130  -18.2560    3.3140 O.2   158  ASN158     -0.2718
     63  CB        13.4370  -17.7960    2.0140 C.3   158  ASN158      0.1169
     64  CG        12.1140  -18.4450    1.6470 C.2   158  ASN158      0.2627
     65  OD1       11.2180  -18.5850    2.4830 O.2   158  ASN158     -0.2716
     66  ND2       11.9840  -18.8410    0.3870 N.am  158  ASN158     -0.0877
     67  N         15.4550  -16.5410    4.6960 N.am  159  TRP159     -0.1963
     68  CA        16.8600  -16.3730    5.0560 C.3   159  TRP159      0.1756
     69  C         17.2710  -17.4090    6.0730 C.2   159  TRP159      0.2461
     70  O         16.5060  -17.7080    6.9880 O.2   159  TRP159     -0.2730
     71  CB        17.1060  -15.0010    5.6850 C.3   159  TRP159      0.0590
     72  CG        17.1310  -13.8700    4.7370 C.ar  159  TRP159      0.0006
     73  CD1       16.7990  -13.8850    3.4150 C.ar  159  TRP159      0.0946
     74  CD2       17.5200  -12.5290    5.0430 C.ar  159  TRP159      0.0152
     75  NE1       16.9480  -12.6180    2.8770 N.ar  159  TRP159     -0.2442
     76  CE2       17.3920  -11.7730    3.8580 C.ar  159  TRP159      0.0810
     77  CE3       17.9640  -11.8920    6.2080 C.ar  159  TRP159      0.0012
     78  CZ2       17.6960  -10.4150    3.8020 C.ar  159  TRP159      0.0191
     79  CZ3       18.2600  -10.5340    6.1510 C.ar  159  TRP159      0.0001
     80  CH2       18.1230   -9.8160    4.9600 C.ar  159  TRP159      0.0015
     81  N         18.4900  -17.9500    5.9300 N.am  160  PRO160     -0.2716
     82  CA        19.0300  -18.7970    6.9950 C.3   160  PRO160      0.1536
     83  C         19.0480  -17.9850    8.2880 C.2   160  PRO160      0.2598
     84  O         19.4080  -16.8060    8.2460 O.2   160  PRO160     -0.2715
     85  CB        20.4720  -19.0670    6.5390 C.3   160  PRO160      0.0310
     86  CG        20.4750  -18.8360    5.0650 C.3   160  PRO160      0.0237
     87  CD        19.4390  -17.7710    4.8140 C.3   160  PRO160      0.0939
     88  N         18.6420  -18.6070    9.3920 N.am  161  ARG161     -0.1978
     89  CA        18.6810  -18.0020   10.7260 C.3   161  ARG161      0.1597
     90  C         17.5300  -17.0310   11.0080 C.2   161  ARG161      0.2287
     91  O         17.4200  -16.5150   12.1160 O.2   161  ARG161     -0.2864
     92  CB        20.0330  -17.3370   11.0020 C.3   161  ARG161      0.0334
     93  CG        21.1980  -18.3240   10.9750 C.3   161  ARG161      0.0492
     94  CD        22.4860  -17.5550   10.9570 C.3   161  ARG161      0.2205
     95  NE        23.6650  -18.4210   10.9370 N.pl3 161  ARG161     -0.0865
     96  CZ        24.2200  -18.9430   12.0240 C.cat 161  ARG161      0.5346
     97  NH1       23.6790  -18.7100   13.2210 N.pl3 161  ARG161      0.1354
     98  NH2       25.3080  -19.7010   11.9090 N.pl3 161  ARG161      0.1354
@<TRIPOS>BOND
     1     8     6    1
     2     6     5    1
     3     1     2    1
     4     5     2    1
     5     5     7    1
     6    66    64   am
     7     2     3    1
     8     3     4    2
     9    64    63    1
    10    64    65    2
    11    63    60    1
    12    21    20    1
    13    21    22    1
    14    20    19    1
    15    75    73   ar
    16    75    76   ar
    17    62    61    2
    18    73    72   ar
    19    60    61    1
    20    60    59    1
    21    18    19    1
    22    18    15    1
    23     9    10    1
    24    78    76   ar
    25    78    80   ar
    26    61    67   am
    27    76    74   ar
    28    14    15    1
    29    14    11   am
    30    67    68    1
    31    72    74   ar
    32    72    71    1
    33    87    86    1
    34    87    81    1
    35    15    16    1
    36    80    79   ar
    37    74    77   ar
    38    68    71    1
    39    68    69    1
    40    86    85    1
    41    10    13    1
    42    10    11    1
    43    16    17    2
    44    11    12    2
    45    81    69   am
    46    81    82    1
    47    69    70    2
    48    79    77   ar
    49    85    82    1
    50    82    83    1
    51    38    36   ar
    52    35    36    1
    53    35    32    1
    54    36    37   ar
    55    30    29    1
    56    84    83    2
    57    83    88   am
    58    23    24    1
    59    31    32    1
    60    31    25   am
    61    32    33    1
    62    88    89    1
    63    29    28    1
    64    27    28    1
    65    27    24    1
    66    33    34    2
    67    58    56    1
    68    24    25    1
    69    25    26    2
    70    50    49    1
    71    57    55    1
    72    89    92    1
    73    89    90    1
    74    95    94    1
    75    95    96    2
    76    94    93    1
    77    93    92    1
    78    90    91    2
    79    56    55    1
    80    55    52    1
    81    49    48   ar
    82    49    47   ar
    83    98    96    1
    84    96    97    1
    85    48    46   ar
    86    47    45   ar
    87    54    53    2
    88    52    53    1
    89    52    51    1
    90    46    44   ar
    91    45    44   ar
    92    44    43    1
    93    42    41    2
    94    41    40    1
    95    43    40    1
    96    39    40    1
