@<TRIPOS>MOLECULE
tmp/2xz7A00.pdb
 103 94 0 0 0
SMALL
GASTEIGER

@<TRIPOS>ATOM
      1  N         19.3800    5.6880   19.0500 N.3    46  LEU46      -0.1245
      2  CA        20.0070    4.9950   20.1670 C.3    46  LEU46       0.1561
      3  C         19.1640    5.1190   21.4310 C.2    46  LEU46       0.2260
      4  O         19.0270    6.2030   21.9970 O.2    46  LEU46      -0.2867
      5  CB        21.4170    5.5380   20.4200 C.3    46  LEU46       0.0270
      6  CG        22.1170    5.1070   21.7150 C.3    46  LEU46       0.0019
      7  CD1       22.2580    3.5890   21.7830 C.3    46  LEU46       0.0001
      8  CD2       23.4840    5.7710   21.8360 C.3    46  LEU46       0.0001
      9  N         19.5830    3.9620   24.8870 N.3    48  ARG48      -0.1245
     10  CA        20.4550    3.3860   25.9070 C.3    48  ARG48       0.1563
     11  C         19.5710    2.7620   26.9780 C.2    48  ARG48       0.2260
     12  O         18.6940    3.4320   27.5210 O.2    48  ARG48      -0.2867
     13  CB        21.3400    4.4720   26.5270 C.3    48  ARG48       0.0307
     14  CG        22.3320    5.1220   25.5610 C.3    48  ARG48       0.0489
     15  CD        23.0950    6.2650   26.2290 C.3    48  ARG48       0.2205
     16  NE        24.3230    6.6130   25.5070 N.pl3  48  ARG48      -0.0865
     17  CZ        24.4600    7.6650   24.7020 C.cat  48  ARG48       0.5346
     18  NH1       23.4450    8.4940   24.5040 N.pl3  48  ARG48       0.1354
     19  NH2       25.6210    7.8910   24.0950 N.pl3  48  ARG48       0.1354
     20  N         19.5280   -0.4430   22.0870 N.3    84  ARG84      -0.1245
     21  CA        20.8320   -1.0490   22.3180 C.3    84  ARG84       0.1563
     22  C         20.7570   -1.9780   23.5150 C.2    84  ARG84       0.2260
     23  O         20.3090   -1.5760   24.5930 O.2    84  ARG84      -0.2867
     24  CB        21.8810    0.0330   22.5750 C.3    84  ARG84       0.0307
     25  CG        23.3010   -0.5010   22.6660 C.3    84  ARG84       0.0489
     26  CD        24.2900    0.6210   22.9410 C.3    84  ARG84       0.2205
     27  NE        24.1330    1.1660   24.2870 N.pl3  84  ARG84      -0.0865
     28  CZ        24.8220    2.2030   24.7550 C.cat  84  ARG84       0.5346
     29  NH1       25.7170    2.8090   23.9830 N.pl3  84  ARG84       0.1354
     30  NH2       24.6190    2.6320   25.9960 N.pl3  84  ARG84       0.1354
     31  N         24.7470   -2.5510   27.9300 N.3    87  ASP87      -0.1239
     32  CA        26.1230   -2.1330   27.6870 C.3    87  ASP87       0.1674
     33  C         26.6690   -1.6000   28.9960 C.2    87  ASP87       0.2266
     34  O         26.6680   -0.3970   29.2440 O.2    87  ASP87      -0.2867
     35  CB        26.1620   -1.0610   26.5970 C.3    87  ASP87       0.1410
     36  CG        27.5690   -0.6090   26.2660 C.2    87  ASP87       0.3668
     37  OD1       28.5330   -1.2200   26.7700 O.co2  87  ASP87      -0.2456
     38  OD2       27.7100    0.3600   25.4940 O.co2  87  ASP87      -0.2456
     39  N         26.5880   -1.8600   17.1010 N.3   181  MET181     -0.1245
     40  CA        27.3960   -0.6760   17.3330 C.3   181  MET181      0.1570
     41  C         28.7780   -0.9480   16.7620 C.2   181  MET181      0.2261
     42  O         29.3310   -2.0290   16.9650 O.2   181  MET181     -0.2867
     43  CB        27.5210   -0.4050   18.8320 C.3   181  MET181      0.0387
     44  CG        26.2560    0.1070   19.4860 C.3   181  MET181      0.0595
     45  SD        26.0400    1.8720   19.2210 S.3   181  MET181     -0.1393
     46  CE        27.4000    2.5250   20.1890 C.3   181  MET181      0.0692
     47  N         32.2590    0.2760   17.4130 N.3   183  GLU183     -0.1245
     48  CA        33.0280    1.0630   18.3680 C.3   183  GLU183      0.1567
     49  C         34.3510    0.3930   18.7040 C.2   183  GLU183      0.2260
     50  O         35.2870    1.0490   19.1540 O.2   183  GLU183     -0.2867
     51  CB        32.2190    1.2960   19.6400 C.3   183  GLU183      0.0388
     52  CG        31.6300    0.0370   20.2580 C.3   183  GLU183      0.1160
     53  CD        30.7240    0.3650   21.4230 C.2   183  GLU183      0.3649
     54  OE1       30.9240    1.4390   22.0180 O.co2 183  GLU183     -0.2457
     55  OE2       29.8120   -0.4300   21.7380 O.co2 183  GLU183     -0.2457
     56  N         29.6170    4.1270   16.8990 N.3   204  GLY204     -0.1210
     57  CA        29.7630    4.7130   18.2180 C.3   204  GLY204      0.1956
     58  C         31.1100    5.3990   18.3130 C.2   204  GLY204      0.2613
     59  O         32.0740    4.8190   18.8050 O.2   204  GLY204     -0.2717
     60  N         31.1780    6.6370   17.8330 N.am  205  THR205     -0.1938
     61  CA        32.4550    7.3430   17.7310 C.3   205  THR205      0.2028
     62  C         33.0870    7.6910   19.0740 C.2   205  THR205      0.2642
     63  O         34.2990    7.8890   19.1500 O.2   205  THR205     -0.2714
     64  CB        32.3300    8.6310   16.9030 C.3   205  THR205      0.1808
     65  OG1       31.2210    9.3970   17.3850 O.3   205  THR205     -0.2208
     66  CG2       32.1150    8.2990   15.4340 C.3   205  THR205      0.0379
     67  N         32.2800    7.7790   20.1280 N.am  206  ASN206     -0.1957
     68  CA        32.8270    8.0430   21.4540 C.3   206  ASN206      0.1819
     69  C         33.8720    6.9950   21.8060 C.2   206  ASN206      0.2621
     70  O         35.0160    7.3150   22.1340 O.2   206  ASN206     -0.2715
     71  CB        31.7320    8.0380   22.5190 C.3   206  ASN206      0.1195
     72  CG        30.6220    9.0240   22.2200 C.2   206  ASN206      0.2630
     73  OD1       30.8000    9.9670   21.4490 O.2   206  ASN206     -0.2716
     74  ND2       29.4630    8.8070   22.8310 N.am  206  ASN206     -0.0877
     75  N         33.4730    5.7330   21.7310 N.am  207  ASP207     -0.1971
     76  CA        34.3780    4.6560   22.0960 C.3   207  ASP207      0.1709
     77  C         35.2540    4.1920   20.9380 C.2   207  ASP207      0.2293
     78  O         36.3370    3.6590   21.1610 O.2   207  ASP207     -0.2864
     79  CB        33.6180    3.5040   22.7490 C.3   207  ASP207      0.1436
     80  CG        33.1700    3.8470   24.1620 C.2   207  ASP207      0.3671
     81  OD1       33.8810    4.6240   24.8330 O.co2 207  ASP207     -0.2456
     82  OD2       32.1150    3.3540   24.6020 O.co2 207  ASP207     -0.2456
     83  N         38.5790    8.0420   27.3540 N.3   217  ARG217     -0.1245
     84  CA        37.8970    9.3100   27.1180 C.3   217  ARG217      0.1563
     85  C         37.4370    9.9820   28.4070 C.2   217  ARG217      0.2260
     86  O         36.7210   10.9760   28.3680 O.2   217  ARG217     -0.2867
     87  CB        36.7010    9.1290   26.1740 C.3   217  ARG217      0.0307
     88  CG        35.7140    8.0540   26.6070 C.3   217  ARG217      0.0489
     89  CD        34.3470    8.2940   25.9920 C.3   217  ARG217      0.2205
     90  NE        33.4930    7.1170   26.1080 N.pl3 217  ARG217     -0.0865
     91  CZ        32.1680    7.1330   25.9880 C.cat 217  ARG217      0.5346
     92  NH1       31.5290    8.2740   25.7630 N.pl3 217  ARG217      0.1354
     93  NH2       31.4760    6.0080   26.1020 N.pl3 217  ARG217      0.1354
     94  N         25.7940    7.3810   16.1990 N.3   254  CYS254     -0.1221
     95  CA        25.1500    7.8440   17.4250 C.3   254  CYS254      0.1808
     96  C         26.1610    8.3970   18.4250 C.2   254  CYS254      0.2601
     97  O         25.7920    8.8730   19.4990 O.2   254  CYS254     -0.2717
     98  CB        24.3210    6.7290   18.0600 C.3   254  CYS254      0.0970
     99  SG        25.2570    5.2350   18.4460 S.3   254  CYS254     -0.0800
    100  N         27.4390    8.3220   18.0690 N.am  255  GLY255     -0.1957
    101  CA        28.4750    8.9760   18.8440 C.3   255  GLY255      0.1869
    102  C         28.2530   10.4750   18.8100 C.2   255  GLY255      0.2309
    103  O         27.5440   10.9830   17.9410 O.2   255  GLY255     -0.2863
@<TRIPOS>BOND
     1    66    64    1
     2    94    95    1
     3    41    42    2
     4    41    40    1
     5    56    57    1
     6    64    65    1
     7    64    61    1
     8    39    40    1
     9    40    43    1
    10    47    48    1
    11    95    98    1
    12    95    96    1
    13    61    60    1
    14    61    62    1
    15    60    58   am
    16   103   102    2
    17    98    99    1
    18   100    96   am
    19   100   101    1
    20    57    58    1
    21    58    59    2
    22    48    49    1
    23    48    51    1
    24    96    97    2
    25    49    50    2
    26   102   101    1
    27    43    44    1
    28     1     2    1
    29    62    63    2
    30    62    67   am
    31    45    44    1
    32    45    46    1
    33    51    52    1
    34    67    68    1
    35     2     5    1
    36     2     3    1
    37    52    53    1
    38     5     6    1
    39    77    78    2
    40    77    76    1
    41    53    55   ar
    42    53    54   ar
    43     3     4    2
    44    73    72    2
    45    68    69    1
    46    68    71    1
    47     6     7    1
    48     6     8    1
    49    75    69   am
    50    75    76    1
    51    69    70    2
    52    20    21    1
    53    76    79    1
    54    72    71    1
    55    72    74   am
    56    21    24    1
    57    21    22    1
    58    24    25    1
    59    25    26    1
    60    79    80    1
    61    26    27    1
    62    22    23    2
    63    29    28    1
    64    19    17    1
    65    80    82   ar
    66    80    81   ar
    67    27    28    2
    68    18    17    1
    69    17    16    2
    70    28    30    1
    71     9    10    1
    72    38    36   ar
    73    16    15    1
    74    14    15    1
    75    14    13    1
    76    92    91    1
    77    10    13    1
    78    10    11    1
    79    91    93    1
    80    91    90    2
    81    89    90    1
    82    89    88    1
    83    87    88    1
    84    87    84    1
    85    36    35    1
    86    36    37   ar
    87    35    32    1
    88    11    12    2
    89    84    83    1
    90    84    85    1
    91    32    31    1
    92    32    33    1
    93    86    85    2
    94    33    34    2
