@<TRIPOS>MOLECULE
tmp/2xzcB00.pdb
 96 96 0 0 0
SMALL
GASTEIGER

@<TRIPOS>ATOM
      1  N        -18.1800    4.0060    3.3430 N.3    34  SER34      -0.1217
      2  CA       -17.8470    2.7900    4.0820 C.3    34  SER34       0.1889
      3  C        -17.2190    3.1960    5.4130 C.2    34  SER34       0.2288
      4  O        -16.6570    4.2780    5.5630 O.2    34  SER34      -0.2866
      5  CB       -16.8540    1.8800    3.3490 C.3    34  SER34       0.2089
      6  OG       -17.4010    1.4640    2.0910 O.3    34  SER34      -0.2183
      7  N        -14.8650    1.6390    8.9210 N.3    36  TYR36      -0.1241
      8  CA       -13.9510    0.5810    9.3630 C.3    36  TYR36       0.1605
      9  C        -13.6600    0.7510   10.8250 C.2    36  TYR36       0.2264
     10  O        -13.5310    1.8990   11.3310 O.2    36  TYR36      -0.2867
     11  CB       -12.6090    0.7420    8.5830 C.3    36  TYR36       0.0534
     12  CG       -12.8280    0.5280    7.1180 C.ar   36  TYR36      -0.0201
     13  CD1      -13.2140    1.5800    6.3340 C.ar   36  TYR36      -0.0009
     14  CD2      -12.7640   -0.7480    6.5690 C.ar   36  TYR36      -0.0009
     15  CE1      -13.5540    1.4090    4.9960 C.ar   36  TYR36       0.0417
     16  CE2      -13.0940   -0.9720    5.1920 C.ar   36  TYR36       0.0417
     17  CZ       -13.4350    0.1310    4.4780 C.ar   36  TYR36       0.1957
     18  OH       -13.9980    0.0500    3.1750 O.3    36  TYR36      -0.2866
     19  N        -14.2000   -3.9310    8.0580 N.3    46  LEU46      -0.1245
     20  CA       -15.3610   -3.2550    7.5090 C.3    46  LEU46       0.1561
     21  C        -16.5180   -3.4260    8.5090 C.2    46  LEU46       0.2260
     22  O        -16.9180   -4.5430    8.9380 O.2    46  LEU46      -0.2867
     23  CB       -15.7540   -3.9330    6.2010 C.3    46  LEU46       0.0270
     24  CG       -16.9070   -3.2440    5.4190 C.3    46  LEU46       0.0019
     25  CD1      -16.5060   -1.8800    4.9580 C.3    46  LEU46       0.0001
     26  CD2      -17.2170   -4.1830    4.2030 C.3    46  LEU46       0.0001
     27  N        -20.9320   -0.7180    4.6420 N.3    49  TYR49      -0.1227
     28  CA       -20.6670   -0.4100    3.2180 C.3    49  TYR49       0.1736
     29  C        -21.9300    0.1310    2.5620 C.2    49  TYR49       0.2595
     30  O        -23.0270   -0.0240    3.1350 O.2    49  TYR49      -0.2718
     31  CB       -20.0350   -1.6640    2.4900 C.3    49  TYR49       0.0548
     32  CG       -21.0730   -2.7260    2.2940 C.ar   49  TYR49      -0.0200
     33  CD1      -21.2630   -3.6320    3.2530 C.ar   49  TYR49      -0.0009
     34  CD2      -21.8470   -2.8010    1.0820 C.ar   49  TYR49      -0.0009
     35  CE1      -22.1970   -4.6760    3.1400 C.ar   49  TYR49       0.0417
     36  CE2      -22.7880   -3.8050    0.9670 C.ar   49  TYR49       0.0417
     37  CZ       -22.9750   -4.6850    1.9660 C.ar   49  TYR49       0.1957
     38  OH       -23.9910   -5.6490    1.8190 O.3    49  TYR49      -0.2866
     39  N        -21.7850    0.7560    1.4180 N.am   50  ASP50      -0.1974
     40  CA       -22.9330    1.3470    0.6520 C.3    50  ASP50       0.1709
     41  C        -23.7380    2.1580    1.6530 C.2    50  ASP50       0.2293
     42  O        -25.0220    2.1110    1.6650 O.2    50  ASP50      -0.2864
     43  CB       -23.7760    0.2030    0.0690 C.3    50  ASP50       0.1436
     44  CG       -23.1540   -0.4590   -1.1030 C.2    50  ASP50       0.3671
     45  OD1      -22.0490   -0.0670   -1.4690 O.co2  50  ASP50      -0.2456
     46  OD2      -23.8060   -1.4770   -1.6030 O.co2  50  ASP50      -0.2456
     47  N        -14.5910    6.0250    4.7420 N.3    89  GLY89      -0.1210
     48  CA       -13.9560    6.0240    3.4130 C.3    89  GLY89       0.1956
     49  C        -14.9910    6.2940    2.3380 C.2    89  GLY89       0.2613
     50  O        -16.1630    5.9210    2.4980 O.2    89  GLY89      -0.2717
     51  N        -14.5820    6.8590    1.1930 N.am   90  THR90      -0.1938
     52  CA       -15.5190    6.9930    0.0580 C.3    90  THR90       0.2028
     53  C        -14.5980    7.0740   -1.1760 C.2    90  THR90       0.2642
     54  O        -13.3680    6.8020   -1.0920 O.2    90  THR90      -0.2714
     55  CB       -16.4450    8.1950    0.1810 C.3    90  THR90       0.1808
     56  OG1      -17.4500    8.0780   -0.8360 O.3    90  THR90      -0.2208
     57  CG2      -15.7440    9.5430    0.0690 C.3    90  THR90       0.0379
     58  N        -15.1810    7.3870   -2.3060 N.am   91  TRP91      -0.1973
     59  CA       -14.3940    7.6430   -3.5430 C.3    91  TRP91       0.1640
     60  C        -14.4770    9.0870   -3.8820 C.2    91  TRP91       0.2290
     61  O        -15.4480    9.8150   -3.6340 O.2    91  TRP91      -0.2864
     62  CB       -14.8970    6.7120   -4.6720 C.3    91  TRP91       0.0576
     63  CG       -14.5740    5.2620   -4.3910 C.ar   91  TRP91       0.0006
     64  CD1      -13.4090    4.5650   -4.7170 C.ar   91  TRP91       0.0946
     65  CD2      -15.4320    4.3340   -3.8170 C.ar   91  TRP91       0.0152
     66  NE1      -13.4910    3.2710   -4.2900 N.ar   91  TRP91      -0.2442
     67  CE2      -14.7310    3.1060   -3.7080 C.ar   91  TRP91       0.0810
     68  CE3      -16.7260    4.4230   -3.3190 C.ar   91  TRP91       0.0012
     69  CZ2      -15.3120    1.9180   -3.2240 C.ar   91  TRP91       0.0191
     70  CZ3      -17.3140    3.2480   -2.7980 C.ar   91  TRP91       0.0001
     71  CH2      -16.5860    1.9920   -2.7590 C.ar   91  TRP91       0.0015
     72  N        -10.1320    5.6930   -3.9340 N.2    97  PRO97      -0.2571
     73  CA       -10.5060    5.6080   -2.4810 C.3    97  PRO97       0.2026
     74  C         -9.8220    6.6780   -1.7260 C.2    97  PRO97       0.2683
     75  O         -8.5840    6.8540   -1.8430 O.2    97  PRO97      -0.2709
     76  CB       -10.0150    4.2590   -2.0460 C.2    97  PRO97       0.0085
     77  CG        -9.3220    3.5630   -3.1770 C.2    97  PRO97       0.0180
     78  CD        -9.3250    4.5290   -4.3810 C.2    97  PRO97       0.0938
     79  N        -10.5650    7.3210   -0.8330 N.am   98  VAL98      -0.1959
     80  CA       -10.0570    8.3020    0.1440 C.3    98  VAL98       0.1727
     81  C        -10.6340    8.0090    1.5000 C.2    98  VAL98       0.2612
     82  O        -11.7040    7.3850    1.6310 O.2    98  VAL98      -0.2715
     83  CB       -10.3630    9.7210   -0.2410 C.3    98  VAL98       0.0290
     84  CG1       -9.6750   10.1170   -1.6420 C.3    98  VAL98       0.0023
     85  CG2      -11.8860    9.9890   -0.3820 C.3    98  VAL98       0.0023
     86  N         -9.9000    8.3950    2.5470 N.am   99  PHE99      -0.2027
     87  CA       -10.2510    8.1150    3.9860 C.3    99  PHE99       0.1325
     88  C        -10.4130    9.3020    4.7580 C.3    99  PHE99       0.2039
     89  O         -9.8010   10.4180    4.4760 O.3    99  PHE99      -0.2185
     90  CB        -9.1660    7.2590    4.5900 C.3    99  PHE99       0.0507
     91  CG        -9.0280    5.8850    3.9970 C.ar   99  PHE99      -0.0204
     92  CD1       -9.8050    4.8540    4.5330 C.ar   99  PHE99      -0.0042
     93  CD2       -8.0950    5.5490    2.9650 C.ar   99  PHE99      -0.0042
     94  CE1       -9.5780    3.5110    4.0950 C.ar   99  PHE99      -0.0003
     95  CE2       -7.9230    4.2470    2.5320 C.ar   99  PHE99      -0.0003
     96  CZ        -8.6030    3.2480    3.1130 C.ar   99  PHE99      -0.0000
@<TRIPOS>BOND
     1    64    63   ar
     2    64    66   ar
     3    62    63    1
     4    62    59    1
     5    63    65   ar
     6    78    72    2
     7    78    77    1
     8    66    67   ar
     9    72    73    1
    10    60    61    2
    11    60    59    1
    12    65    67   ar
    13    65    68   ar
    14    67    69   ar
    15    59    58    1
    16    68    70   ar
    17    69    71   ar
    18    77    76    2
    19    70    71   ar
    20    73    76    1
    21    73    74    1
    22    58    53   am
    23    75    74    2
    24    74    79   am
    25    84    83    1
    26    46    44   ar
    27    45    44   ar
    28    53    54    2
    29    53    52    1
    30    44    43    1
    31    56    55    1
    32    79    80    1
    33    85    83    1
    34    83    80    1
    35    52    55    1
    36    52    51    1
    37    57    55    1
    38    43    40    1
    39    80    81    1
    40    40    39    1
    41    40    41    1
    42    36    34   ar
    43    36    37   ar
    44    34    32   ar
    45    51    49   am
    46    39    29   am
    47    81    82    2
    48    81    86   am
    49    41    42    2
    50    38    37    1
    51    37    35   ar
    52     6     5    1
    53    32    31    1
    54    32    33   ar
    55    49    50    2
    56    49    48    1
    57    31    28    1
    58    95    93   ar
    59    95    96   ar
    60    86    87    1
    61    29    30    2
    62    29    28    1
    63    93    91   ar
    64    96    94   ar
    65    35    33   ar
    66    18    17    1
    67    28    27    1
    68     1     2    1
    69     5     2    1
    70    48    47    1
    71    87    90    1
    72    87    88    1
    73    91    92   ar
    74    91    90    1
    75     2     3    1
    76    94    92   ar
    77    26    24    1
    78    89    88    1
    79    17    15   ar
    80    17    16   ar
    81    25    24    1
    82    15    13   ar
    83    16    14   ar
    84     3     4    2
    85    24    23    1
    86    23    20    1
    87    13    12   ar
    88    14    12   ar
    89    12    11    1
    90    20    19    1
    91    20    21    1
    92    21    22    2
    93    11     8    1
    94     7     8    1
    95     8     9    1
    96     9    10    2
