@<TRIPOS>MOLECULE
tmp/2xzgA00.pdb
 83 78 0 0 0
SMALL
GASTEIGER

@<TRIPOS>ATOM
      1  N         28.3060  -11.2170   -1.1500 N.3   165  TRP165     -0.1241
      2  CA        28.8650  -10.2720   -2.1200 C.3   165  TRP165      0.1605
      3  C         30.0690   -9.6330   -1.4580 C.2   165  TRP165      0.2264
      4  O         29.9640   -9.0630   -0.3700 O.2   165  TRP165     -0.2867
      5  CB        27.8250   -9.2210   -2.5180 C.3   165  TRP165      0.0550
      6  CG        26.7660   -9.8250   -3.2900 C.ar  165  TRP165      0.0003
      7  CD1       25.5950  -10.3940   -2.8190 C.ar  165  TRP165      0.0946
      8  CD2       26.8030  -10.0590   -4.6650 C.ar  165  TRP165      0.0152
      9  NE1       24.9090  -10.9590   -3.8770 N.ar  165  TRP165     -0.2442
     10  CE2       25.6280  -10.7700   -5.0130 C.ar  165  TRP165      0.0810
     11  CE3       27.7030   -9.7170   -5.6650 C.ar  165  TRP165      0.0012
     12  CZ2       25.3380  -11.1350   -6.3110 C.ar  165  TRP165      0.0191
     13  CZ3       27.4130  -10.0670   -6.9490 C.ar  165  TRP165      0.0001
     14  CH2       26.2300  -10.7830   -7.2710 C.ar  165  TRP165      0.0015
     15  N         34.3860   -7.0590   -7.4160 N.3   184  LEU184     -0.1245
     16  CA        33.1300   -7.5200   -6.8070 C.3   184  LEU184      0.1561
     17  C         32.9870   -9.0020   -7.1080 C.2   184  LEU184      0.2260
     18  O         32.9140   -9.3900   -8.2720 O.2   184  LEU184     -0.2867
     19  CB        31.9320   -6.7570   -7.3660 C.3   184  LEU184      0.0270
     20  CG        30.5360   -7.1560   -6.7820 C.3   184  LEU184      0.0019
     21  CD1       30.3920   -6.8330   -5.3100 C.3   184  LEU184      0.0001
     22  CD2       29.4220   -6.4660   -7.6150 C.3   184  LEU184      0.0001
     23  N         30.8480  -12.5780   -6.4160 N.3   186  SER186     -0.1217
     24  CA        29.6470  -13.2910   -6.0110 C.3   186  SER186      0.1889
     25  C         30.0090  -14.7030   -5.5040 C.2   186  SER186      0.2288
     26  O         30.4980  -15.5200   -6.2950 O.2   186  SER186     -0.2866
     27  CB        28.7090  -13.4120   -7.2280 C.3   186  SER186      0.2089
     28  OG        27.5570  -14.1960   -6.8960 O.3   186  SER186     -0.2183
     29  N         27.6060  -17.3180   -7.3710 N.3   189  ARG189     -0.1245
     30  CA        27.8650  -17.5090   -8.7760 C.3   189  ARG189      0.1563
     31  C         29.3270  -17.8470   -9.0820 C.2   189  ARG189      0.2260
     32  O         29.6390  -18.2480  -10.2060 O.2   189  ARG189     -0.2867
     33  CB        27.4700  -16.2940   -9.5860 C.3   189  ARG189      0.0307
     34  CG        26.0550  -15.8380   -9.3240 C.3   189  ARG189      0.0489
     35  CD        25.6940  -14.5580  -10.0280 C.3   189  ARG189      0.2205
     36  NE        24.3670  -14.1630   -9.5650 N.pl3 189  ARG189     -0.0865
     37  CZ        23.7860  -12.9760   -9.7450 C.cat 189  ARG189      0.5346
     38  NH1       24.3920  -11.9930  -10.3950 N.pl3 189  ARG189      0.1354
     39  NH2       22.5740  -12.7790   -9.2600 N.pl3 189  ARG189      0.1354
     40  N         31.7240  -15.7220   -9.5830 N.3   191  VAL191     -0.1245
     41  CA        32.0350  -14.7800  -10.6550 C.3   191  VAL191      0.1561
     42  C         32.5900  -13.4780  -10.0370 C.2   191  VAL191      0.2260
     43  O         32.0010  -12.9880   -9.0700 O.2   191  VAL191     -0.2867
     44  CB        30.7370  -14.4710  -11.5010 C.3   191  VAL191      0.0252
     45  CG1       30.8540  -13.2670  -12.4600 C.3   191  VAL191      0.0019
     46  CG2       30.2990  -15.7580  -12.3130 C.3   191  VAL191      0.0019
     47  N         33.5660   -9.3570  -10.9550 N.3   193  GLN193     -0.1245
     48  CA        33.3370   -8.2210  -11.7910 C.3   193  GLN193      0.1566
     49  C         34.3240   -7.1120  -11.4470 C.2   193  GLN193      0.2260
     50  O         34.2800   -6.6060  -10.3450 O.2   193  GLN193     -0.2867
     51  CB        31.9200   -7.6800  -11.7160 C.3   193  GLN193      0.0367
     52  CG        31.6470   -6.6790  -12.8220 C.3   193  GLN193      0.0905
     53  CD        30.2450   -6.8100  -13.3880 C.2   193  GLN193      0.2608
     54  OE1       29.2790   -6.9630  -12.6420 O.2   193  GLN193     -0.2717
     55  NE2       30.1340   -6.7920  -14.7140 N.am  193  GLN193     -0.0878
     56  N         23.0480    0.0670   -6.8260 N.3   232  ILE232     -0.1231
     57  CA        22.5290   -1.0380   -7.6170 C.3   232  ILE232      0.1692
     58  C         22.1640   -2.1900   -6.7120 C.2   232  ILE232      0.2592
     59  O         22.7870   -2.4220   -5.6990 O.2   232  ILE232     -0.2718
     60  CB        23.5090   -1.5320   -8.6920 C.3   232  ILE232      0.0266
     61  CG1       24.6950   -2.2700   -8.0980 C.3   232  ILE232      0.0019
     62  CG2       23.9260   -0.3510   -9.6530 C.3   232  ILE232      0.0020
     63  CD1       25.5120   -3.1150   -9.1960 C.3   232  ILE232      0.0001
     64  N         21.1310   -2.9580   -7.0690 N.am  233  GLU233     -0.1966
     65  CA        20.8440   -4.1590   -6.3020 C.3   233  GLU233      0.1733
     66  C         21.8080   -5.2710   -6.7330 C.2   233  GLU233      0.2616
     67  O         22.0420   -5.4410   -7.9160 O.2   233  GLU233     -0.2715
     68  CB        19.3750   -4.5660   -6.5280 C.3   233  GLU233      0.0429
     69  CG        18.9850   -5.8230   -5.7980 C.3   233  GLU233      0.1163
     70  CD        17.4190   -6.1070   -5.8990 C.2   233  GLU233      0.3649
     71  OE1       16.8420   -5.6230   -6.8910 O.co2 233  GLU233     -0.2457
     72  OE2       16.9080   -6.7280   -4.9550 O.co2 233  GLU233     -0.2457
     73  N         22.3350   -6.0200   -5.7870 N.am  234  VAL234     -0.1963
     74  CA        23.1070   -7.2060   -6.1390 C.3   234  VAL234      0.1727
     75  C         22.3720   -8.5370   -5.7400 C.2   234  VAL234      0.2616
     76  O         21.7540   -8.6580   -4.6930 O.2   234  VAL234     -0.2715
     77  CB        24.5180   -7.1690   -5.5010 C.3   234  VAL234      0.0290
     78  CG1       25.3680   -6.1210   -6.1720 C.3   234  VAL234      0.0023
     79  CG2       24.4750   -7.0170   -3.9950 C.3   234  VAL234      0.0023
     80  N         22.4750   -9.5080   -6.6200 N.am  235  GLY235     -0.1955
     81  CA        22.0590  -10.8730   -6.3320 C.3   235  GLY235      0.1869
     82  C         20.6020  -10.9930   -6.7220 C.2   235  GLY235      0.2309
     83  O         19.9920  -10.0380   -7.2320 O.2   235  GLY235     -0.2863
@<TRIPOS>BOND
     1    55    53   am
     2    53    52    1
     3    53    54    2
     4    52    51    1
     5    45    44    1
     6    46    44    1
     7    48    51    1
     8    48    49    1
     9    48    47    1
    10    44    41    1
    11    49    50    2
    12    41    42    1
    13    41    40    1
    14    38    37    1
    15    32    31    2
    16    42    43    2
    17    35    36    1
    18    35    34    1
    19    37    36    2
    20    37    39    1
    21    62    60    1
    22    33    34    1
    23    33    30    1
    24    63    61    1
    25    31    30    1
    26    30    29    1
    27    60    61    1
    28    60    57    1
    29    18    17    2
    30    67    66    2
    31    57    56    1
    32    57    58    1
    33    22    20    1
    34    15    16    1
    35    19    16    1
    36    19    20    1
    37    14    13   ar
    38    14    12   ar
    39    83    82    2
    40    27    28    1
    41    27    24    1
    42    17    16    1
    43    64    58   am
    44    64    65    1
    45    13    11   ar
    46    71    70   ar
    47    20    21    1
    48    66    65    1
    49    66    73   am
    50    82    81    1
    51    58    59    2
    52    80    81    1
    53    80    75   am
    54    68    65    1
    55    68    69    1
    56    23    24    1
    57    12    10   ar
    58    26    25    2
    59    78    77    1
    60    74    73    1
    61    74    75    1
    62    74    77    1
    63    24    25    1
    64    70    69    1
    65    70    72   ar
    66    75    76    2
    67    11     8   ar
    68    77    79    1
    69    10     8   ar
    70    10     9   ar
    71     8     6   ar
    72     9     7   ar
    73     6     7   ar
    74     6     5    1
    75     5     2    1
    76     2     3    1
    77     2     1    1
    78     3     4    2
