@<TRIPOS>MOLECULE
tmp/2xzgA01.pdb
 124 115 0 0 0
SMALL
GASTEIGER

@<TRIPOS>ATOM
      1  N         51.8110   -1.3740   21.1430 N.3    51  VAL51      -0.1245
      2  CA        50.4320   -1.1470   20.6740 C.3    51  VAL51       0.1561
      3  C         49.6780   -0.3250   21.7130 C.2    51  VAL51       0.2260
      4  O         49.7260   -0.6000   22.9190 O.2    51  VAL51      -0.2867
      5  CB        49.7280   -2.4480   20.3820 C.3    51  VAL51       0.0252
      6  CG1       48.3210   -2.1760   19.9530 C.3    51  VAL51       0.0019
      7  CG2       50.5320   -3.2260   19.3340 C.3    51  VAL51       0.0019
      8  N         45.9160    1.0620   22.7080 N.3    53  ILE53      -0.1245
      9  CA        44.4880    0.8100   22.4580 C.3    53  ILE53       0.1561
     10  C         43.7270    1.9080   23.1670 C.2    53  ILE53       0.2260
     11  O         43.7540    2.0630   24.3870 O.2    53  ILE53      -0.2867
     12  CB        43.9750   -0.5770   22.9250 C.3    53  ILE53       0.0252
     13  CG1       44.7760   -1.6880   22.2610 C.3    53  ILE53       0.0019
     14  CG2       42.4220   -0.6990   22.7540 C.3    53  ILE53       0.0019
     15  CD1       44.5060   -3.0830   22.8360 C.3    53  ILE53       0.0001
     16  N         45.7570    2.3000   26.9390 N.3    63  ILE63      -0.1245
     17  CA        46.6030    1.2360   27.4450 C.3    63  ILE63       0.1561
     18  C         47.6710    0.9300   26.4120 C.2    63  ILE63       0.2260
     19  O         47.3400    0.7620   25.2350 O.2    63  ILE63      -0.2867
     20  CB        45.7540   -0.0160   27.8130 C.3    63  ILE63       0.0252
     21  CG1       44.7930    0.3210   28.9530 C.3    63  ILE63       0.0019
     22  CG2       46.6790   -1.1610   28.2840 C.3    63  ILE63       0.0019
     23  CD1       43.6520   -0.7010   29.1910 C.3    63  ILE63       0.0001
     24  N         50.8690   -1.7180   25.3910 N.3    65  ARG65      -0.1197
     25  CA        51.4520   -3.0530   25.6550 C.3    65  ARG65       0.1779
     26  C         52.6100   -3.2020   24.6690 C.2    65  ARG65       0.2305
     27  O         52.5270   -2.7750   23.4960 O.2    65  ARG65      -0.2863
     28  CB        50.4190   -4.2240   25.5150 C.2    65  ARG65      -0.0007
     29  CG        50.9370   -5.6850   25.9900 C.2    65  ARG65       0.0176
     30  CD        50.0050   -6.9090   25.6330 C.3    65  ARG65       0.2464
     31  NE        50.3220   -8.1660   26.3510 N.pl3  65  ARG65      -0.0815
     32  CZ        51.3740   -8.9690   26.0980 C.cat  65  ARG65       0.5349
     33  NH1       52.2560   -8.6890   25.1320 N.pl3  65  ARG65       0.1354
     34  NH2       51.5740  -10.0700   26.8330 N.pl3  65  ARG65       0.1354
     35  N         54.4320   -5.0990   22.0400 N.3    67  ILE67      -0.1231
     36  CA        54.0270   -6.0920   21.1050 C.3    67  ILE67       0.1692
     37  C         54.8010   -5.7450   19.8690 C.2    67  ILE67       0.2592
     38  O         54.8000   -4.5710   19.4350 O.2    67  ILE67      -0.2718
     39  CB        52.5090   -6.0110   20.7480 C.3    67  ILE67       0.0266
     40  CG1       51.6320   -6.4210   21.9340 C.3    67  ILE67       0.0019
     41  CG2       52.1870   -6.9110   19.5910 C.3    67  ILE67       0.0020
     42  CD1       50.1610   -6.5950   21.6060 C.3    67  ILE67       0.0001
     43  N         55.3700   -6.7670   19.2770 N.am   68  SER68      -0.1952
     44  CA        55.9870   -6.7320   17.9690 C.3    68  SER68       0.1924
     45  C         54.9950   -7.2930   16.9750 C.2    68  SER68       0.2314
     46  O         54.6130   -8.4650   17.0550 O.2    68  SER68      -0.2863
     47  CB        57.2360   -7.6230   17.9920 C.3    68  SER68       0.2116
     48  OG        56.9600   -8.7940   18.7590 O.3    68  SER68      -0.2180
     49  N         41.9900   -8.7700   19.8380 N.3    81  ILE81      -0.1245
     50  CA        42.8790   -8.0930   18.8810 C.3    81  ILE81       0.1561
     51  C         43.5440   -9.1320   17.9760 C.2    81  ILE81       0.2260
     52  O         43.8970  -10.2270   18.4570 O.2    81  ILE81      -0.2867
     53  CB        43.8860   -7.2240   19.6100 C.3    81  ILE81       0.0252
     54  CG1       44.6630   -6.3180   18.7100 C.3    81  ILE81       0.0019
     55  CG2       44.8750   -8.0720   20.5690 C.3    81  ILE81       0.0019
     56  CD1       45.4470   -5.2290   19.5130 C.3    81  ILE81       0.0001
     57  N         46.8500   -9.6680   15.5270 N.3    83  LEU83      -0.1245
     58  CA        48.1970   -9.1680   15.3500 C.3    83  LEU83       0.1561
     59  C         48.8900   -9.9670   14.2870 C.2    83  LEU83       0.2260
     60  O         48.8040  -11.1940   14.2260 O.2    83  LEU83      -0.2867
     61  CB        48.9500   -9.3170   16.6800 C.3    83  LEU83       0.0270
     62  CG        48.4150   -8.5730   17.8880 C.3    83  LEU83       0.0019
     63  CD1       49.1970   -9.0000   19.1290 C.3    83  LEU83       0.0001
     64  CD2       48.5150   -7.0350   17.6320 C.3    83  LEU83       0.0001
     65  N         48.0050  -13.9480   14.7420 N.3    90  GLN90      -0.1245
     66  CA        47.5010  -14.3810   15.9990 C.3    90  GLN90       0.1566
     67  C         46.2980  -13.5450   16.3660 C.2    90  GLN90       0.2260
     68  O         46.2080  -12.3560   16.0180 O.2    90  GLN90      -0.2867
     69  CB        48.5640  -14.2490   17.0850 C.3    90  GLN90       0.0367
     70  CG        49.8100  -15.0940   16.8080 C.3    90  GLN90       0.0905
     71  CD        50.7490  -15.0310   18.0140 C.2    90  GLN90       0.2608
     72  OE1       50.7730  -15.9300   18.8250 O.2    90  GLN90      -0.2717
     73  NE2       51.4750  -13.9300   18.1430 N.am   90  GLN90      -0.0878
     74  N         44.1870  -12.6090   19.9790 N.3    92  PHE92      -0.1227
     75  CA        44.1820  -12.6530   21.4360 C.3    92  PHE92       0.1736
     76  C         42.9460  -12.1060   22.0800 C.2    92  PHE92       0.2595
     77  O         42.4020  -11.0920   21.6530 O.2    92  PHE92      -0.2718
     78  CB        45.2890  -11.8220   21.9750 C.3    92  PHE92       0.0547
     79  CG        46.5750  -12.3950   21.7520 C.ar   92  PHE92      -0.0202
     80  CD1       47.2450  -12.1400   20.5910 C.ar   92  PHE92      -0.0042
     81  CD2       47.1450  -13.2530   22.7250 C.ar   92  PHE92      -0.0042
     82  CE1       48.5490  -12.6880   20.3540 C.ar   92  PHE92      -0.0003
     83  CE2       48.4030  -13.8430   22.4720 C.ar   92  PHE92      -0.0003
     84  CZ        49.0840  -13.5400   21.2900 C.ar   92  PHE92      -0.0000
     85  N         42.5710  -12.7670   23.1540 N.am   93  ASN93      -0.1960
     86  CA        41.5210  -12.3590   24.0180 C.3    93  ASN93       0.1819
     87  C         42.1520  -11.4350   25.1020 C.2    93  ASN93       0.2621
     88  O         42.8490  -11.8940   25.9900 O.2    93  ASN93      -0.2715
     89  CB        40.8660  -13.5570   24.6890 C.3    93  ASN93       0.1195
     90  CG        39.6570  -13.1450   25.5210 C.2    93  ASN93       0.2630
     91  OD1       39.6750  -12.1030   26.1850 O.2    93  ASN93      -0.2716
     92  ND2       38.6200  -13.9650   25.5200 N.am   93  ASN93      -0.0877
     93  N         41.8970  -10.1360   24.9970 N.am   94  ILE94      -0.1977
     94  CA        42.5190   -9.1590   25.8990 C.3    94  ILE94       0.1596
     95  C         42.1060   -9.3070   27.3660 C.2    94  ILE94       0.2287
     96  O         42.9660   -9.2640   28.2500 O.2    94  ILE94      -0.2864
     97  CB        42.2210   -7.6820   25.3960 C.3    94  ILE94       0.0276
     98  CG1       42.9180   -7.4130   24.0760 C.3    94  ILE94       0.0022
     99  CG2       42.7000   -6.6460   26.4810 C.3    94  ILE94       0.0022
    100  CD1       42.3320   -6.1570   23.4030 C.3    94  ILE94       0.0001
    101  N         43.5900  -12.3270   28.7470 N.3    97  LYS97      -0.1231
    102  CA        45.0160  -12.2900   28.5540 C.3    97  LYS97       0.1693
    103  C         45.5590  -13.5920   27.9810 C.2    97  LYS97       0.2593
    104  O         46.6110  -14.1080   28.4840 O.2    97  LYS97      -0.2718
    105  CB        45.7050  -11.9360   29.8690 C.3    97  LYS97       0.0285
    106  CG        45.2910  -10.5390   30.4680 C.3    97  LYS97       0.0035
    107  CD        45.8930  -10.4000   31.8640 C.3    97  LYS97       0.0206
    108  CE        45.5850   -9.0610   32.5400 C.3    97  LYS97       0.1093
    109  NZ        46.1180   -8.9760   33.9380 N.3    97  LYS97      -0.1314
    110  N         44.9070  -14.0800   26.9050 N.am   98  SER98      -0.1938
    111  CA        45.1670  -15.3850   26.3620 C.3    98  SER98       0.2055
    112  C         45.0570  -15.4190   24.8660 C.2    98  SER98       0.2642
    113  O         44.1660  -14.7770   24.2750 O.2    98  SER98      -0.2714
    114  CB        44.1490  -16.3960   26.9450 C.3    98  SER98       0.2130
    115  OG        44.3490  -16.5850   28.3740 O.3    98  SER98      -0.2179
    116  N         45.9550  -16.1800   24.2710 N.am   99  LYS99      -0.1977
    117  CA        45.9050  -16.4700   22.8510 C.3    99  LYS99       0.1596
    118  C         44.6190  -17.2430   22.5130 C.2    99  LYS99       0.2287
    119  O         44.2520  -18.1860   23.2250 O.2    99  LYS99      -0.2864
    120  CB        47.1260  -17.2790   22.4390 C.3    99  LYS99       0.0298
    121  CG        47.1510  -17.5180   20.9160 C.3    99  LYS99       0.0038
    122  CD        48.5100  -18.0550   20.3950 C.3    99  LYS99       0.0206
    123  CE        48.5870  -19.5300   20.7160 C.3    99  LYS99       0.1093
    124  NZ        49.8000  -20.2310   20.1430 N.3    99  LYS99      -0.1314
@<TRIPOS>BOND
     1    60    59    2
     2    59    58    1
     3    65    66    1
     4    58    57    1
     5    58    61    1
     6    66    67    1
     7    66    69    1
     8    68    67    2
     9    61    62    1
    10    70    69    1
    11    70    71    1
    12    45    46    2
    13    45    44    1
    14    64    62    1
    15    62    63    1
    16    44    47    1
    17    44    43    1
    18    51    52    2
    19    51    50    1
    20    47    48    1
    21    71    73   am
    22    71    72    2
    23    54    56    1
    24    54    53    1
    25    50    53    1
    26    50    49    1
    27    43    37   am
    28     7     5    1
    29    38    37    2
    30    41    39    1
    31    53    55    1
    32    37    36    1
    33     6     5    1
    34    74    75    1
    35   124   123    1
    36    82    80   ar
    37    82    84   ar
    38     5     2    1
    39   122   123    1
    40   122   121    1
    41    80    79   ar
    42     2     1    1
    43     2     3    1
    44    39    36    1
    45    39    40    1
    46   121   120    1
    47    36    35    1
    48    84    83   ar
    49    75    78    1
    50    75    76    1
    51    42    40    1
    52    77    76    2
    53     3     4    2
    54    79    78    1
    55    79    81   ar
    56    76    85   am
    57    13    15    1
    58    13    12    1
    59   120   117    1
    60     9     8    1
    61     9    12    1
    62     9    10    1
    63    83    81   ar
    64   118   117    1
    65   118   119    2
    66    14    12    1
    67   117   116    1
    68    85    86    1
    69    10    11    2
    70   100    98    1
    71    27    26    2
    72    86    89    1
    73    86    87    1
    74    98    97    1
    75   116   112   am
    76   113   112    2
    77    26    25    1
    78    89    90    1
    79   112   111    1
    80    93    87   am
    81    93    94    1
    82    87    88    2
    83    33    32    1
    84    19    18    2
    85    24    25    1
    86    97    94    1
    87    97    99    1
    88    28    25    1
    89    28    29    2
    90    92    90   am
    91    90    91    2
    92    30    29    1
    93    30    31    1
    94    94    95    1
    95    32    31    2
    96    32    34    1
    97   111   110    1
    98   111   114    1
    99    18    17    1
   100   110   103   am
   101    16    17    1
   102   114   115    1
   103    95    96    2
   104    17    20    1
   105    20    22    1
   106    20    21    1
   107   103   104    2
   108   103   102    1
   109   102   101    1
   110   102   105    1
   111    21    23    1
   112   105   106    1
   113   106   107    1
   114   107   108    1
   115   108   109    1
