@<TRIPOS>MOLECULE
tmp/2xziA01.pdb
 106 99 0 0 0
SMALL
GASTEIGER

@<TRIPOS>ATOM
      1  N         54.4510   28.6240   42.8050 N.3    38  ARG38      -0.1245
      2  CA        53.8050   29.6200   43.6730 C.3    38  ARG38       0.1563
      3  C         52.4580   29.1010   44.1430 C.2    38  ARG38       0.2260
      4  O         51.9850   28.0650   43.6740 O.2    38  ARG38      -0.2867
      5  CB        53.6130   30.9340   42.9110 C.3    38  ARG38       0.0307
      6  CG        54.8810   31.7770   42.7430 C.3    38  ARG38       0.0489
      7  CD        54.5560   33.2570   42.5490 C.3    38  ARG38       0.2205
      8  NE        53.8360   33.7370   43.7140 N.pl3  38  ARG38      -0.0865
      9  CZ        53.0180   34.7780   43.7460 C.cat  38  ARG38       0.5346
     10  NH1       52.8170   35.5300   42.6760 N.pl3  38  ARG38       0.1354
     11  NH2       52.3810   35.0490   44.8830 N.pl3  38  ARG38       0.1354
     12  N         47.7500   47.8130   50.8960 N.3   248  LYS248     -0.1245
     13  CA        48.6630   47.4540   51.9760 C.3   248  LYS248      0.1561
     14  C         48.2250   48.0760   53.2980 C.2   248  LYS248      0.2260
     15  O         47.7210   49.2070   53.3210 O.2   248  LYS248     -0.2867
     16  CB        50.0790   47.9200   51.6480 C.3   248  LYS248      0.0271
     17  CG        50.6350   47.3600   50.3580 C.3   248  LYS248      0.0035
     18  CD        52.1150   47.6900   50.2190 C.3   248  LYS248      0.0206
     19  CE        52.8000   46.7210   49.2640 C.3   248  LYS248      0.1093
     20  NZ        54.2800   46.8430   49.3380 N.3   248  LYS248     -0.1314
     21  N         54.5310   46.5750   54.4340 N.3   299  THR299     -0.1203
     22  CA        55.2000   46.8410   53.1550 C.3   299  THR299      0.1994
     23  C         55.8870   45.6470   52.4730 C.2   299  THR299      0.2619
     24  O         55.9680   45.5980   51.2400 O.2   299  THR299     -0.2717
     25  CB        56.2570   47.9710   53.2960 C.3   299  THR299      0.1784
     26  OG1       57.1850   47.6420   54.3370 O.3   299  THR299     -0.2211
     27  CG2       55.5850   49.3050   53.5890 C.3   299  THR299      0.0376
     28  N         56.3860   44.7070   53.2710 N.am  300  SER300     -0.1937
     29  CA        57.2440   43.6350   52.7680 C.3   300  SER300      0.2055
     30  C         56.5760   42.2730   52.9070 C.2   300  SER300      0.2643
     31  O         55.8610   42.0280   53.8790 O.2   300  SER300     -0.2714
     32  CB        58.5570   43.6150   53.5490 C.3   300  SER300      0.2130
     33  OG        59.3860   42.5400   53.1370 O.3   300  SER300     -0.2179
     34  N         56.8280   41.3990   51.9380 N.am  301  ARG301     -0.1963
     35  CA        56.4030   40.0000   52.0430 C.3   301  ARG301      0.1729
     36  C         57.4110   39.1450   52.7970 C.2   301  ARG301      0.2616
     37  O         57.1810   37.9600   53.0030 O.2   301  ARG301     -0.2715
     38  CB        56.1000   39.3960   50.6620 C.3   301  ARG301      0.0348
     39  CG        54.8200   39.9790   50.0580 C.3   301  ARG301      0.0492
     40  CD        54.4570   39.3830   48.7250 C.3   301  ARG301      0.2205
     41  NE        53.1870   39.9540   48.2820 N.pl3 301  ARG301     -0.0865
     42  CZ        52.4530   39.5090   47.2670 C.cat 301  ARG301      0.5346
     43  NH1       52.8340   38.4420   46.5530 N.pl3 301  ARG301      0.1354
     44  NH2       51.3100   40.1130   46.9680 N.pl3 301  ARG301      0.1354
     45  N         58.5060   39.7510   53.2460 N.am  302  ARG302     -0.1977
     46  CA        59.6220   39.0160   53.8360 C.3   302  ARG302      0.1597
     47  C         59.6450   39.1070   55.3610 C.2   302  ARG302      0.2287
     48  O         60.7180   39.1750   55.9670 O.2   302  ARG302     -0.2864
     49  CB        60.9490   39.5530   53.2980 C.3   302  ARG302      0.0334
     50  CG        61.1470   39.3420   51.8160 C.3   302  ARG302      0.0492
     51  CD        62.5800   39.6610   51.4280 C.3   302  ARG302      0.2205
     52  NE        62.7450   39.6310   49.9790 N.pl3 302  ARG302     -0.0865
     53  CZ        63.8180   40.0740   49.3230 C.cat 302  ARG302      0.5346
     54  NH1       64.8600   40.5870   49.9710 N.pl3 302  ARG302      0.1354
     55  NH2       63.8470   40.0030   47.9980 N.pl3 302  ARG302      0.1354
     56  N         64.8670   34.0990   49.0530 N.3   333  HIS333     -0.1241
     57  CA        64.3580   34.8810   50.1650 C.3   333  HIS333      0.1621
     58  C         62.9540   34.4210   50.5130 C.2   333  HIS333      0.2264
     59  O         62.0350   34.6240   49.7230 O.2   333  HIS333     -0.2867
     60  CB        64.3340   36.3670   49.7890 C.3   333  HIS333      0.0745
     61  CG        65.6760   36.9180   49.4260 C.ar  333  HIS333      0.0817
     62  ND1       66.6630   37.1370   50.3620 N.ar  333  HIS333     -0.2268
     63  CD2       66.1900   37.3070   48.2350 C.ar  333  HIS333      0.1154
     64  CE1       67.7350   37.6260   49.7620 C.ar  333  HIS333      0.1986
     65  NE2       67.4750   37.7410   48.4710 N.ar  333  HIS333     -0.2212
     66  N         59.3030   34.3190   51.8710 N.3   335  GLY335     -0.1225
     67  CA        58.2160   35.2180   52.1570 C.3   335  GLY335      0.1811
     68  C         57.2320   35.2980   51.0260 C.2   335  GLY335      0.2280
     69  O         57.6120   35.4110   49.8680 O.2   335  GLY335     -0.2866
     70  N         61.5600   33.5420   47.1220 N.3   355  ASP355     -0.1239
     71  CA        61.8440   34.2600   45.8770 C.3   355  ASP355      0.1674
     72  C         63.3230   34.5100   45.7830 C.2   355  ASP355      0.2266
     73  O         63.9040   35.1560   46.6500 O.2   355  ASP355     -0.2867
     74  CB        61.0790   35.5940   45.9020 C.3   355  ASP355      0.1410
     75  CG        61.1420   36.3710   44.5790 C.2   355  ASP355      0.3668
     76  OD1       61.9580   36.0740   43.6830 O.co2 355  ASP355     -0.2456
     77  OD2       60.3580   37.3230   44.4500 O.co2 355  ASP355     -0.2456
     78  N         64.7480   36.3210   43.5950 N.3   357  PHE357     -0.1241
     79  CA        64.8550   37.7600   43.3310 C.3   357  PHE357      0.1605
     80  C         66.0160   38.0910   42.3710 C.2   357  PHE357      0.2264
     81  O         66.5420   39.2030   42.3620 O.2   357  PHE357     -0.2867
     82  CB        64.9670   38.5360   44.6490 C.3   357  PHE357      0.0534
     83  CG        64.3780   39.9110   44.5930 C.ar  357  PHE357     -0.0203
     84  CD1       63.0040   40.0860   44.4560 C.ar  357  PHE357     -0.0042
     85  CD2       65.1870   41.0380   44.7000 C.ar  357  PHE357     -0.0042
     86  CE1       62.4440   41.3630   44.4120 C.ar  357  PHE357     -0.0003
     87  CE2       64.6370   42.3190   44.6570 C.ar  357  PHE357     -0.0003
     88  CZ        63.2620   42.4800   44.5170 C.ar  357  PHE357     -0.0000
     89  N         61.7070   42.2970   40.8400 N.3   361  THR361     -0.1218
     90  CA        60.2630   42.0940   40.7350 C.3   361  THR361      0.1862
     91  C         59.8560   41.5550   39.3640 C.2   361  THR361      0.2287
     92  O         58.6690   41.2960   39.1170 O.2   361  THR361     -0.2866
     93  CB        59.4960   43.4030   41.0040 C.3   361  THR361      0.1770
     94  OG1       59.9120   44.3960   40.0650 O.3   361  THR361     -0.2211
     95  CG2       59.7530   43.9080   42.4260 C.3   361  THR361      0.0375
     96  N         60.8430   31.3220   41.6570 N.3   367  ARG367     -0.1245
     97  CA        60.0850   31.1830   42.8950 C.3   367  ARG367      0.1563
     98  C         60.0240   29.7300   43.3200 C.2   367  ARG367      0.2260
     99  O         59.7400   28.8470   42.5050 O.2   367  ARG367     -0.2867
    100  CB        58.6620   31.7120   42.7270 C.3   367  ARG367      0.0307
    101  CG        58.5700   33.0720   42.0940 C.3   367  ARG367      0.0489
    102  CD        59.2650   34.1510   42.9260 C.3   367  ARG367      0.2205
    103  NE        58.9730   35.4840   42.4070 N.pl3 367  ARG367     -0.0865
    104  CZ        57.8710   36.1720   42.7090 C.cat 367  ARG367      0.5346
    105  NH1       56.9590   35.6610   43.5460 N.pl3 367  ARG367      0.1354
    106  NH2       57.6750   37.3740   42.1740 N.pl3 367  ARG367      0.1354
@<TRIPOS>BOND
     1    92    91    2
     2    91    90    1
     3    94    93    1
     4    90    89    1
     5    90    93    1
     6    93    95    1
     7    96    97    1
     8   101   100    1
     9   101   102    1
    10   106   104    1
    11    81    80    2
    12    80    79    1
    13   103   104    2
    14   103   102    1
    15    99    98    2
    16     7     6    1
    17     7     8    1
    18    10     9    1
    19   104   105    1
    20   100    97    1
    21     6     5    1
    22     1     2    1
    23    97    98    1
    24     5     2    1
    25    79    78    1
    26    79    82    1
    27     2     3    1
    28     4     3    2
    29    76    75   ar
    30     8     9    2
    31     9    11    1
    32    86    84   ar
    33    86    88   ar
    34    77    75   ar
    35    84    83   ar
    36    88    87   ar
    37    75    74    1
    38    83    82    1
    39    83    85   ar
    40    87    85   ar
    41    72    71    1
    42    72    73    2
    43    71    74    1
    44    71    70    1
    45    43    42    1
    46    44    42    1
    47    42    41    2
    48    55    53    1
    49    63    65   ar
    50    63    61   ar
    51    41    40    1
    52    65    64   ar
    53    40    39    1
    54    56    57    1
    55    19    20    1
    56    19    18    1
    57    53    54    1
    58    53    52    2
    59    61    60    1
    60    61    62   ar
    61    59    58    2
    62    64    62   ar
    63    60    57    1
    64    69    68    2
    65    52    51    1
    66    39    38    1
    67    57    58    1
    68    18    17    1
    69    17    16    1
    70    38    35    1
    71    12    13    1
    72    68    67    1
    73    24    23    2
    74    51    50    1
    75    16    13    1
    76    50    49    1
    77    66    67    1
    78    34    35    1
    79    34    30   am
    80    13    14    1
    81    35    36    1
    82    23    22    1
    83    23    28   am
    84    29    30    1
    85    29    28    1
    86    29    32    1
    87    36    37    2
    88    36    45   am
    89    30    31    2
    90    33    32    1
    91    22    25    1
    92    22    21    1
    93    45    46    1
    94    25    27    1
    95    25    26    1
    96    14    15    2
    97    49    46    1
    98    46    47    1
    99    47    48    2
