@<TRIPOS>MOLECULE
tmp/2xzjA00.pdb
 137 128 0 0 0
SMALL
GASTEIGER

@<TRIPOS>ATOM
      1  N         54.7530   28.7150   42.5660 N.3    39  ARG39      -0.1231
      2  CA        54.1440   29.7160   43.4420 C.3    39  ARG39       0.1694
      3  C         52.7780   29.2200   43.9490 C.2    39  ARG39       0.2591
      4  O         52.2690   28.1630   43.5320 O.2    39  ARG39      -0.2718
      5  CB        53.9590   31.0680   42.7340 C.3    39  ARG39       0.0321
      6  CG        55.2280   31.8520   42.4220 C.3    39  ARG39       0.0489
      7  CD        54.9250   33.3250   42.2770 C.3    39  ARG39       0.2205
      8  NE        54.2570   33.7850   43.4940 N.pl3  39  ARG39      -0.0865
      9  CZ        53.4060   34.7920   43.5720 C.cat  39  ARG39       0.5346
     10  NH1       53.0950   35.5180   42.4980 N.pl3  39  ARG39       0.1354
     11  NH2       52.8570   35.0730   44.7510 N.pl3  39  ARG39       0.1354
     12  N         52.2060   29.9850   44.8750 N.am   40  ILE40      -0.1980
     13  CA        50.8250   29.7610   45.3080 C.3    40  ILE40       0.1595
     14  C         50.6350   28.3560   45.9340 C.2    40  ILE40       0.2287
     15  O         49.9560   27.4780   45.3560 O.2    40  ILE40      -0.2864
     16  CB        49.7900   30.0690   44.1440 C.3    40  ILE40       0.0276
     17  CG1       50.2020   31.2770   43.2850 C.3    40  ILE40       0.0022
     18  CG2       48.3750   30.2540   44.6860 C.3    40  ILE40       0.0022
     19  CD1       50.4840   32.5910   44.0520 C.3    40  ILE40       0.0001
     20  N         51.1660   26.0750   42.1240 N.3    56  GLU56      -0.1245
     21  CA        51.1100   26.4420   40.7310 C.3    56  GLU56       0.1567
     22  C         52.4900   26.1880   40.0990 C.2    56  GLU56       0.2260
     23  O         53.5020   26.7170   40.5670 O.2    56  GLU56      -0.2867
     24  CB        50.7220   27.9060   40.6060 C.3    56  GLU56       0.0388
     25  CG        49.2290   28.1640   40.5900 C.3    56  GLU56       0.1160
     26  CD        48.9080   29.6390   40.4950 C.2    56  GLU56       0.3649
     27  OE1       49.6870   30.3810   39.8440 O.co2  56  GLU56      -0.2457
     28  OE2       47.8790   30.0580   41.0500 O.co2  56  GLU56      -0.2457
     29  N         54.4960   27.1970   37.2450 N.3    58  ARG58      -0.1245
     30  CA        54.4860   28.2940   36.2640 C.3    58  ARG58       0.1563
     31  C         55.5630   28.0110   35.2370 C.2    58  ARG58       0.2260
     32  O         56.7720   28.0460   35.5420 O.2    58  ARG58      -0.2867
     33  CB        54.6640   29.6420   36.9580 C.3    58  ARG58       0.0307
     34  CG        53.5970   29.8610   38.0470 C.3    58  ARG58       0.0489
     35  CD        53.5530   31.2970   38.5670 C.3    58  ARG58       0.2205
     36  NE        52.2740   31.5380   39.2470 N.pl3  58  ARG58      -0.0865
     37  CZ        51.8680   32.7150   39.7010 C.cat  58  ARG58       0.5346
     38  NH1       52.6500   33.7830   39.5710 N.pl3  58  ARG58       0.1354
     39  NH2       50.6700   32.8140   40.2860 N.pl3  58  ARG58       0.1354
     40  N         51.7510   35.6320   36.7630 N.3    64  ASP64      -0.1239
     41  CA        50.4920   35.0330   37.2190 C.3    64  ASP64       0.1674
     42  C         49.6580   34.4500   36.0750 C.2    64  ASP64       0.2266
     43  O         48.7190   33.6860   36.3050 O.2    64  ASP64      -0.2867
     44  CB        49.6110   36.0770   37.9250 C.3    64  ASP64       0.1410
     45  CG        50.2850   36.7650   39.0920 C.2    64  ASP64       0.3668
     46  OD1       51.2700   36.2580   39.6530 O.co2  64  ASP64      -0.2456
     47  OD2       49.7940   37.8550   39.4510 O.co2  64  ASP64      -0.2456
     48  N         45.3400   28.8140   41.8470 N.3   104  ASN104     -0.1240
     49  CA        44.6540   29.1250   43.0850 C.3   104  ASN104      0.1653
     50  C         44.2280   27.8470   43.8290 C.2   104  ASN104      0.2266
     51  O         43.0680   27.7290   44.1840 O.2   104  ASN104     -0.2867
     52  CB        43.4160   29.9820   42.7940 C.3   104  ASN104      0.1155
     53  CG        43.7500   31.4330   42.5840 C.2   104  ASN104      0.2627
     54  OD1       44.2320   31.8230   41.5230 O.2   104  ASN104     -0.2716
     55  ND2       43.5140   32.2470   43.6110 N.am  104  ASN104     -0.0877
     56  N         44.9630   39.4160   34.1040 N.3   128  GLN128     -0.1245
     57  CA        44.2470   40.3400   34.9850 C.3   128  GLN128      0.1566
     58  C         44.3000   41.8000   34.4970 C.2   128  GLN128      0.2260
     59  O         43.2690   42.4990   34.4640 O.2   128  GLN128     -0.2867
     60  CB        44.8160   40.2300   36.4040 C.3   128  GLN128      0.0367
     61  CG        44.0030   40.9930   37.4620 C.3   128  GLN128      0.0905
     62  CD        44.4450   40.7380   38.8830 C.2   128  GLN128      0.2608
     63  OE1       45.5190   40.1790   39.1370 O.2   128  GLN128     -0.2717
     64  NE2       43.6030   41.1570   39.8380 N.am  128  GLN128     -0.0878
     65  N         37.5050   34.7630   34.6750 N.3   151  ARG151     -0.1245
     66  CA        38.0340   33.7380   35.5380 C.3   151  ARG151      0.1563
     67  C         36.9410   32.7480   35.9260 C.2   151  ARG151      0.2260
     68  O         35.8490   33.1360   36.4020 O.2   151  ARG151     -0.2867
     69  CB        38.7140   34.3570   36.7530 C.3   151  ARG151      0.0307
     70  CG        39.9630   35.1130   36.3670 C.3   151  ARG151      0.0489
     71  CD        41.1940   34.2140   36.5240 C.3   151  ARG151      0.2205
     72  NE        41.5260   34.1080   37.9430 N.pl3 151  ARG151     -0.0865
     73  CZ        42.5840   33.4760   38.4430 C.cat 151  ARG151      0.5346
     74  NH1       43.4440   32.8590   37.6450 N.pl3 151  ARG151      0.1354
     75  NH2       42.7740   33.4660   39.7550 N.pl3 151  ARG151      0.1354
     76  N         37.2900   39.1180   36.7680 N.3   182  TRP182     -0.1241
     77  CA        38.2860   38.5800   37.6990 C.3   182  TRP182      0.1605
     78  C         37.5770   37.7840   38.7960 C.2   182  TRP182      0.2264
     79  O         36.4540   38.1060   39.1700 O.2   182  TRP182     -0.2867
     80  CB        39.1790   39.6620   38.3250 C.3   182  TRP182      0.0550
     81  CG        40.3130   39.0450   39.1390 C.ar  182  TRP182      0.0003
     82  CD1       40.4380   39.0250   40.4970 C.ar  182  TRP182      0.0946
     83  CD2       41.4260   38.3090   38.6220 C.ar  182  TRP182      0.0152
     84  NE1       41.5700   38.3310   40.8580 N.ar  182  TRP182     -0.2442
     85  CE2       42.2000   37.8930   39.7230 C.ar  182  TRP182      0.0810
     86  CE3       41.8570   37.9830   37.3240 C.ar  182  TRP182      0.0012
     87  CZ2       43.3790   37.1460   39.5740 C.ar  182  TRP182      0.0191
     88  CZ3       43.0260   37.2450   37.1760 C.ar  182  TRP182      0.0001
     89  CH2       43.7730   36.8370   38.2920 C.ar  182  TRP182      0.0015
     90  N         39.7580   39.7790   47.6680 N.3   228  ALA228     -0.1231
     91  CA        39.9020   38.7880   46.5850 C.3   228  ALA228      0.1694
     92  C         40.5130   37.4750   47.1040 C.2   228  ALA228      0.2591
     93  O         40.0760   36.3870   46.7150 O.2   228  ALA228     -0.2718
     94  CB        40.7640   39.3690   45.4580 C.3   228  ALA228      0.0304
     95  N         41.5290   37.5860   47.9690 N.am  229  GLU229     -0.1979
     96  CA        42.2020   36.4000   48.5260 C.3   229  GLU229      0.1602
     97  C         41.9130   36.2520   50.0150 C.2   229  GLU229      0.2287
     98  O         42.4950   36.9460   50.8450 O.2   229  GLU229     -0.2864
     99  CB        43.7070   36.4520   48.2610 C.3   229  GLU229      0.0415
    100  CG        44.0680   36.3320   46.7860 C.3   229  GLU229      0.1163
    101  CD        45.5750   36.3100   46.5660 C.2   229  GLU229      0.3649
    102  OE1       46.3280   36.7720   47.4580 O.co2 229  GLU229     -0.2457
    103  OE2       46.0040   35.7990   45.5160 O.co2 229  GLU229     -0.2457
    104  N         43.3700   39.2560   52.5530 N.3   245  ARG245     -0.1245
    105  CA        44.4080   40.1690   52.0480 C.3   245  ARG245      0.1563
    106  C         43.8080   41.5550   51.8150 C.2   245  ARG245      0.2260
    107  O         42.7240   41.6630   51.2410 O.2   245  ARG245     -0.2867
    108  CB        44.9470   39.6020   50.7260 C.3   245  ARG245      0.0307
    109  CG        45.8900   40.5020   49.9590 C.3   245  ARG245      0.0489
    110  CD        46.3610   39.7720   48.7160 C.3   245  ARG245      0.2205
    111  NE        46.9090   40.6860   47.7260 N.pl3 245  ARG245     -0.0865
    112  CZ        47.6960   40.3070   46.7240 C.cat 245  ARG245      0.5346
    113  NH1       48.0370   39.0250   46.5870 N.pl3 245  ARG245      0.1354
    114  NH2       48.1450   41.2150   45.8650 N.pl3 245  ARG245      0.1354
    115  N         57.3930   41.3390   51.6190 N.3   302  ARG302     -0.1245
    116  CA        56.9330   39.9540   51.7640 C.3   302  ARG302      0.1563
    117  C         57.9560   39.0710   52.4500 C.2   302  ARG302      0.2260
    118  O         57.7390   37.8760   52.5690 O.2   302  ARG302     -0.2867
    119  CB        56.5120   39.3490   50.4230 C.3   302  ARG302      0.0307
    120  CG        55.1850   39.9100   49.9280 C.3   302  ARG302      0.0489
    121  CD        54.8850   39.4420   48.5280 C.3   302  ARG302      0.2205
    122  NE        53.6620   40.0560   48.0370 N.pl3 302  ARG302     -0.0865
    123  CZ        52.9480   39.5990   47.0150 C.cat 302  ARG302      0.5346
    124  NH1       53.3300   38.5040   46.3610 N.pl3 302  ARG302      0.1354
    125  NH2       51.8490   40.2390   46.6490 N.pl3 302  ARG302      0.1354
    126  N         53.3790   34.0460   49.7950 N.3   338  TYR338     -0.1241
    127  CA        52.2300   33.1700   50.1010 C.3   338  TYR338      0.1605
    128  C         52.6300   31.9800   50.9540 C.2   338  TYR338      0.2264
    129  O         53.7760   31.5120   50.8810 O.2   338  TYR338     -0.2867
    130  CB        51.6160   32.6390   48.7900 C.3   338  TYR338      0.0534
    131  CG        50.8000   33.6460   48.0040 C.ar  338  TYR338     -0.0201
    132  CD1       51.2430   34.9600   47.8250 C.ar  338  TYR338     -0.0009
    133  CD2       49.5820   33.2760   47.4280 C.ar  338  TYR338     -0.0009
    134  CE1       50.4790   35.8890   47.0970 C.ar  338  TYR338      0.0417
    135  CE2       48.8210   34.1880   46.7040 C.ar  338  TYR338      0.0417
    136  CZ        49.2850   35.4890   46.5390 C.ar  338  TYR338      0.1957
    137  OH        48.5290   36.3780   45.8160 O.3   338  TYR338     -0.2866
@<TRIPOS>BOND
     1    56    57    1
     2    59    58    2
     3    58    57    1
     4    65    66    1
     5    57    60    1
     6    31    32    2
     7    31    30    1
     8    66    67    1
     9    66    69    1
    10    67    68    2
    11    42    43    2
    12    42    41    1
    13    30    33    1
    14    30    29    1
    15    70    71    1
    16    70    69    1
    17    60    61    1
    18    71    72    1
    19    40    41    1
    20    76    77    1
    21    33    34    1
    22    88    86   ar
    23    88    89   ar
    24    41    44    1
    25    86    83   ar
    26    61    62    1
    27    74    73    1
    28    77    80    1
    29    77    78    1
    30    44    45    1
    31    72    73    2
    32    34    35    1
    33    89    87   ar
    34    80    81    1
    35    73    75    1
    36    35    36    1
    37    83    81   ar
    38    83    85   ar
    39    78    79    2
    40    62    63    2
    41    62    64   am
    42    45    47   ar
    43    45    46   ar
    44    81    82   ar
    45    36    37    2
    46    38    37    1
    47    87    85   ar
    48    37    39    1
    49    85    84   ar
    50    27    26   ar
    51    22    23    2
    52    22    21    1
    53    26    25    1
    54    26    28   ar
    55    82    84   ar
    56    25    24    1
    57    24    21    1
    58    21    20    1
    59    54    53    2
    60    48    49    1
    61     7     6    1
    62     7     8    1
    63     6     5    1
    64    10     9    1
    65     1     2    1
    66    53    52    1
    67    53    55   am
    68     5     2    1
    69    52    49    1
    70    49    50    1
    71    17    19    1
    72    17    16    1
    73     2     3    1
    74     8     9    2
    75     4     3    2
    76     9    11    1
    77    50    51    2
    78     3    12   am
    79    16    18    1
    80    16    13    1
    81    12    13    1
    82    13    14    1
    83    15    14    2
    84    94    91    1
    85   103   101   ar
    86   137   136    1
    87   114   112    1
    88   124   123    1
    89   136   135   ar
    90   136   134   ar
    91   101   100    1
    92   101   102   ar
    93    91    92    1
    94    91    90    1
    95   113   112    1
    96   125   123    1
    97   135   133   ar
    98    93    92    2
    99   112   111    2
   100   100    99    1
   101   123   122    2
   102   134   132   ar
   103    92    95   am
   104   133   131   ar
   105   111   110    1
   106   132   131   ar
   107    95    96    1
   108   131   130    1
   109   122   121    1
   110    99    96    1
   111    96    97    1
   112   121   120    1
   113   110   109    1
   114   130   127    1
   115   126   127    1
   116   120   119    1
   117   109   108    1
   118    97    98    2
   119   127   128    1
   120   119   116    1
   121   108   105    1
   122   129   128    2
   123   107   106    2
   124   115   116    1
   125   116   117    1
   126   106   105    1
   127   105   104    1
   128   117   118    2
