@<TRIPOS>MOLECULE
tmp/2xzkB02.pdb
 106 104 0 0 0
SMALL
GASTEIGER

@<TRIPOS>ATOM
      1  N         53.1260   13.5020   72.4410 N.3     2  PRO2       -0.2102
      2  CA        53.9230   14.7310   72.3710 C.3     2  PRO2        0.1504
      3  C         54.3100   15.3090   73.7420 C.2     2  PRO2        0.2575
      4  O         55.3000   16.0360   73.8450 O.2     2  PRO2       -0.2718
      5  CB        53.0180   15.6960   71.5890 C.3     2  PRO2        0.0282
      6  CG        51.6330   15.1650   71.7960 C.3     2  PRO2        0.0208
      7  CD        51.7880   13.6790   71.8460 C.3     2  PRO2        0.0893
      8  N         53.5680   14.9490   74.7870 N.am    3  ALA3       -0.1980
      9  CA        53.8630   15.4240   76.1360 C.3     3  ALA3        0.1597
     10  C         55.1620   14.8590   76.6970 C.2     3  ALA3        0.2287
     11  O         55.7200   15.4140   77.6390 O.2     3  ALA3       -0.2864
     12  CB        52.7060   15.1240   77.0740 C.3     3  ALA3        0.0319
     13  N         41.6870   13.8220   81.5970 N.3   281  TYR281     -0.1227
     14  CA        42.7920   14.7920   81.5860 C.3   281  TYR281      0.1736
     15  C         42.6030   15.8460   80.4970 C.2   281  TYR281      0.2595
     16  O         42.7090   17.0470   80.7590 O.2   281  TYR281     -0.2718
     17  CB        44.1880   14.1190   81.4760 C.3   281  TYR281      0.0548
     18  CG        45.3120   15.1250   81.6440 C.ar  281  TYR281     -0.0200
     19  CD1       45.7180   15.5410   82.9090 C.ar  281  TYR281     -0.0009
     20  CD2       45.9350   15.7010   80.5350 C.ar  281  TYR281     -0.0009
     21  CE1       46.7240   16.4970   83.0670 C.ar  281  TYR281      0.0417
     22  CE2       46.9370   16.6460   80.6830 C.ar  281  TYR281      0.0417
     23  CZ        47.3320   17.0480   81.9520 C.ar  281  TYR281      0.1957
     24  OH        48.3260   18.0050   82.1010 O.3   281  TYR281     -0.2866
     25  N         42.3570   15.3900   79.2760 N.am  282  ASN282     -0.1960
     26  CA        42.1950   16.2860   78.1370 C.3   282  ASN282      0.1819
     27  C         41.3920   15.5920   77.0550 C.2   282  ASN282      0.2622
     28  O         41.3110   14.3600   77.0270 O.2   282  ASN282     -0.2715
     29  CB        43.5590   16.7180   77.5930 C.3   282  ASN282      0.1195
     30  CG        44.3160   15.5780   76.9570 C.2   282  ASN282      0.2630
     31  OD1       44.7010   14.6120   77.6360 O.2   282  ASN282     -0.2716
     32  ND2       44.5430   15.6760   75.6480 N.am  282  ASN282     -0.0877
     33  N         40.8190   16.3980   76.1580 N.am  283  SER283     -0.1936
     34  CA        39.9800   15.9090   75.0720 C.3   283  SER283      0.2055
     35  C         40.5950   16.1670   73.6860 C.2   283  SER283      0.2643
     36  O         40.2490   15.4920   72.7160 O.2   283  SER283     -0.2714
     37  CB        38.5900   16.5460   75.1570 C.3   283  SER283      0.2130
     38  OG        38.6840   17.9590   75.0690 O.3   283  SER283     -0.2179
     39  N         41.5040   17.1380   73.6040 N.am  284  ASP284     -0.1957
     40  CA        42.2460   17.3930   72.3630 C.3   284  ASP284      0.1840
     41  C         43.2320   16.2500   72.0840 C.2   284  ASP284      0.2622
     42  O         43.7160   15.6020   73.0160 O.2   284  ASP284     -0.2715
     43  CB        42.9560   18.7580   72.4070 C.3   284  ASP284      0.1450
     44  CG        43.9970   18.8500   73.5060 C.2   284  ASP284      0.3671
     45  OD1       43.7300   18.3630   74.6270 O.co2 284  ASP284     -0.2456
     46  OD2       45.0890   19.4020   73.2490 O.co2 284  ASP284     -0.2456
     47  N         43.5090   15.9820   70.8100 N.am  285  ALA285     -0.1964
     48  CA        44.3950   14.8790   70.4380 C.3   285  ALA285      0.1713
     49  C         45.8190   15.0450   70.9960 C.2   285  ALA285      0.2458
     50  O         46.4460   16.1060   70.8130 O.2   285  ALA285     -0.2730
     51  CB        44.4170   14.6820   68.9250 C.3   285  ALA285      0.0333
     52  N         46.3320   13.9990   71.6860 N.am  286  PRO286     -0.2727
     53  CA        45.6400   12.7350   71.9680 C.3   286  PRO286      0.1402
     54  C         44.8710   12.7830   73.2910 C.2   286  PRO286      0.2269
     55  O         45.4310   13.1820   74.3200 O.2   286  PRO286     -0.2865
     56  CB        46.7920   11.7310   72.0740 C.3   286  PRO286      0.0296
     57  CG        47.9710   12.5430   72.5450 C.3   286  PRO286      0.0237
     58  CD        47.6950   14.0060   72.2520 C.3   286  PRO286      0.0939
     59  N         43.3390   11.7710   76.7640 N.3   288  ARG288     -0.1245
     60  CA        43.8790   10.9140   77.8320 C.3   288  ARG288      0.1563
     61  C         42.9360   10.7960   79.0310 C.2   288  ARG288      0.2260
     62  O         42.3460   11.7940   79.4780 O.2   288  ARG288     -0.2867
     63  CB        45.2330   11.4370   78.3160 C.3   288  ARG288      0.0307
     64  CG        46.2920   11.6210   77.2190 C.3   288  ARG288      0.0489
     65  CD        47.5500   12.2110   77.8020 C.3   288  ARG288      0.2205
     66  NE        48.4800   12.7800   76.8180 N.pl3 288  ARG288     -0.0865
     67  CZ        48.3810   13.9980   76.2930 C.cat 288  ARG288      0.5346
     68  NH1       47.3740   14.8010   76.6280 N.pl3 288  ARG288      0.1354
     69  NH2       49.3040   14.4210   75.4430 N.pl3 288  ARG288      0.1354
     70  N         43.2650   17.9560   87.7560 N.3   341  LYS341     -0.1245
     71  CA        44.2160   18.5590   86.8350 C.3   341  LYS341      0.1561
     72  C         44.4470   19.9590   87.3740 C.2   341  LYS341      0.2260
     73  O         43.4860   20.6840   87.6420 O.2   341  LYS341     -0.2867
     74  CB        43.6200   18.5970   85.4280 C.3   341  LYS341      0.0271
     75  CG        44.5110   19.2610   84.3720 C.3   341  LYS341      0.0035
     76  CD        43.8030   19.1920   83.0460 C.3   341  LYS341      0.0206
     77  CE        44.6670   19.7180   81.9200 C.3   341  LYS341      0.1093
     78  NZ        43.9330   19.5880   80.6370 N.3   341  LYS341     -0.1314
     79  N         48.6470   22.5840   84.4290 N.3   345  TYR345     -0.1241
     80  CA        48.6680   21.3980   83.5610 C.3   345  TYR345      0.1605
     81  C         49.5670   20.2870   84.1050 C.2   345  TYR345      0.2264
     82  O         50.4300   19.7210   83.4070 O.2   345  TYR345     -0.2867
     83  CB        49.0470   21.7920   82.1250 C.3   345  TYR345      0.0534
     84  CG        48.0310   22.6970   81.5030 C.ar  345  TYR345     -0.0201
     85  CD1       48.0750   24.0750   81.7240 C.ar  345  TYR345     -0.0009
     86  CD2       47.0100   22.1810   80.7060 C.ar  345  TYR345     -0.0009
     87  CE1       47.1310   24.9210   81.1620 C.ar  345  TYR345      0.0417
     88  CE2       46.0550   23.0220   80.1390 C.ar  345  TYR345      0.0417
     89  CZ        46.1270   24.3890   80.3750 C.ar  345  TYR345      0.1957
     90  OH        45.1930   25.2390   79.8230 O.3   345  TYR345     -0.2866
     91  N         53.8640   16.0340   85.8200 N.3   374  ASN374     -0.1225
     92  CA        53.3970   16.1890   84.4520 C.3   374  ASN374      0.1785
     93  C         53.2930   14.8510   83.7320 C.2   374  ASN374      0.2597
     94  O         53.6870   13.8000   84.2710 O.2   374  ASN374     -0.2718
     95  CB        54.2240   17.2330   83.6710 C.3   374  ASN374      0.1169
     96  CG        55.7020   16.8580   83.5060 C.2   374  ASN374      0.2627
     97  OD1       56.1820   15.8460   84.0170 O.2   374  ASN374     -0.2716
     98  ND2       56.4340   17.7100   82.7930 N.am  374  ASN374     -0.0877
     99  N         52.7320   14.8770   82.5320 N.am  375  LEU375     -0.1980
    100  CA        52.5520   13.6540   81.7780 C.3   375  LEU375      0.1596
    101  C         53.9130   13.0510   81.4410 C.2   375  LEU375      0.2287
    102  O         54.0530   11.8290   81.4270 O.2   375  LEU375     -0.2864
    103  CB        51.7530   13.9110   80.5030 C.3   375  LEU375      0.0297
    104  CG        50.2740   14.2470   80.7020 C.3   375  LEU375      0.0022
    105  CD1       49.7430   14.8470   79.3960 C.3   375  LEU375      0.0001
    106  CD2       49.4560   13.0430   81.1290 C.3   375  LEU375      0.0001
@<TRIPOS>BOND
     1    51    48    1
     2    48    47    1
     3    48    49    1
     4    47    41   am
     5    50    49    2
     6    49    52   am
     7     5     6    1
     8     5     2    1
     9    52    53    1
    10    52    58    1
    11     6     7    1
    12     7     1    1
    13    53    56    1
    14    53    54    1
    15    56    57    1
    16    41    40    1
    17    41    42    2
    18    58    57    1
    19    40    43    1
    20    40    39    1
    21     2     1    1
    22     2     3    1
    23    43    44    1
    24    36    35    2
    25    46    44   ar
    26    54    55    2
    27    44    45   ar
    28    39    35   am
    29    35    34    1
    30     3     4    2
    31     3     8   am
    32     8     9    1
    33    38    37    1
    34    34    37    1
    35    34    33    1
    36    69    67    1
    37    32    30   am
    38     9    10    1
    39     9    12    1
    40    33    27   am
    41    67    68    1
    42    67    66    2
    43    10    11    2
    44    59    60    1
    45    66    65    1
    46    30    29    1
    47    30    31    2
    48    28    27    2
    49    27    26    1
    50    64    65    1
    51    64    63    1
    52    29    26    1
    53    60    63    1
    54    60    61    1
    55    26    25    1
    56    61    62    2
    57    25    15   am
    58   105   104    1
    59    90    89    1
    60    88    89   ar
    61    88    86   ar
    62    89    87   ar
    63    15    16    2
    64    15    14    1
    65   103   104    1
    66   103   100    1
    67    20    22   ar
    68    20    18   ar
    69    78    77    1
    70    22    23   ar
    71   104   106    1
    72    86    84   ar
    73    87    85   ar
    74   102   101    2
    75   101   100    1
    76    17    14    1
    77    17    18    1
    78    84    85   ar
    79    84    83    1
    80    14    13    1
    81    18    19   ar
    82   100    99    1
    83    77    76    1
    84    23    24    1
    85    23    21   ar
    86    83    80    1
    87    99    93   am
    88    98    96   am
    89    19    21   ar
    90    76    75    1
    91    82    81    2
    92    96    95    1
    93    96    97    2
    94    80    81    1
    95    80    79    1
    96    95    92    1
    97    93    94    2
    98    93    92    1
    99    75    74    1
   100    92    91    1
   101    74    71    1
   102    71    72    1
   103    71    70    1
   104    72    73    2
