@<TRIPOS>MOLECULE
tmp/2xzkA01.pdb
 106 99 0 0 0
SMALL
GASTEIGER

@<TRIPOS>ATOM
      1  N         54.5530   28.7020   42.5770 N.3    38  ARG38      -0.1245
      2  CA        53.9250   29.7320   43.3980 C.3    38  ARG38       0.1563
      3  C         52.5710   29.2320   43.8710 C.2    38  ARG38       0.2260
      4  O         52.0750   28.2120   43.3910 O.2    38  ARG38      -0.2867
      5  CB        53.7620   31.0530   42.6290 C.3    38  ARG38       0.0307
      6  CG        55.0520   31.8550   42.4360 C.3    38  ARG38       0.0489
      7  CD        54.7730   33.3400   42.2290 C.3    38  ARG38       0.2205
      8  NE        54.1670   33.8770   43.4410 N.pl3  38  ARG38      -0.0865
      9  CZ        53.3100   34.8850   43.4980 C.cat  38  ARG38       0.5346
     10  NH1       52.9550   35.5460   42.3980 N.pl3  38  ARG38       0.1354
     11  NH2       52.8080   35.2320   44.6850 N.pl3  38  ARG38       0.1354
     12  N         47.9380   48.0700   50.5570 N.3   248  LYS248     -0.1245
     13  CA        48.8540   47.7620   51.6610 C.3   248  LYS248      0.1561
     14  C         48.3740   48.3840   52.9680 C.2   248  LYS248      0.2260
     15  O         47.8770   49.5140   52.9700 O.2   248  LYS248     -0.2867
     16  CB        50.2660   48.2640   51.3540 C.3   248  LYS248      0.0271
     17  CG        50.8940   47.6230   50.1400 C.3   248  LYS248      0.0035
     18  CD        52.3660   47.9840   50.0300 C.3   248  LYS248      0.0206
     19  CE        53.0720   47.1340   48.9860 C.3   248  LYS248      0.1093
     20  NZ        54.5490   47.3460   49.0090 N.3   248  LYS248     -0.1314
     21  N         54.6160   46.8910   54.1990 N.3   299  THR299     -0.1203
     22  CA        55.3080   47.1510   52.9250 C.3   299  THR299      0.1994
     23  C         56.0210   45.9440   52.2940 C.2   299  THR299      0.2619
     24  O         56.1160   45.8510   51.0700 O.2   299  THR299     -0.2717
     25  CB        56.3560   48.2820   53.0730 C.3   299  THR299      0.1784
     26  OG1       57.2910   47.9360   54.1060 O.3   299  THR299     -0.2211
     27  CG2       55.6830   49.6120   53.4020 C.3   299  THR299      0.0376
     28  N         56.5180   45.0310   53.1260 N.am  300  SER300     -0.1937
     29  CA        57.3780   43.9390   52.6690 C.3   300  SER300      0.2055
     30  C         56.7450   42.5610   52.7820 C.2   300  SER300      0.2643
     31  O         56.0590   42.2730   53.7540 O.2   300  SER300     -0.2714
     32  CB        58.6810   43.9400   53.4640 C.3   300  SER300      0.2130
     33  OG        59.5200   42.8820   53.0510 O.3   300  SER300     -0.2179
     34  N         57.0030   41.7150   51.7880 N.am  301  ARG301     -0.1963
     35  CA        56.5920   40.3080   51.8410 C.3   301  ARG301      0.1729
     36  C         57.6020   39.4100   52.5620 C.2   301  ARG301      0.2616
     37  O         57.3360   38.2260   52.7440 O.2   301  ARG301     -0.2715
     38  CB        56.3270   39.7610   50.4280 C.3   301  ARG301      0.0348
     39  CG        55.1120   40.4200   49.7930 C.3   301  ARG301      0.0492
     40  CD        54.7530   39.8050   48.4750 C.3   301  ARG301      0.2205
     41  NE        53.4680   40.3320   48.0260 N.pl3 301  ARG301     -0.0865
     42  CZ        52.7420   39.8060   47.0460 C.cat 301  ARG301      0.5346
     43  NH1       53.1780   38.7300   46.3840 N.pl3 301  ARG301      0.1354
     44  NH2       51.5820   40.3630   46.7360 N.pl3 301  ARG301      0.1354
     45  N         58.7350   39.9830   52.9870 N.am  302  ARG302     -0.1977
     46  CA        59.8390   39.2100   53.5730 C.3   302  ARG302      0.1597
     47  C         59.8490   39.2840   55.1060 C.2   302  ARG302      0.2287
     48  O         60.9240   39.2940   55.7270 O.2   302  ARG302     -0.2864
     49  CB        61.1840   39.6970   53.0220 C.3   302  ARG302      0.0334
     50  CG        61.3700   39.4280   51.5470 C.3   302  ARG302      0.0492
     51  CD        62.8020   39.7230   51.1220 C.3   302  ARG302      0.2205
     52  NE        62.9410   39.6850   49.6690 N.pl3 302  ARG302     -0.0865
     53  CZ        64.0660   39.9670   49.0130 C.cat 302  ARG302      0.5346
     54  NH1       65.1740   40.2940   49.6750 N.pl3 302  ARG302      0.1354
     55  NH2       64.0890   39.9010   47.6910 N.pl3 302  ARG302      0.1354
     56  N         64.8830   34.0890   48.8680 N.3   333  HIS333     -0.1241
     57  CA        64.4240   34.9110   49.9730 C.3   333  HIS333      0.1621
     58  C         62.9930   34.5420   50.2860 C.2   333  HIS333      0.2264
     59  O         62.0940   34.7800   49.4780 O.2   333  HIS333     -0.2867
     60  CB        64.5010   36.3940   49.6190 C.3   333  HIS333      0.0745
     61  CG        65.8740   36.8480   49.2490 C.ar  333  HIS333      0.0817
     62  ND1       66.8200   37.1880   50.1910 N.ar  333  HIS333     -0.2268
     63  CD2       66.4680   37.0010   48.0410 C.ar  333  HIS333      0.1154
     64  CE1       67.9360   37.5430   49.5800 C.ar  333  HIS333      0.1986
     65  NE2       67.7500   37.4340   48.2760 N.ar  333  HIS333     -0.2212
     66  N         59.3020   34.5440   51.5890 N.3   335  GLY335     -0.1225
     67  CA        58.2630   35.5210   51.8270 C.3   335  GLY335      0.1811
     68  C         57.2700   35.5630   50.6920 C.2   335  GLY335      0.2280
     69  O         57.6420   35.6450   49.5280 O.2   335  GLY335     -0.2866
     70  N         61.6510   33.5400   46.9140 N.3   355  ASP355     -0.1239
     71  CA        61.9610   34.2500   45.6730 C.3   355  ASP355      0.1674
     72  C         63.4640   34.4930   45.6030 C.2   355  ASP355      0.2266
     73  O         64.0380   35.1730   46.4660 O.2   355  ASP355     -0.2867
     74  CB        61.1850   35.5800   45.6520 C.3   355  ASP355      0.1410
     75  CG        61.3310   36.3610   44.3360 C.2   355  ASP355      0.3668
     76  OD1       62.1320   35.9800   43.4550 O.co2 355  ASP355     -0.2456
     77  OD2       60.6100   37.3700   44.1860 O.co2 355  ASP355     -0.2456
     78  N         64.9230   36.2720   43.3850 N.3   357  PHE357     -0.1241
     79  CA        65.0200   37.7190   43.1060 C.3   357  PHE357      0.1605
     80  C         66.1540   38.0710   42.1330 C.2   357  PHE357      0.2264
     81  O         66.6370   39.2110   42.1060 O.2   357  PHE357     -0.2867
     82  CB        65.1500   38.5120   44.4170 C.3   357  PHE357      0.0534
     83  CG        64.5520   39.8910   44.3640 C.ar  357  PHE357     -0.0203
     84  CD1       63.1760   40.0630   44.2350 C.ar  357  PHE357     -0.0042
     85  CD2       65.3630   41.0250   44.4670 C.ar  357  PHE357     -0.0042
     86  CE1       62.6070   41.3390   44.1990 C.ar  357  PHE357     -0.0003
     87  CE2       64.8050   42.3050   44.4270 C.ar  357  PHE357     -0.0003
     88  CZ        63.4230   42.4630   44.2960 C.ar  357  PHE357     -0.0000
     89  N         62.0470   42.3610   40.6230 N.3   361  THR361     -0.1218
     90  CA        60.5970   42.1860   40.5130 C.3   361  THR361      0.1862
     91  C         60.1760   41.6820   39.1330 C.2   361  THR361      0.2287
     92  O         58.9830   41.5420   38.8630 O.2   361  THR361     -0.2866
     93  CB        59.8480   43.4980   40.8010 C.3   361  THR361      0.1770
     94  OG1       60.2260   44.4750   39.8220 O.3   361  THR361     -0.2211
     95  CG2       60.1810   44.0170   42.2010 C.3   361  THR361      0.0375
     96  N         61.0010   31.3480   41.4740 N.3   367  ARG367     -0.1245
     97  CA        60.2420   31.2010   42.7020 C.3   367  ARG367      0.1563
     98  C         60.1420   29.7420   43.1160 C.2   367  ARG367      0.2260
     99  O         59.8170   28.8700   42.3150 O.2   367  ARG367     -0.2867
    100  CB        58.8340   31.7780   42.5390 C.3   367  ARG367      0.0307
    101  CG        58.7770   33.1290   41.8480 C.3   367  ARG367      0.0489
    102  CD        59.4160   34.2150   42.7120 C.3   367  ARG367      0.2205
    103  NE        59.1490   35.5360   42.1700 N.pl3 367  ARG367     -0.0865
    104  CZ        58.0270   36.2160   42.3820 C.cat 367  ARG367      0.5346
    105  NH1       57.0620   35.6950   43.1400 N.pl3 367  ARG367      0.1354
    106  NH2       57.8710   37.4170   41.8430 N.pl3 367  ARG367      0.1354
@<TRIPOS>BOND
     1    92    91    2
     2    91    90    1
     3    94    93    1
     4    90    89    1
     5    90    93    1
     6    93    95    1
     7    96    97    1
     8   106   104    1
     9   101   100    1
    10   101   102    1
    11    81    80    2
    12    80    79    1
    13   103   104    2
    14   103   102    1
    15     7     6    1
    16     7     8    1
    17    99    98    2
    18   104   105    1
    19    10     9    1
    20     6     5    1
    21   100    97    1
    22     1     2    1
    23     5     2    1
    24    97    98    1
    25    79    78    1
    26    79    82    1
    27     4     3    2
    28     2     3    1
    29     8     9    2
    30    76    75   ar
    31     9    11    1
    32    77    75   ar
    33    86    84   ar
    34    86    88   ar
    35    84    83   ar
    36    88    87   ar
    37    75    74    1
    38    83    82    1
    39    83    85   ar
    40    87    85   ar
    41    72    71    1
    42    72    73    2
    43    74    71    1
    44    71    70    1
    45    43    42    1
    46    44    42    1
    47    42    41    2
    48    55    53    1
    49    41    40    1
    50    63    65   ar
    51    63    61   ar
    52    65    64   ar
    53    40    39    1
    54    56    57    1
    55    19    20    1
    56    19    18    1
    57    53    52    2
    58    53    54    1
    59    61    60    1
    60    61    62   ar
    61    59    58    2
    62    69    68    2
    63    64    62   ar
    64    60    57    1
    65    52    51    1
    66    39    38    1
    67    57    58    1
    68    18    17    1
    69    17    16    1
    70    38    35    1
    71    12    13    1
    72    68    67    1
    73    24    23    2
    74    51    50    1
    75    16    13    1
    76    50    49    1
    77    66    67    1
    78    13    14    1
    79    34    35    1
    80    34    30   am
    81    35    36    1
    82    23    22    1
    83    23    28   am
    84    36    37    2
    85    36    45   am
    86    29    30    1
    87    29    28    1
    88    29    32    1
    89    30    31    2
    90    22    25    1
    91    22    21    1
    92    14    15    2
    93    45    46    1
    94    49    46    1
    95    33    32    1
    96    25    27    1
    97    25    26    1
    98    46    47    1
    99    47    48    2
