@<TRIPOS>MOLECULE
tmp/2xzlA05.pdb
 123 120 0 0 0
SMALL
GASTEIGER

@<TRIPOS>ATOM
      1  N         19.2840   19.0370   11.5700 N.3   547  ASN547     -0.1240
      2  CA        19.5020   19.9070   10.4230 C.3   547  ASN547      0.1653
      3  C         18.4790   21.0400   10.4120 C.2   547  ASN547      0.2266
      4  O         17.2860   20.8010   10.5990 O.2   547  ASN547     -0.2867
      5  CB        19.3800   19.0750    9.1420 C.3   547  ASN547      0.1155
      6  CG        19.6890   19.8660    7.8870 C.2   547  ASN547      0.2627
      7  OD1       18.9780   20.8080    7.5400 O.2   547  ASN547     -0.2716
      8  ND2       20.7420   19.4660    7.1820 N.am  547  ASN547     -0.0877
      9  N         16.8560   22.5090    8.3060 N.3   549  TYR549     -0.1241
     10  CA        15.6820   22.3050    7.4640 C.3   549  TYR549      0.1605
     11  C         14.5930   21.5290    8.1970 C.2   549  TYR549      0.2264
     12  O         13.4040   21.7160    7.9380 O.2   549  TYR549     -0.2867
     13  CB        16.0580   21.5820    6.1680 C.3   549  TYR549      0.0534
     14  CG        16.6160   22.4880    5.0940 C.ar  549  TYR549     -0.0201
     15  CD1       15.7970   23.3920    4.4290 C.ar  549  TYR549     -0.0009
     16  CD2       17.9550   22.4290    4.7320 C.ar  549  TYR549     -0.0009
     17  CE1       16.2990   24.2210    3.4430 C.ar  549  TYR549      0.0417
     18  CE2       18.4660   23.2550    3.7460 C.ar  549  TYR549      0.0417
     19  CZ        17.6330   24.1480    3.1050 C.ar  549  TYR549      0.1957
     20  OH        18.1340   24.9710    2.1220 O.3   549  TYR549     -0.2866
     21  N         23.7450   23.4930    8.7690 N.3   569  ILE569     -0.1245
     22  CA        23.5040   22.5430    7.6930 C.3   569  ILE569      0.1561
     23  C         24.7450   21.6920    7.4310 C.2   569  ILE569      0.2260
     24  O         24.6460   20.4940    7.1650 O.2   569  ILE569     -0.2867
     25  CB        23.0850   23.2740    6.4030 C.3   569  ILE569      0.0252
     26  CG1       21.5800   23.5560    6.4240 C.3   569  ILE569      0.0019
     27  CG2       23.4540   22.4560    5.1770 C.3   569  ILE569      0.0019
     28  CD1       21.1960   24.9100    5.8690 C.3   569  ILE569      0.0001
     29  N         25.1670   19.0320    9.9460 N.3   572  ARG572     -0.1231
     30  CA        24.1280   18.0150    9.8580 C.3   572  ARG572      0.1694
     31  C         23.9550   17.5020    8.4350 C.2   572  ARG572      0.2593
     32  O         22.8350   17.2600    7.9890 O.2   572  ARG572     -0.2718
     33  CB        22.7990   18.5630   10.3830 C.3   572  ARG572      0.0321
     34  CG        22.7520   18.7260   11.8930 C.3   572  ARG572      0.0489
     35  CD        22.8320   17.3750   12.5840 C.3   572  ARG572      0.2205
     36  NE        22.9030   17.4980   14.0360 N.pl3 572  ARG572     -0.0865
     37  CZ        24.0370   17.4850   14.7280 C.cat 572  ARG572      0.5346
     38  NH1       25.1950   17.3560   14.0970 N.pl3 572  ARG572      0.1354
     39  NH2       24.0150   17.6000   16.0490 N.pl3 572  ARG572      0.1354
     40  N         25.0640   17.3330    7.7250 N.am  573  THR573     -0.1939
     41  CA        25.0160   16.8270    6.3600 C.3   573  THR573      0.2028
     42  C         26.0290   15.7040    6.1670 C.2   573  THR573      0.2642
     43  O         27.0660   15.6700    6.8300 O.2   573  THR573     -0.2714
     44  CB        25.2820   17.9430    5.3300 C.3   573  THR573      0.1808
     45  OG1       24.8870   17.5000    4.0270 O.3   573  THR573     -0.2208
     46  CG2       26.7560   18.3140    5.3110 C.3   573  THR573      0.0379
     47  N         25.7210   14.7800    5.2630 N.am  574  VAL574     -0.1977
     48  CA        26.6130   13.6600    4.9850 C.3   574  VAL574      0.1596
     49  C         27.2490   13.8090    3.6070 C.2   574  VAL574      0.2287
     50  O         26.6030   13.5590    2.5900 O.2   574  VAL574     -0.2864
     51  CB        25.8750   12.3110    5.0680 C.3   574  VAL574      0.0276
     52  CG1       26.8310   11.1680    4.7770 C.3   574  VAL574      0.0022
     53  CG2       25.2470   12.1400    6.4370 C.3   574  VAL574      0.0022
     54  N         26.7490   10.9790    0.7760 N.3   577  SER577     -0.1217
     55  CA        25.4680   10.2790    0.6940 C.3   577  SER577      0.1889
     56  C         24.9800   10.1140   -0.7450 C.2   577  SER577      0.2288
     57  O         25.2190   10.9700   -1.5960 O.2   577  SER577     -0.2866
     58  CB        24.4020   10.9880    1.5340 C.3   577  SER577      0.2089
     59  OG        23.2450   10.1800    1.6750 O.3   577  SER577     -0.2183
     60  N         17.2420   11.4940   -1.8380 N.3   581  TRP581     -0.1241
     61  CA        16.4540   12.6460   -1.4320 C.3   581  TRP581      0.1605
     62  C         15.9820   13.3390   -2.7080 C.2   581  TRP581      0.2264
     63  O         16.7110   13.3740   -3.6990 O.2   581  TRP581     -0.2867
     64  CB        17.2840   13.6060   -0.5720 C.3   581  TRP581      0.0550
     65  CG        17.7690   13.0150    0.7240 C.ar  581  TRP581      0.0003
     66  CD1       19.0610   12.7440    1.0720 C.ar  581  TRP581      0.0946
     67  CD2       16.9630   12.6290    1.8440 C.ar  581  TRP581      0.0152
     68  NE1       19.1080   12.2100    2.3390 N.ar  581  TRP581     -0.2442
     69  CE2       17.8340   12.1280    2.8340 C.ar  581  TRP581      0.0810
     70  CE3       15.5900   12.6530    2.1030 C.ar  581  TRP581      0.0012
     71  CZ2       17.3740   11.6570    4.0630 C.ar  581  TRP581      0.0191
     72  CZ3       15.1360   12.1860    3.3210 C.ar  581  TRP581      0.0001
     73  CH2       16.0250   11.6950    4.2870 C.ar  581  TRP581      0.0015
     74  N         15.4320   16.5920   -3.1990 N.3   583  ILE583     -0.1231
     75  CA        16.1440   17.8490   -3.4080 C.3   583  ILE583      0.1692
     76  C         17.5050   17.8780   -2.7140 C.2   583  ILE583      0.2592
     77  O         17.6000   17.6480   -1.5080 O.2   583  ILE583     -0.2718
     78  CB        15.3120   19.0420   -2.9010 C.3   583  ILE583      0.0266
     79  CG1       13.8780   18.9560   -3.4290 C.3   583  ILE583      0.0019
     80  CG2       15.9580   20.3540   -3.3060 C.3   583  ILE583      0.0020
     81  CD1       13.7870   18.9630   -4.9360 C.3   583  ILE583      0.0001
     82  N         18.5520   18.1690   -3.4830 N.am  584  ARG584     -0.1966
     83  CA        19.9010   18.3010   -2.9390 C.3   584  ARG584      0.1729
     84  C         19.9480   19.3520   -1.8350 C.2   584  ARG584      0.2617
     85  O         19.4310   20.4580   -1.9970 O.2   584  ARG584     -0.2715
     86  CB        20.8960   18.6820   -4.0410 C.3   584  ARG584      0.0348
     87  CG        21.4210   17.5260   -4.8840 C.3   584  ARG584      0.0492
     88  CD        22.3150   18.0530   -6.0050 C.3   584  ARG584      0.2205
     89  NE        22.9530   16.9970   -6.7900 N.pl3 584  ARG584     -0.0865
     90  CZ        24.2600   16.7440   -6.7900 C.cat 584  ARG584      0.5346
     91  NH1       25.0810   17.4710   -6.0410 N.pl3 584  ARG584      0.1354
     92  NH2       24.7480   15.7680   -7.5430 N.pl3 584  ARG584      0.1354
     93  N         20.5690   19.0040   -0.7130 N.am  585  GLY585     -0.1940
     94  CA        20.7450   19.9400    0.3830 C.3   585  GLY585      0.2014
     95  C         19.6010   19.9510    1.3770 C.2   585  GLY585      0.2639
     96  O         19.6790   20.6000    2.4200 O.2   585  GLY585     -0.2714
     97  N         18.5300   19.2340    1.0510 N.am  586  ILE586     -0.1963
     98  CA        17.3800   19.1240    1.9400 C.3   586  ILE586      0.1712
     99  C         17.0970   17.6560    2.2460 C.2   586  ILE586      0.2458
    100  O         16.5720   16.9320    1.4010 O.2   586  ILE586     -0.2730
    101  CB        16.1270   19.7690    1.3230 C.3   586  ILE586      0.0289
    102  CG1       16.4140   21.2160    0.9130 C.3   586  ILE586      0.0022
    103  CG2       14.9620   19.7090    2.2970 C.3   586  ILE586      0.0023
    104  CD1       15.2140   21.9290    0.3270 C.3   586  ILE586      0.0001
    105  N         17.4500   17.2120    3.4630 N.am  587  PRO587     -0.2727
    106  CA        17.3590   15.8020    3.8540 C.3   587  PRO587      0.1402
    107  C         16.0010   15.4330    4.4480 C.2   587  PRO587      0.2269
    108  O         15.9420   14.9120    5.5620 O.2   587  PRO587     -0.2865
    109  CB        18.4320   15.6950    4.9320 C.3   587  PRO587      0.0296
    110  CG        18.3500   17.0170    5.6220 C.3   587  PRO587      0.0237
    111  CD        18.0540   18.0300    4.5300 C.3   587  PRO587      0.0939
    112  N         19.7840   13.9260   11.0660 N.3   710  TYR710     -0.1241
    113  CA        20.3110   14.0710    9.7120 C.3   710  TYR710      0.1605
    114  C         19.2650   13.9590    8.6030 C.2   710  TYR710      0.2264
    115  O         19.3870   14.6120    7.5680 O.2   710  TYR710     -0.2867
    116  CB        21.4400   13.0650    9.4650 C.3   710  TYR710      0.0534
    117  CG        22.7170   13.4020   10.1990 C.ar  710  TYR710     -0.0201
    118  CD1       22.9300   12.9630   11.4980 C.ar  710  TYR710     -0.0009
    119  CD2       23.7060   14.1660    9.5950 C.ar  710  TYR710     -0.0009
    120  CE1       24.0940   13.2730   12.1750 C.ar  710  TYR710      0.0417
    121  CE2       24.8730   14.4790   10.2620 C.ar  710  TYR710      0.0417
    122  CZ        25.0610   14.0310   11.5510 C.ar  710  TYR710      0.1957
    123  OH        26.2220   14.3420   12.2190 O.3   710  TYR710     -0.2866
@<TRIPOS>BOND
     1    92    90    1
     2    90    89    2
     3    90    91    1
     4    89    88    1
     5    88    87    1
     6    81    79    1
     7    87    86    1
     8    86    83    1
     9    63    62    2
    10    82    83    1
    11    82    76   am
    12    79    78    1
    13    75    74    1
    14    75    78    1
    15    75    76    1
    16    80    78    1
    17    83    84    1
    18    76    77    2
    19    62    61    1
    20    85    84    2
    21    60    61    1
    22    84    93   am
    23    57    56    2
    24    61    64    1
    25    56    55    1
    26    93    94    1
    27    64    65    1
    28   104   102    1
    29    94    95    1
    30    55    54    1
    31    55    58    1
    32    65    66   ar
    33    65    67   ar
    34   102   101    1
    35    97    95   am
    36    97    98    1
    37    66    68   ar
    38   101    98    1
    39   101   103    1
    40    95    96    2
    41   100    99    2
    42    58    59    1
    43    67    70   ar
    44    67    69   ar
    45    98    99    1
    46    70    72   ar
    47    20    19    1
    48    99   105   am
    49    68    69   ar
    50    50    49    2
    51    69    71   ar
    52    19    17   ar
    53    19    18   ar
    54    72    73   ar
    55    17    15   ar
    56   105   106    1
    57   105   111    1
    58    49    48    1
    59    18    16   ar
    60   106   107    1
    61   106   109    1
    62    45    44    1
    63    71    73   ar
    64    15    14   ar
    65   107   108    2
    66   111   110    1
    67    16    14   ar
    68    52    51    1
    69   109   110    1
    70    48    51    1
    71    48    47    1
    72    51    53    1
    73    14    13    1
    74    27    25    1
    75    47    42   am
    76    46    44    1
    77    44    41    1
    78    28    26    1
    79    42    41    1
    80    42    43    2
    81    13    10    1
    82    41    40    1
    83    25    26    1
    84    25    22    1
    85    24    23    2
    86     8     6   am
    87    23    22    1
    88    10    11    1
    89    10     9    1
    90     7     6    2
    91   115   114    2
    92    22    21    1
    93    40    31   am
    94     6     5    1
    95    12    11    2
    96    32    31    2
    97    31    30    1
    98   114   113    1
    99     5     2    1
   100   116   113    1
   101   116   117    1
   102   119   117   ar
   103   119   121   ar
   104   113   112    1
   105    30    29    1
   106    30    33    1
   107   117   118   ar
   108   121   122   ar
   109    33    34    1
   110     3     2    1
   111     3     4    2
   112     2     1    1
   113   118   120   ar
   114   122   120   ar
   115   122   123    1
   116    34    35    1
   117    35    36    1
   118    36    37    2
   119    38    37    1
   120    37    39    1
