@<TRIPOS>MOLECULE
tmp/2xzlA01.pdb
 85 82 0 0 0
SMALL
GASTEIGER

@<TRIPOS>ATOM
      1  N         25.7210   14.7800    5.2630 N.3   574  VAL574     -0.1245
      2  CA        26.6130   13.6600    4.9850 C.3   574  VAL574      0.1561
      3  C         27.2490   13.8090    3.6070 C.2   574  VAL574      0.2260
      4  O         26.6030   13.5590    2.5900 O.2   574  VAL574     -0.2867
      5  CB        25.8750   12.3110    5.0680 C.3   574  VAL574      0.0252
      6  CG1       26.8310   11.1680    4.7770 C.3   574  VAL574      0.0019
      7  CG2       25.2470   12.1400    6.4370 C.3   574  VAL574      0.0019
      8  N         23.3230    2.6200    1.4170 N.3   625  ASP625     -0.1225
      9  CA        24.0540    3.8800    1.4610 C.3   625  ASP625      0.1805
     10  C         25.0650    3.8730    2.6030 C.2   625  ASP625      0.2598
     11  O         25.7190    4.8790    2.8780 O.2   625  ASP625     -0.2718
     12  CB        23.0880    5.0570    1.6030 C.3   625  ASP625      0.1424
     13  CG        23.7510    6.3890    1.3220 C.2   625  ASP625      0.3668
     14  OD1       24.7690    6.4080    0.5970 O.co2 625  ASP625     -0.2456
     15  OD2       23.2550    7.4180    1.8260 O.co2 625  ASP625     -0.2456
     16  N         25.1820    2.7290    3.2680 N.am  626  GLY626     -0.1942
     17  CA        26.1770    2.5500    4.3070 C.3   626  GLY626      0.2014
     18  C         25.7260    3.0100    5.6790 C.2   626  GLY626      0.2639
     19  O         26.5100    3.0020    6.6290 O.2   626  GLY626     -0.2714
     20  N         24.4640    3.4140    5.7900 N.am  627  VAL627     -0.1963
     21  CA        23.9140    3.8180    7.0790 C.3   627  VAL627      0.1727
     22  C         23.6670    2.5900    7.9490 C.2   627  VAL627      0.2616
     23  O         23.0950    1.5990    7.4950 O.2   627  VAL627     -0.2715
     24  CB        22.6080    4.6200    6.9270 C.3   627  VAL627      0.0290
     25  CG1       22.0540    4.9890    8.2920 C.3   627  VAL627      0.0023
     26  CG2       22.8510    5.8680    6.0970 C.3   627  VAL627      0.0023
     27  N         24.1030    2.6660    9.2020 N.am  628  LYS628     -0.1977
     28  CA        24.0550    1.5260   10.1130 C.3   628  LYS628      0.1596
     29  C         22.7250    1.4260   10.8620 C.2   628  LYS628      0.2287
     30  O         22.0540    2.4350   11.0800 O.2   628  LYS628     -0.2864
     31  CB        25.2290    1.5960   11.0930 C.3   628  LYS628      0.0298
     32  CG        26.5790    1.5970   10.3960 C.3   628  LYS628      0.0038
     33  CD        27.7220    1.8510   11.3560 C.3   628  LYS628      0.0206
     34  CE        29.0430    1.9040   10.6060 C.3   628  LYS628      0.1093
     35  NZ        29.2950    0.6470    9.8460 N.3   628  LYS628     -0.1314
     36  N         21.7340    3.7390   13.5200 N.3   631  GLN631     -0.1245
     37  CA        21.5280    5.1120   13.0760 C.3   631  GLN631      0.1566
     38  C         20.1090    5.3350   12.5750 C.2   631  GLN631      0.2260
     39  O         19.7250    6.4590   12.2510 O.2   631  GLN631     -0.2867
     40  CB        22.5210    5.4710   11.9730 C.3   631  GLN631      0.0367
     41  CG        23.9550    5.5920   12.4390 C.3   631  GLN631      0.0905
     42  CD        24.8990    5.9120   11.3020 C.2   631  GLN631      0.2608
     43  OE1       25.1960    5.0560   10.4700 O.2   631  GLN631     -0.2717
     44  NE2       25.3670    7.1550   11.2500 N.am  631  GLN631     -0.0878
     45  N         19.7700    9.4220   14.0000 N.3   677  ASP677     -0.1225
     46  CA        20.3200   10.1080   12.8390 C.3   677  ASP677      0.1805
     47  C         19.2660   10.1830   11.7420 C.2   677  ASP677      0.2597
     48  O         19.0320   11.2420   11.1590 O.2   677  ASP677     -0.2718
     49  CB        21.5680    9.3940   12.3220 C.3   677  ASP677      0.1424
     50  CG        22.7810    9.6400   13.1920 C.2   677  ASP677      0.3668
     51  OD1       22.7940   10.6520   13.9230 O.co2 677  ASP677     -0.2456
     52  OD2       23.7260    8.8250   13.1390 O.co2 677  ASP677     -0.2456
     53  N         18.6260    9.0510   11.4710 N.am  678  TYR678     -0.1976
     54  CA        17.5930    8.9880   10.4470 C.3   678  TYR678      0.1639
     55  C         16.2820    8.4570   11.0070 C.2   678  TYR678      0.2290
     56  O         16.2570    7.4550   11.7240 O.2   678  TYR678     -0.2864
     57  CB        18.0530    8.1250    9.2720 C.3   678  TYR678      0.0560
     58  CG        19.2600    8.6820    8.5540 C.ar  678  TYR678     -0.0198
     59  CD1       19.1170    9.5730    7.4980 C.ar  678  TYR678     -0.0009
     60  CD2       20.5450    8.3230    8.9390 C.ar  678  TYR678     -0.0009
     61  CE1       20.2220   10.0870    6.8420 C.ar  678  TYR678      0.0417
     62  CE2       21.6550    8.8320    8.2900 C.ar  678  TYR678      0.0417
     63  CZ        21.4880    9.7130    7.2420 C.ar  678  TYR678      0.1957
     64  OH        22.5880   10.2230    6.5930 O.3   678  TYR678     -0.2866
     65  N         18.1120   13.7530   13.3320 N.3   709  LYS709     -0.1231
     66  CA        19.2560   14.6530   13.3210 C.3   709  LYS709      0.1693
     67  C         19.6840   14.9650   11.8910 C.2   709  LYS709      0.2592
     68  O         19.9090   16.1240   11.5410 O.2   709  LYS709     -0.2718
     69  CB        20.4260   14.0380   14.0910 C.3   709  LYS709      0.0285
     70  CG        20.1550   13.8200   15.5720 C.3   709  LYS709      0.0035
     71  CD        21.1510   12.8450   16.1850 C.3   709  LYS709      0.0206
     72  CE        22.5790   13.3530   16.0930 C.3   709  LYS709      0.1093
     73  NZ        23.5450   12.3440   16.6190 N.3   709  LYS709     -0.1314
     74  N         19.7840   13.9260   11.0660 N.am  710  TYR710     -0.1976
     75  CA        20.3110   14.0710    9.7120 C.3   710  TYR710      0.1639
     76  C         19.2650   13.9590    8.6030 C.2   710  TYR710      0.2290
     77  O         19.3870   14.6120    7.5680 O.2   710  TYR710     -0.2864
     78  CB        21.4400   13.0650    9.4650 C.3   710  TYR710      0.0560
     79  CG        22.7170   13.4020   10.1990 C.ar  710  TYR710     -0.0198
     80  CD1       22.9300   12.9630   11.4980 C.ar  710  TYR710     -0.0009
     81  CD2       23.7060   14.1660    9.5950 C.ar  710  TYR710     -0.0009
     82  CE1       24.0940   13.2730   12.1750 C.ar  710  TYR710      0.0417
     83  CE2       24.8730   14.4790   10.2620 C.ar  710  TYR710      0.0417
     84  CZ        25.0610   14.0310   11.5510 C.ar  710  TYR710      0.1957
     85  OH        26.2220   14.3420   12.2190 O.3   710  TYR710     -0.2866
@<TRIPOS>BOND
     1    14    13   ar
     2    13    12    1
     3    13    15   ar
     4     8     9    1
     5     9    12    1
     6     9    10    1
     7     4     3    2
     8    10    11    2
     9    10    16   am
    10    16    17    1
    11     3     2    1
    12    17    18    1
    13     6     5    1
    14     2     5    1
    15     2     1    1
    16     5     7    1
    17    18    20   am
    18    18    19    2
    19    20    21    1
    20    26    24    1
    21    64    63    1
    22    61    63   ar
    23    61    59   ar
    24    24    21    1
    25    24    25    1
    26    21    22    1
    27    63    62   ar
    28    23    22    2
    29    59    58   ar
    30    77    76    2
    31    22    27   am
    32    62    60   ar
    33    58    60   ar
    34    58    57    1
    35    76    75    1
    36    27    28    1
    37    57    54    1
    38    78    75    1
    39    78    79    1
    40    81    79   ar
    41    81    83   ar
    42    75    74    1
    43    35    34    1
    44    28    29    1
    45    28    31    1
    46    79    80   ar
    47    83    84   ar
    48    32    31    1
    49    32    33    1
    50    54    55    1
    51    54    53    1
    52    43    42    2
    53    34    33    1
    54    29    30    2
    55    55    56    2
    56    74    67   am
    57    48    47    2
    58    44    42   am
    59    42    41    1
    60    53    47   am
    61    80    82   ar
    62    68    67    2
    63    84    82   ar
    64    84    85    1
    65    47    46    1
    66    67    66    1
    67    40    41    1
    68    40    37    1
    69    39    38    2
    70    49    46    1
    71    49    50    1
    72    38    37    1
    73    46    45    1
    74    37    36    1
    75    52    50   ar
    76    50    51   ar
    77    66    65    1
    78    66    69    1
    79    69    70    1
    80    70    71    1
    81    72    71    1
    82    72    73    1
