@<TRIPOS>MOLECULE
tmp/2xzlA00.pdb
 179 170 0 0 0
SMALL
GASTEIGER

@<TRIPOS>ATOM
      1  N         29.5880   16.9590   26.4240 N.3   313  ALA313     -0.1231
      2  CA        29.0570   18.1790   25.8380 C.3   313  ALA313      0.1694
      3  C         29.5750   19.4200   26.5580 C.2   313  ALA313      0.2592
      4  O         29.6730   19.4450   27.7860 O.2   313  ALA313     -0.2718
      5  CB        27.5330   18.1530   25.8450 C.3   313  ALA313      0.0304
      6  N         29.9240   20.4420   25.7840 N.am  314  GLN314     -0.1966
      7  CA        30.2470   21.7410   26.3550 C.3   314  GLN314      0.1733
      8  C         29.0040   22.6200   26.3410 C.2   314  GLN314      0.2616
      9  O         28.5290   23.0200   25.2800 O.2   314  GLN314     -0.2715
     10  CB        31.3730   22.4270   25.5830 C.3   314  GLN314      0.0408
     11  CG        31.7500   23.7760   26.1680 C.3   314  GLN314      0.0908
     12  CD        32.7920   24.5090   25.3500 C.2   314  GLN314      0.2608
     13  OE1       33.0580   24.1590   24.1990 O.2   314  GLN314     -0.2717
     14  NE2       33.3900   25.5370   25.9420 N.am  314  GLN314     -0.0878
     15  N         28.4800   22.9120   27.5250 N.am  315  LEU315     -0.1963
     16  CA        27.2600   23.6970   27.6490 C.3   315  LEU315      0.1728
     17  C         27.4500   25.1160   27.1320 C.2   315  LEU315      0.2616
     18  O         28.5110   25.7130   27.3090 O.2   315  LEU315     -0.2715
     19  CB        26.8080   23.7460   29.1090 C.3   315  LEU315      0.0311
     20  CG        26.6780   22.3990   29.8200 C.3   315  LEU315      0.0022
     21  CD1       26.1520   22.5880   31.2360 C.3   315  LEU315      0.0001
     22  CD2       25.7810   21.4590   29.0290 C.3   315  LEU315      0.0001
     23  N         26.4200   25.6500   26.4840 N.am  316  ASN316     -0.1972
     24  CA        26.3920   27.0710   26.1650 C.3   316  ASN316      0.1688
     25  C         26.0800   27.8490   27.4380 C.2   316  ASN316      0.2292
     26  O         25.8750   27.2530   28.4940 O.2   316  ASN316     -0.2864
     27  CB        25.3730   27.3750   25.0640 C.3   316  ASN316      0.1181
     28  CG        23.9620   26.9520   25.4330 C.2   316  ASN316      0.2629
     29  OD1       23.5460   27.0640   26.5850 O.2   316  ASN316     -0.2716
     30  ND2       23.2190   26.4600   24.4500 N.am  316  ASN316     -0.0877
     31  N         22.5740   27.1650   29.1410 N.3   319  GLN319     -0.1245
     32  CA        22.5640   25.8690   29.8080 C.3   319  GLN319      0.1566
     33  C         23.3830   25.9200   31.0900 C.2   319  GLN319      0.2260
     34  O         22.9950   25.3510   32.1090 O.2   319  GLN319     -0.2867
     35  CB        23.1140   24.7890   28.8780 C.3   319  GLN319      0.0367
     36  CG        22.2000   24.4690   27.7140 C.3   319  GLN319      0.0905
     37  CD        22.8840   23.6500   26.6400 C.2   319  GLN319      0.2608
     38  OE1       24.1100   23.6560   26.5250 O.2   319  GLN319     -0.2717
     39  NE2       22.0930   22.9380   25.8460 N.am  319  GLN319     -0.0878
     40  N         11.9770   21.0810   21.4280 N.3   338  PRO338     -0.2102
     41  CA        12.7310   19.8320   21.2620 C.3   338  PRO338      0.1504
     42  C         14.2110   20.0530   20.9500 C.2   338  PRO338      0.2576
     43  O         14.5580   20.9340   20.1630 O.2   338  PRO338     -0.2718
     44  CB        12.0390   19.1620   20.0680 C.3   338  PRO338      0.0282
     45  CG        10.6740   19.7610   20.0320 C.3   338  PRO338      0.0208
     46  CD        10.8610   21.1770   20.4710 C.3   338  PRO338      0.0893
     47  N         15.0690   19.2540   21.5750 N.am  339  GLY339     -0.1943
     48  CA        16.4860   19.2430   21.2570 C.3   339  GLY339      0.2014
     49  C         17.2940   20.4330   21.7400 C.2   339  GLY339      0.2640
     50  O         18.3810   20.6940   21.2230 O.2   339  GLY339     -0.2714
     51  N         16.7820   21.1510   22.7340 N.am  340  THR340     -0.1936
     52  CA        17.4960   22.3050   23.2710 C.3   340  THR340      0.2028
     53  C         18.4250   21.9100   24.4150 C.2   340  THR340      0.2643
     54  O         18.9830   22.7660   25.1010 O.2   340  THR340     -0.2714
     55  CB        16.5290   23.4070   23.7400 C.3   340  THR340      0.1808
     56  OG1       15.5480   22.8410   24.6170 O.3   340  THR340     -0.2208
     57  CG2       15.8270   24.0340   22.5460 C.3   340  THR340      0.0379
     58  N         18.5850   20.6080   24.6160 N.am  341  GLY341     -0.1939
     59  CA        19.5250   20.1060   25.5980 C.3   341  GLY341      0.2014
     60  C         18.9740   20.0700   27.0090 C.2   341  GLY341      0.2639
     61  O         19.7260   20.1800   27.9770 O.2   341  GLY341     -0.2714
     62  N         17.6610   19.9100   27.1310 N.am  342  LYS342     -0.1963
     63  CA        17.0310   19.8330   28.4420 C.3   342  LYS342      0.1728
     64  C         17.5390   18.6290   29.2260 C.2   342  LYS342      0.2617
     65  O         17.8070   18.7300   30.4210 O.2   342  LYS342     -0.2715
     66  CB        15.5080   19.7720   28.3180 C.3   342  LYS342      0.0311
     67  CG        14.8760   21.0510   27.8030 C.3   342  LYS342      0.0038
     68  CD        13.3570   20.9470   27.7830 C.3   342  LYS342      0.0206
     69  CE        12.8940   19.8440   26.8480 C.3   342  LYS342      0.1093
     70  NZ        13.2600   20.1340   25.4370 N.3   342  LYS342     -0.1314
     71  N         17.6780   17.4940   28.5500 N.am  343  THR343     -0.1937
     72  CA        18.1210   16.2740   29.2180 C.3   343  THR343      0.2028
     73  C         19.6130   16.2630   29.5250 C.2   343  THR343      0.2642
     74  O         20.0270   15.7680   30.5730 O.2   343  THR343     -0.2714
     75  CB        17.7610   15.0140   28.4190 C.3   343  THR343      0.1808
     76  OG1       16.3630   14.7560   28.5600 O.3   343  THR343     -0.2208
     77  CG2       18.5340   13.8100   28.9440 C.3   343  THR343      0.0379
     78  N         20.4240   16.7990   28.6200 N.am  344  VAL344     -0.1977
     79  CA        21.8570   16.8620   28.8740 C.3   344  VAL344      0.1596
     80  C         22.1290   17.8180   30.0280 C.2   344  VAL344      0.2287
     81  O         22.9960   17.5660   30.8640 O.2   344  VAL344     -0.2864
     82  CB        22.6580   17.2970   27.6270 C.3   344  VAL344      0.0276
     83  CG1       22.3260   16.4010   26.4510 C.3   344  VAL344      0.0022
     84  CG2       22.3730   18.7420   27.2790 C.3   344  VAL344      0.0022
     85  N         17.0080    5.9740   28.6260 N.3   373  HIS373     -0.1241
     86  CA        17.8550    6.9710   27.9830 C.3   373  HIS373      0.1621
     87  C         18.6240    7.7940   29.0080 C.2   373  HIS373      0.2264
     88  O         19.8410    7.9600   28.9050 O.2   373  HIS373     -0.2867
     89  CB        17.0100    7.8960   27.1060 C.3   373  HIS373      0.0745
     90  CG        17.7990    8.9740   26.4320 C.ar  373  HIS373      0.0817
     91  ND1       18.8550    8.7040   25.5880 N.ar  373  HIS373     -0.2268
     92  CD2       17.6850   10.3220   26.4720 C.ar  373  HIS373      0.1154
     93  CE1       19.3580    9.8400   25.1390 C.ar  373  HIS373      0.1986
     94  NE2       18.6660   10.8370   25.6610 N.ar  373  HIS373     -0.2212
     95  N         22.8320    8.0430   30.1130 N.3   377  LYS377     -0.1245
     96  CA        23.6300    9.2630   30.1690 C.3   377  LYS377      0.1561
     97  C         24.3070    9.3930   31.5260 C.2   377  LYS377      0.2260
     98  O         25.4900    9.7230   31.6120 O.2   377  LYS377     -0.2867
     99  CB        22.7660   10.4990   29.8990 C.3   377  LYS377      0.0271
    100  CG        22.0980   10.5250   28.5330 C.3   377  LYS377      0.0035
    101  CD        21.4220   11.8660   28.2740 C.3   377  LYS377      0.0206
    102  CE        22.3550   12.8400   27.5700 C.3   377  LYS377      0.1093
    103  NZ        22.5540   12.4770   26.1360 N.3   377  LYS377     -0.1314
    104  N          4.8890   19.4480   23.4240 N.3   507  GLN507     -0.1245
    105  CA         5.0770   18.0350   23.1420 C.3   507  GLN507      0.1566
    106  C          3.9700   17.2590   23.8550 C.2   507  GLN507      0.2260
    107  O          3.0690   17.8640   24.4350 O.2   507  GLN507     -0.2867
    108  CB         6.4820   17.5740   23.5400 C.3   507  GLN507      0.0367
    109  CG         7.5810   18.3010   22.7680 C.3   507  GLN507      0.0905
    110  CD         8.9760   17.7920   23.0750 C.2   507  GLN507      0.2608
    111  OE1        9.2400   16.5910   23.0100 O.2   507  GLN507     -0.2717
    112  NE2        9.8820   18.7090   23.4010 N.am  507  GLN507     -0.0878
    113  N         20.1510   21.7430   19.1830 N.3   544  TYR544     -0.1227
    114  CA        21.4160   21.1390   18.7640 C.3   544  TYR544      0.1736
    115  C         21.2630   19.7690   18.1050 C.2   544  TYR544      0.2595
    116  O         22.2540   19.1280   17.7580 O.2   544  TYR544     -0.2718
    117  CB        22.3640   21.0130   19.9600 C.3   544  TYR544      0.0548
    118  CG        22.9840   22.3150   20.4100 C.ar  544  TYR544     -0.0200
    119  CD1       24.1870   22.7540   19.8730 C.ar  544  TYR544     -0.0009
    120  CD2       22.3760   23.0990   21.3820 C.ar  544  TYR544     -0.0009
    121  CE1       24.7640   23.9410   20.2840 C.ar  544  TYR544      0.0417
    122  CE2       22.9450   24.2880   21.8010 C.ar  544  TYR544      0.0417
    123  CZ        24.1380   24.7050   21.2490 C.ar  544  TYR544      0.1957
    124  OH        24.7090   25.8870   21.6620 O.3   544  TYR544     -0.2866
    125  N         20.0280   19.3220   17.9300 N.am  545  ARG545     -0.1980
    126  CA        19.7780   17.9810   17.4130 C.3   545  ARG545      0.1597
    127  C         19.8030   17.8620   15.8840 C.2   545  ARG545      0.2287
    128  O         20.5600   17.0670   15.3300 O.2   545  ARG545     -0.2864
    129  CB        18.4440   17.4570   17.9450 C.3   545  ARG545      0.0334
    130  CG        17.9660   16.1910   17.2620 C.3   545  ARG545      0.0492
    131  CD        16.6740   15.7050   17.8860 C.3   545  ARG545      0.2205
    132  NE        16.8480   15.4400   19.3100 N.pl3 545  ARG545     -0.0865
    133  CZ        15.9120   15.6390   20.2290 C.cat 545  ARG545      0.5346
    134  NH1       14.7230   16.1120   19.8790 N.pl3 545  ARG545      0.1354
    135  NH2       16.1680   15.3700   21.5020 N.pl3 545  ARG545      0.1354
    136  N         25.1670   19.0320    9.9460 N.3   572  ARG572     -0.1245
    137  CA        24.1280   18.0150    9.8580 C.3   572  ARG572      0.1563
    138  C         23.9550   17.5020    8.4350 C.2   572  ARG572      0.2260
    139  O         22.8350   17.2600    7.9890 O.2   572  ARG572     -0.2867
    140  CB        22.7990   18.5630   10.3830 C.3   572  ARG572      0.0307
    141  CG        22.7520   18.7260   11.8930 C.3   572  ARG572      0.0489
    142  CD        22.8320   17.3750   12.5840 C.3   572  ARG572      0.2205
    143  NE        22.9030   17.4980   14.0360 N.pl3 572  ARG572     -0.0865
    144  CZ        24.0370   17.4850   14.7280 C.cat 572  ARG572      0.5346
    145  NH1       25.1950   17.3560   14.0970 N.pl3 572  ARG572      0.1354
    146  NH2       24.0150   17.6000   16.0490 N.pl3 572  ARG572      0.1354
    147  N         11.7660   12.2780   23.6490 N.3   673  GLY673     -0.1225
    148  CA        12.9740   12.3600   24.4490 C.3   673  GLY673      0.1811
    149  C         14.1260   11.6110   23.8120 C.2   673  GLY673      0.2280
    150  O         15.2710   11.7380   24.2430 O.2   673  GLY673     -0.2866
    151  N         16.2630   10.2720   20.0940 N.3   675  GLU675     -0.1245
    152  CA        16.6670   10.7920   18.7930 C.3   675  GLU675      0.1567
    153  C         17.4160    9.7420   17.9800 C.2   675  GLU675      0.2260
    154  O         17.9990    8.8080   18.5320 O.2   675  GLU675     -0.2867
    155  CB        17.5560   12.0220   18.9650 C.3   675  GLU675      0.0388
    156  CG        18.9720   11.6960   19.4090 C.3   675  GLU675      0.1160
    157  CD        19.7350   12.9320   19.8360 C.2   675  GLU675      0.3649
    158  OE1       19.1010   14.0000   19.9730 O.co2 675  GLU675     -0.2457
    159  OE2       20.9650   12.8390   20.0340 O.co2 675  GLU675     -0.2457
    160  N         12.5800   14.1460   15.9310 N.3   707  ARG707     -0.1245
    161  CA        13.3970   13.0450   16.4310 C.3   707  ARG707      0.1563
    162  C         14.6760   12.8670   15.6180 C.2   707  ARG707      0.2260
    163  O         15.6420   12.2720   16.0940 O.2   707  ARG707     -0.2867
    164  CB        12.6050   11.7350   16.4150 C.3   707  ARG707      0.0307
    165  CG        11.3480   11.7460   17.2620 C.3   707  ARG707      0.0489
    166  CD        11.6680   12.1040   18.6990 C.3   707  ARG707      0.2205
    167  NE        11.2150   13.4490   19.0420 N.pl3 707  ARG707     -0.0865
    168  CZ        11.6980   14.1660   20.0520 C.cat 707  ARG707      0.5346
    169  NH1       12.6670   13.6750   20.8140 N.pl3 707  ARG707      0.1354
    170  NH2       11.2200   15.3780   20.2950 N.pl3 707  ARG707      0.1354
    171  N         18.1120   13.7530   13.3320 N.3   709  LYS709     -0.1245
    172  CA        19.2560   14.6530   13.3210 C.3   709  LYS709      0.1561
    173  C         19.6840   14.9650   11.8910 C.2   709  LYS709      0.2260
    174  O         19.9090   16.1240   11.5410 O.2   709  LYS709     -0.2867
    175  CB        20.4260   14.0380   14.0910 C.3   709  LYS709      0.0271
    176  CG        20.1550   13.8200   15.5720 C.3   709  LYS709      0.0035
    177  CD        21.1510   12.8450   16.1850 C.3   709  LYS709      0.0206
    178  CE        22.5790   13.3530   16.0930 C.3   709  LYS709      0.1093
    179  NZ        23.5450   12.3440   16.6190 N.3   709  LYS709     -0.1314
@<TRIPOS>BOND
     1   139   138    2
     2   138   137    1
     3   137   136    1
     4   137   140    1
     5   140   141    1
     6   174   173    2
     7   173   172    1
     8   141   142    1
     9   142   143    1
    10   172   171    1
    11   172   175    1
    12   143   144    2
    13   175   176    1
    14   145   144    1
    15   144   146    1
    16   128   127    2
    17   176   177    1
    18   162   163    2
    19   162   161    1
    20   127   126    1
    21   160   161    1
    22   178   177    1
    23   178   179    1
    24   164   161    1
    25   164   165    1
    26   165   166    1
    27   130   131    1
    28   130   129    1
    29   126   125    1
    30   126   129    1
    31   116   115    2
    32   131   132    1
    33   125   115   am
    34   153   154    2
    35   153   152    1
    36   115   114    1
    37   166   167    1
    38   114   113    1
    39   114   117    1
    40   152   155    1
    41   152   151    1
    42   155   156    1
    43   167   168    2
    44   132   133    2
    45   156   157    1
    46   157   158   ar
    47   157   159   ar
    48   119   121   ar
    49   119   118   ar
    50   134   133    1
    51   117   118    1
    52    45    44    1
    53    45    46    1
    54   168   170    1
    55   168   169    1
    56    44    41    1
    57    43    42    2
    58   133   135    1
    59   121   123   ar
    60   118   120   ar
    61    46    40    1
    62    42    41    1
    63    42    47   am
    64    50    49    2
    65   123   124    1
    66   123   122   ar
    67    48    47    1
    68    48    49    1
    69    41    40    1
    70   120   122   ar
    71    49    51   am
    72    57    55    1
    73    51    52    1
    74   109   110    1
    75   109   108    1
    76   111   110    2
    77   110   112   am
    78   105   104    1
    79   105   108    1
    80   105   106    1
    81    52    55    1
    82    52    53    1
    83   147   148    1
    84    55    56    1
    85   149   150    2
    86   149   148    1
    87   106   107    2
    88    13    12    2
    89    53    58   am
    90    53    54    2
    91    30    28   am
    92    58    59    1
    93    27    28    1
    94    27    24    1
    95    93    91   ar
    96    93    94   ar
    97     9     8    2
    98    12    14   am
    99    12    11    1
   100    28    29    2
   101    70    69    1
   102    10    11    1
   103    10     7    1
   104    91    90   ar
   105    59    60    1
   106    94    92   ar
   107     6     7    1
   108     6     3   am
   109     2     5    1
   110     2     1    1
   111     2     3    1
   112    39    37   am
   113   103   102    1
   114    24    23    1
   115    24    25    1
   116     8     7    1
   117     8    15   am
   118    90    92   ar
   119    90    89    1
   120    83    82    1
   121    23    17   am
   122    38    37    2
   123     3     4    2
   124    37    36    1
   125    69    68    1
   126    60    62   am
   127    60    61    2
   128    89    86    1
   129    62    63    1
   130    17    18    2
   131    17    16    1
   132    84    82    1
   133    25    26    2
   134    15    16    1
   135   102   101    1
   136    82    79    1
   137    16    19    1
   138    36    35    1
   139    68    67    1
   140    67    66    1
   141    86    85    1
   142    86    87    1
   143   101   100    1
   144    66    63    1
   145    75    76    1
   146    75    77    1
   147    75    72    1
   148    63    64    1
   149   100    99    1
   150    71    72    1
   151    71    64   am
   152    78    79    1
   153    78    73   am
   154    79    80    1
   155    35    32    1
   156    88    87    2
   157    22    20    1
   158    19    20    1
   159    31    32    1
   160    72    73    1
   161    64    65    2
   162    73    74    2
   163    32    33    1
   164    20    21    1
   165    99    96    1
   166    80    81    2
   167    95    96    1
   168    96    97    1
   169    33    34    2
   170    97    98    2
