@<TRIPOS>MOLECULE
tmp/2xzoA00.pdb
 87 85 0 0 0
SMALL
GASTEIGER

@<TRIPOS>ATOM
      1  N        -13.2900  -23.5810   -3.7590 N.3   175  ASN175     -0.1225
      2  CA       -14.0650  -24.8160   -3.7540 C.3   175  ASN175      0.1785
      3  C        -13.1870  -25.9430   -3.1840 C.2   175  ASN175      0.2597
      4  O        -11.9980  -25.7140   -2.9000 O.2   175  ASN175     -0.2718
      5  CB       -14.5910  -25.1280   -5.1700 C.3   175  ASN175      0.1169
      6  CG       -13.4590  -25.4220   -6.1960 C.2   175  ASN175      0.2627
      7  OD1      -12.4010  -25.9570   -5.8540 O.2   175  ASN175     -0.2716
      8  ND2      -13.7080  -25.0880   -7.4600 N.am  175  ASN175     -0.0877
      9  N        -13.7530  -27.1400   -3.0140 N.am  176  HIS176     -0.1961
     10  CA       -13.0400  -28.2280   -2.3440 C.3   176  HIS176      0.1787
     11  C        -11.7120  -28.5790   -3.0240 C.2   176  HIS176      0.2621
     12  O        -10.7330  -28.8530   -2.3350 O.2   176  HIS176     -0.2715
     13  CB       -13.9180  -29.5000   -2.1950 C.3   176  HIS176      0.0785
     14  CG       -15.1770  -29.2840   -1.4050 C.ar  176  HIS176      0.0821
     15  ND1      -15.5430  -28.0580   -0.8970 N.ar  176  HIS176     -0.2267
     16  CD2      -16.1600  -30.1500   -1.0490 C.ar  176  HIS176      0.1154
     17  CE1      -16.6970  -28.1750   -0.2550 C.ar  176  HIS176      0.1986
     18  NE2      -17.0920  -29.4320   -0.3350 N.ar  176  HIS176     -0.2212
     19  N        -11.6720  -28.5790   -4.3590 N.am  177  SER177     -0.1936
     20  CA       -10.4530  -28.9720   -5.0870 C.3   177  SER177      0.2055
     21  C         -9.3130  -27.9650   -4.9540 C.2   177  SER177      0.2642
     22  O         -8.1360  -28.3350   -4.9610 O.2   177  SER177     -0.2714
     23  CB       -10.7500  -29.2030   -6.5630 C.3   177  SER177      0.2130
     24  OG       -11.7120  -30.2300   -6.7190 O.3   177  SER177     -0.2179
     25  N         -9.6860  -26.6950   -4.8550 N.am  178  GLN178     -0.1976
     26  CA        -8.7370  -25.6010   -4.7250 C.3   178  GLN178      0.1601
     27  C         -8.2030  -25.5790   -3.2980 C.2   178  GLN178      0.2287
     28  O         -7.0040  -25.3950   -3.0870 O.2   178  GLN178     -0.2864
     29  CB        -9.4030  -24.2680   -5.0860 C.3   178  GLN178      0.0394
     30  CG       -10.0030  -24.2420   -6.4840 C.3   178  GLN178      0.0908
     31  CD       -10.8370  -23.0150   -6.7410 C.2   178  GLN178      0.2608
     32  OE1      -11.6750  -22.6440   -5.9290 O.2   178  GLN178     -0.2717
     33  NE2      -10.6030  -22.3670   -7.8710 N.am  178  GLN178     -0.0878
     34  N        -10.4470  -22.4420  -14.3710 N.3   199  THR199     -0.1218
     35  CA       -10.7300  -23.2960  -13.2290 C.3   199  THR199      0.1862
     36  C        -10.1510  -22.7150  -11.9300 C.2   199  THR199      0.2287
     37  O        -10.1440  -23.3780  -10.8880 O.2   199  THR199     -0.2866
     38  CB       -10.2330  -24.7450  -13.4570 C.3   199  THR199      0.1770
     39  OG1       -8.8490  -24.7370  -13.8290 O.3   199  THR199     -0.2211
     40  CG2      -11.0330  -25.4170  -14.5570 C.3   199  THR199      0.0375
     41  N         -5.1920  -31.4240   -9.7140 N.3   396  ARG396     -0.1231
     42  CA        -6.0950  -31.0600  -10.8000 C.3   396  ARG396      0.1694
     43  C         -7.2460  -30.1970  -10.3640 C.2   396  ARG396      0.2592
     44  O         -7.8410  -30.4380   -9.3100 O.2   396  ARG396     -0.2718
     45  CB        -6.6640  -32.3060  -11.4720 C.3   396  ARG396      0.0321
     46  CG        -5.6390  -33.1070  -12.1990 C.3   396  ARG396      0.0489
     47  CD        -6.2250  -34.3790  -12.7660 C.3   396  ARG396      0.2205
     48  NE        -5.1390  -35.2450  -13.2190 N.pl3 396  ARG396     -0.0865
     49  CZ        -4.5620  -35.1500  -14.4160 C.cat 396  ARG396      0.5346
     50  NH1       -4.9900  -34.2370  -15.2830 N.pl3 396  ARG396      0.1354
     51  NH2       -3.5640  -35.9650  -14.7490 N.pl3 396  ARG396      0.1354
     52  N         -7.5540  -29.1950  -11.1890 N.am  397  LEU397     -0.1966
     53  CA        -8.7900  -28.4300  -11.0570 C.3   397  LEU397      0.1728
     54  C         -9.5920  -28.6540  -12.3200 C.2   397  LEU397      0.2616
     55  O         -9.0280  -28.7510  -13.4000 O.2   397  LEU397     -0.2715
     56  CB        -8.5020  -26.9460  -10.8820 C.3   397  LEU397      0.0311
     57  CG        -7.5270  -26.5850   -9.7670 C.3   397  LEU397      0.0022
     58  CD1       -7.2120  -25.1080   -9.8280 C.3   397  LEU397      0.0001
     59  CD2       -8.0910  -26.9590   -8.3990 C.3   397  LEU397      0.0001
     60  N        -10.9070  -28.7250  -12.2020 N.am  398  GLN398     -0.1963
     61  CA       -11.7160  -29.1950  -13.3180 C.3   398  GLN398      0.1733
     62  C        -13.0040  -28.3870  -13.4930 C.2   398  GLN398      0.2616
     63  O        -13.6490  -28.4600  -14.5210 O.2   398  GLN398     -0.2715
     64  CB       -12.0400  -30.6910  -13.1220 C.3   398  GLN398      0.0408
     65  CG       -11.4310  -31.5990  -14.1900 C.3   398  GLN398      0.0908
     66  CD       -10.0250  -32.1240  -13.8510 C.2   398  GLN398      0.2608
     67  OE1       -9.0080  -31.5620  -14.2910 O.2   398  GLN398     -0.2717
     68  NE2       -9.9670  -33.2290  -13.0970 N.am  398  GLN398     -0.0878
     69  N        -13.3800  -27.6250  -12.4760 N.am  399  VAL399     -0.1977
     70  CA       -14.6300  -26.8860  -12.4990 C.3   399  VAL399      0.1596
     71  C        -14.3590  -25.4280  -12.8380 C.2   399  VAL399      0.2287
     72  O        -13.5970  -24.7540  -12.1720 O.2   399  VAL399     -0.2864
     73  CB       -15.3890  -27.0050  -11.1560 C.3   399  VAL399      0.0276
     74  CG1      -16.7120  -26.2390  -11.2100 C.3   399  VAL399      0.0022
     75  CG2      -15.6520  -28.4430  -10.8400 C.3   399  VAL399      0.0022
     76  N        -15.1880  -21.3830  -13.6510 N.3   401  TYR401     -0.1241
     77  CA       -16.0380  -20.3370  -13.0580 C.3   401  TYR401      0.1605
     78  C        -16.0460  -19.0490  -13.8480 C.2   401  TYR401      0.2264
     79  O        -16.4780  -18.0160  -13.3390 O.2   401  TYR401     -0.2867
     80  CB       -15.6020  -19.9910  -11.6330 C.3   401  TYR401      0.0534
     81  CG       -15.8340  -21.0980  -10.6440 C.ar  401  TYR401     -0.0201
     82  CD1      -17.0470  -21.2220   -9.9780 C.ar  401  TYR401     -0.0009
     83  CD2      -14.8430  -22.0320  -10.3870 C.ar  401  TYR401     -0.0009
     84  CE1      -17.2540  -22.2490   -9.0660 C.ar  401  TYR401      0.0417
     85  CE2      -15.0420  -23.0550   -9.4890 C.ar  401  TYR401      0.0417
     86  CZ       -16.2390  -23.1600   -8.8260 C.ar  401  TYR401      0.1957
     87  OH       -16.4020  -24.1890   -7.9310 O.3   401  TYR401     -0.2866
@<TRIPOS>BOND
     1    50    49    1
     2    51    49    1
     3    40    38    1
     4    63    62    2
     5    49    48    2
     6    34    35    1
     7    67    66    2
     8    65    66    1
     9    65    64    1
    10    66    68   am
    11    78    79    2
    12    78    77    1
    13    39    38    1
    14    76    77    1
    15    62    61    1
    16    62    69   am
    17    38    35    1
    18    55    54    2
    19    61    64    1
    20    61    60    1
    21    35    36    1
    22    48    47    1
    23    77    80    1
    24    71    70    1
    25    71    72    2
    26    47    46    1
    27    70    69    1
    28    70    73    1
    29    54    60   am
    30    54    53    1
    31    46    45    1
    32    36    37    2
    33    80    81    1
    34    45    42    1
    35    74    73    1
    36    52    53    1
    37    52    43   am
    38    73    75    1
    39    53    56    1
    40    56    57    1
    41    42    43    1
    42    42    41    1
    43    81    83   ar
    44    81    82   ar
    45    83    85   ar
    46    43    44    2
    47    82    84   ar
    48    58    57    1
    49    57    59    1
    50    85    86   ar
    51    84    86   ar
    52    86    87    1
    53    33    31   am
    54     8     6   am
    55    31    30    1
    56    31    32    2
    57    24    23    1
    58    23    20    1
    59    30    29    1
    60     6     7    2
    61     6     5    1
    62     5     2    1
    63    20    21    1
    64    20    19    1
    65    29    26    1
    66    22    21    2
    67    21    25   am
    68    25    26    1
    69    26    27    1
    70    19    11   am
    71     1     2    1
    72     2     3    1
    73    27    28    2
    74     3     9   am
    75     3     4    2
    76    11    10    1
    77    11    12    2
    78     9    10    1
    79    10    13    1
    80    13    14    1
    81    14    16   ar
    82    14    15   ar
    83    16    18   ar
    84    15    17   ar
    85    18    17   ar
