@<TRIPOS>MOLECULE
tmp/2xzpA00.pdb
 80 76 0 0 0
SMALL
GASTEIGER

@<TRIPOS>ATOM
      1  N         11.7140  -11.5980  -44.2460 N.3   199  GLY199     -0.1210
      2  CA        12.4320  -12.8240  -43.9610 C.3   199  GLY199      0.1940
      3  C         13.6070  -12.6010  -43.0330 C.2   199  GLY199      0.2454
      4  O         14.6920  -12.2300  -43.4840 O.2   199  GLY199     -0.2732
      5  N         13.3960  -12.8200  -41.7250 N.am  200  PRO200     -0.2718
      6  CA        14.4710  -12.7470  -40.7320 C.3   200  PRO200      0.1520
      7  C         15.5090  -13.8290  -41.0170 C.2   200  PRO200      0.2440
      8  O         15.1840  -14.8090  -41.6830 O.2   200  PRO200     -0.2731
      9  CB        13.7480  -13.0410  -39.4110 C.3   200  PRO200      0.0310
     10  CG        12.3040  -12.7680  -39.6820 C.3   200  PRO200      0.0237
     11  CD        12.1000  -13.1520  -41.1100 C.3   200  PRO200      0.0939
     12  N         16.7390  -13.6650  -40.5110 N.am  201  PRO201     -0.2716
     13  CA        17.8270  -14.5900  -40.8550 C.3   201  PRO201      0.1536
     14  C         17.5010  -16.0420  -40.5270 C.2   201  PRO201      0.2599
     15  O         16.9730  -16.3310  -39.4530 O.2   201  PRO201     -0.2715
     16  CB        18.9920  -14.1030  -39.9830 C.3   201  PRO201      0.0310
     17  CG        18.3550  -13.3240  -38.8820 C.3   201  PRO201      0.0237
     18  CD        17.1470  -12.6830  -39.4930 C.3   201  PRO201      0.0939
     19  N         17.8140  -16.9450  -41.4490 N.am  202  GLY202     -0.1941
     20  CA        17.6160  -18.3630  -41.2140 C.3   202  GLY202      0.2014
     21  C         16.2630  -18.8710  -41.6680 C.2   202  GLY202      0.2639
     22  O         16.1120  -20.0560  -41.9630 O.2   202  GLY202     -0.2714
     23  N         15.2730  -17.9820  -41.7030 N.am  203  THR203     -0.1950
     24  CA        13.9700  -18.3100  -42.2740 C.3   203  THR203      0.1897
     25  C         14.1610  -18.4240  -43.7820 C.2   203  THR203      0.2313
     26  O         14.9050  -17.6410  -44.3770 O.2   203  THR203     -0.2863
     27  CB        12.9070  -17.2430  -41.9330 C.3   203  THR203      0.1794
     28  OG1       13.1520  -16.0490  -42.6830 O.3   203  THR203     -0.2208
     29  CG2       12.9440  -16.9100  -40.4490 C.3   203  THR203      0.0378
     30  N         13.6630  -17.6130  -46.8890 N.3   205  LYS205     -0.1231
     31  CA        13.1410  -16.6610  -47.8660 C.3   205  LYS205      0.1693
     32  C         13.4170  -17.0990  -49.3050 C.2   205  LYS205      0.2592
     33  O         12.6380  -16.7990  -50.2090 O.2   205  LYS205     -0.2718
     34  CB        13.7220  -15.2680  -47.6250 C.3   205  LYS205      0.0285
     35  CG        15.2310  -15.2430  -47.6260 C.3   205  LYS205      0.0035
     36  CD        15.7750  -13.8790  -47.9960 C.3   205  LYS205      0.0206
     37  CE        17.2550  -13.9750  -48.3160 C.3   205  LYS205      0.1093
     38  NZ        17.8090  -12.6710  -48.7550 N.3   205  LYS205     -0.1314
     39  N         14.5200  -17.8100  -49.5170 N.am  206  THR206     -0.1953
     40  CA        14.8730  -18.2570  -50.8590 C.3   206  THR206      0.1897
     41  C         13.9440  -19.3640  -51.3550 C.2   206  THR206      0.2313
     42  O         13.4990  -19.3450  -52.5040 O.2   206  THR206     -0.2863
     43  CB        16.3260  -18.7360  -50.9310 C.3   206  THR206      0.1794
     44  OG1       17.1870  -17.7320  -50.3830 O.3   206  THR206     -0.2208
     45  CG2       16.7220  -19.0000  -52.3720 C.3   206  THR206      0.0378
     46  N         17.3030   -5.5130  -40.4360 N.3   372  GLN372     -0.1245
     47  CA        18.7070   -5.7200  -40.7620 C.3   372  GLN372      0.1566
     48  C         19.2510   -4.5080  -41.5000 C.2   372  GLN372      0.2260
     49  O         18.5870   -3.4780  -41.5910 O.2   372  GLN372     -0.2867
     50  CB        18.8950   -6.9740  -41.6140 C.3   372  GLN372      0.0367
     51  CG        18.4560   -8.2490  -40.9280 C.3   372  GLN372      0.0905
     52  CD        18.6930   -9.4810  -41.7750 C.2   372  GLN372      0.2608
     53  OE1       17.7770  -10.2670  -42.0140 O.2   372  GLN372     -0.2717
     54  NE2       19.9280   -9.6620  -42.2260 N.am  372  GLN372     -0.0878
     55  N         18.7710  -21.7590  -39.2280 N.3   410  ARG410     -0.1245
     56  CA        20.2170  -21.5890  -39.3060 C.3   410  ARG410      0.1563
     57  C         20.9360  -21.9340  -38.0080 C.2   410  ARG410      0.2260
     58  O         21.8220  -22.7860  -37.9840 O.2   410  ARG410     -0.2867
     59  CB        20.5670  -20.1590  -39.7150 C.3   410  ARG410      0.0307
     60  CG        22.0290  -19.8040  -39.5070 C.3   410  ARG410      0.0489
     61  CD        22.3160  -18.3850  -39.9520 C.3   410  ARG410      0.2205
     62  NE        22.1480  -18.2330  -41.3920 N.pl3 410  ARG410     -0.0865
     63  CZ        21.8560  -17.0840  -41.9900 C.cat 410  ARG410      0.5346
     64  NH1       21.6930  -15.9830  -41.2680 N.pl3 410  ARG410      0.1354
     65  NH2       21.7190  -17.0360  -43.3060 N.pl3 410  ARG410      0.1354
     66  N         23.9020  -11.5450  -45.4890 N.3   538  GLY538     -0.1225
     67  CA        23.4140  -12.4390  -46.5210 C.3   538  GLY538      0.1811
     68  C         24.1170  -13.7800  -46.5400 C.2   538  GLY538      0.2280
     69  O         23.7100  -14.6890  -47.2650 O.2   538  GLY538     -0.2866
     70  N         24.7650  -14.4420  -37.8540 N.3   572  ARG572     -0.1245
     71  CA        25.4940  -15.0500  -38.9750 C.3   572  ARG572      0.1563
     72  C         25.8670  -16.5070  -38.7190 C.2   572  ARG572      0.2260
     73  O         26.1880  -17.2380  -39.6550 O.2   572  ARG572     -0.2867
     74  CB        26.7880  -14.2910  -39.3070 C.3   572  ARG572      0.0307
     75  CG        26.6610  -12.8170  -39.6740 C.3   572  ARG572      0.0489
     76  CD        25.2470  -12.3990  -39.9630 C.3   572  ARG572      0.2205
     77  NE        24.7740  -12.8440  -41.2610 N.pl3 572  ARG572     -0.0865
     78  CZ        23.4940  -12.8520  -41.6070 C.cat 572  ARG572      0.5346
     79  NH1       22.5780  -12.4460  -40.7390 N.pl3 572  ARG572      0.1354
     80  NH2       23.1330  -13.2710  -42.8110 N.pl3 572  ARG572      0.1354
@<TRIPOS>BOND
     1    42    41    2
     2    45    43    1
     3    41    40    1
     4    43    40    1
     5    43    44    1
     6    40    39    1
     7    33    32    2
     8    39    32   am
     9    32    31    1
    10    38    37    1
    11    37    36    1
    12    36    35    1
    13    31    34    1
    14    31    30    1
    15    35    34    1
    16    69    68    2
    17    68    67    1
    18    67    66    1
    19    26    25    2
    20     1     2    1
    21     2     3    1
    22    25    24    1
    23     4     3    2
    24    65    63    1
    25     3     5   am
    26    80    78    1
    27    28    27    1
    28    24    27    1
    29    24    23    1
    30    54    52   am
    31    53    52    2
    32    63    62    2
    33    63    64    1
    34    22    21    2
    35    27    29    1
    36    52    51    1
    37     5    11    1
    38     5     6    1
    39    23    21   am
    40     8     7    2
    41    21    20    1
    42    50    51    1
    43    50    47    1
    44    78    77    2
    45    78    79    1
    46    49    48    2
    47    48    47    1
    48    19    20    1
    49    19    14   am
    50    62    61    1
    51    77    76    1
    52    11    10    1
    53     7     6    1
    54     7    12   am
    55    13    14    1
    56    13    12    1
    57    13    16    1
    58    47    46    1
    59     6     9    1
    60    14    15    2
    61    12    18    1
    62    16    17    1
    63    76    75    1
    64    61    60    1
    65    59    60    1
    66    59    56    1
    67    10     9    1
    68    75    74    1
    69    73    72    2
    70    18    17    1
    71    74    71    1
    72    56    55    1
    73    56    57    1
    74    71    72    1
    75    71    70    1
    76    57    58    2
