@<TRIPOS>MOLECULE
tmp/2xzqB00.pdb
 115 117 0 0 0
SMALL
GASTEIGER

@<TRIPOS>ATOM
      1  N        -15.5500   12.3490  -13.5330 N.3     2  ALA2       -0.1245
      2  CA       -16.2380   12.9060  -12.3700 C.3     2  ALA2        0.1562
      3  C        -14.9860   13.0800  -11.5470 C.2     2  ALA2        0.2260
      4  O        -14.9350   13.6770  -10.4840 O.2     2  ALA2       -0.2867
      5  CB       -17.2080   11.8700  -11.7750 C.3     2  ALA2        0.0290
      6  N        -11.6390   12.9820   -6.8100 N.3    25  SER25      -0.1202
      7  CA       -11.4370   14.4200   -6.7090 C.3    25  SER25       0.2020
      8  C        -12.4170   15.0300   -5.7180 C.2    25  SER25       0.2619
      9  O        -12.1670   16.0960   -5.1560 O.2    25  SER25      -0.2717
     10  CB       -11.6390   15.0680   -8.0750 C.3    25  SER25       0.2103
     11  OG       -12.9580   14.8260   -8.5410 O.3    25  SER25      -0.2182
     12  N        -13.5370   14.3480   -5.5050 N.am   26  THR26      -0.1952
     13  CA       -14.5600   14.8580   -4.6060 C.3    26  THR26       0.1897
     14  C        -14.0650   14.7970   -3.1750 C.2    26  THR26       0.2313
     15  O        -14.2760   15.7230   -2.4020 O.2    26  THR26      -0.2863
     16  CB       -15.9040   14.0670   -4.7600 C.3    26  THR26       0.1794
     17  OG1      -15.8600   12.8390   -4.0280 O.3    26  THR26      -0.2208
     18  CG2      -16.1320   13.7250   -6.2070 C.3    26  THR26       0.0378
     19  N        -14.5110    6.0620   -0.5320 N.3    30  THR30      -0.1218
     20  CA       -15.2580    5.3780    0.5140 C.3    30  THR30       0.1862
     21  C        -15.7840    4.0150    0.0970 C.2    30  THR30       0.2287
     22  O        -15.8000    3.6630   -1.0810 O.2    30  THR30      -0.2866
     23  CB       -16.4610    6.2380    0.9780 C.3    30  THR30       0.1770
     24  OG1      -17.6000    5.3960    1.1660 O.3    30  THR30      -0.2211
     25  CG2      -16.8250    7.2850   -0.0680 C.3    30  THR30       0.0375
     26  N        -18.6150    3.1880   -0.1700 N.3    32  SER32      -0.1202
     27  CA       -19.7670    3.3970   -1.0240 C.3    32  SER32       0.2020
     28  C        -19.3720    3.7350   -2.4590 C.2    32  SER32       0.2619
     29  O        -20.2270    3.9150   -3.3270 O.2    32  SER32      -0.2717
     30  CB       -20.6720    4.4870   -0.4320 C.3    32  SER32       0.2103
     31  OG       -19.9870    5.7200   -0.3170 O.3    32  SER32      -0.2182
     32  N        -18.0680    3.8210   -2.7030 N.am   33  ASN33      -0.1960
     33  CA       -17.5640    4.0730   -4.0510 C.3    33  ASN33       0.1819
     34  C        -17.3550    2.7320   -4.7600 C.2    33  ASN33       0.2621
     35  O        -17.0520    2.6960   -5.9480 O.2    33  ASN33      -0.2715
     36  CB       -16.2530    4.8560   -3.9990 C.3    33  ASN33       0.1195
     37  CG       -16.4740    6.3520   -3.8720 C.2    33  ASN33       0.2630
     38  OD1      -15.6590    7.0590   -3.2870 O.2    33  ASN33      -0.2716
     39  ND2      -17.5750    6.8440   -4.4310 N.am   33  ASN33      -0.0877
     40  N        -17.5230    1.6380   -4.0190 N.am   34  TYR34      -0.1974
     41  CA       -17.3820    0.2810   -4.5570 C.3    34  TYR34       0.1639
     42  C        -16.2260    0.1350   -5.5350 C.2    34  TYR34       0.2290
     43  O        -16.4170   -0.2990   -6.6690 O.2    34  TYR34      -0.2864
     44  CB       -18.6950   -0.1280   -5.2350 C.3    34  TYR34       0.0560
     45  CG       -19.8550   -0.1630   -4.2650 C.ar   34  TYR34      -0.0198
     46  CD1      -19.9780   -1.2010   -3.3410 C.ar   34  TYR34      -0.0009
     47  CD2      -20.7970    0.8600   -4.2330 C.ar   34  TYR34      -0.0009
     48  CE1      -21.0040   -1.2200   -2.4080 C.ar   34  TYR34       0.0417
     49  CE2      -21.8400    0.8500   -3.2970 C.ar   34  TYR34       0.0417
     50  CZ       -21.9320   -0.1940   -2.3910 C.ar   34  TYR34       0.1957
     51  OH       -22.9490   -0.2160   -1.4670 O.3    34  TYR34      -0.2866
     52  N        -17.6720    4.3720   -8.0710 N.3    93  TRP93      -0.1227
     53  CA       -19.0930    4.5920   -8.2880 C.3    93  TRP93       0.1737
     54  C        -19.5230    5.8800   -7.6140 C.2    93  TRP93       0.2595
     55  O        -19.2510    6.0950   -6.4270 O.2    93  TRP93      -0.2718
     56  CB       -19.8970    3.4120   -7.7490 C.3    93  TRP93       0.0564
     57  CG       -21.3850    3.5920   -7.8370 C.ar   93  TRP93       0.0003
     58  CD1      -22.2280    3.8650   -6.8080 C.ar   93  TRP93       0.0946
     59  CD2      -22.2060    3.4980   -9.0110 C.ar   93  TRP93       0.0152
     60  NE1      -23.5280    3.9480   -7.2570 N.ar   93  TRP93      -0.2442
     61  CE2      -23.5410    3.7260   -8.6070 C.ar   93  TRP93       0.0810
     62  CE3      -21.9450    3.2480  -10.3640 C.ar   93  TRP93       0.0012
     63  CZ2      -24.6110    3.7090   -9.5070 C.ar   93  TRP93       0.0191
     64  CZ3      -23.0190    3.2330  -11.2630 C.ar   93  TRP93       0.0001
     65  CH2      -24.3270    3.4620  -10.8270 C.ar   93  TRP93       0.0015
     66  N        -20.1780    6.7380   -8.3940 N.am   94  TYR94      -0.1962
     67  CA       -20.6680    8.0240   -7.9180 C.3    94  TYR94       0.1771
     68  C        -22.1990    8.1530   -8.0270 C.2    94  TYR94       0.2620
     69  O        -22.7210    8.7790   -8.9410 O.2    94  TYR94      -0.2715
     70  CB       -19.9900    9.1580   -8.6940 C.3    94  TYR94       0.0574
     71  CG       -18.5070    9.3420   -8.4000 C.ar   94  TYR94      -0.0198
     72  CD1      -18.0810   10.1660   -7.3570 C.ar   94  TYR94      -0.0009
     73  CD2      -17.5340    8.6920   -9.1610 C.ar   94  TYR94      -0.0009
     74  CE1      -16.7250   10.3420   -7.0770 C.ar   94  TYR94       0.0417
     75  CE2      -16.1680    8.8610   -8.8920 C.ar   94  TYR94       0.0417
     76  CZ       -15.7720    9.6900   -7.8480 C.ar   94  TYR94       0.1957
     77  OH       -14.4320    9.8890   -7.5830 O.3    94  TYR94      -0.2866
     78  N        -22.9000    7.5350   -7.0800 N.am   95  SER95      -0.1936
     79  CA       -24.3600    7.5510   -6.9780 C.3    95  SER95       0.2055
     80  C        -25.1190    6.9160   -8.1330 C.2    95  SER95       0.2643
     81  O        -25.9250    6.0060   -7.9290 O.2    95  SER95      -0.2714
     82  CB       -24.8700    8.9910   -6.7740 C.3    95  SER95       0.2130
     83  OG       -24.4820    9.5290   -5.5090 O.3    95  SER95      -0.2179
     84  N        -24.8660    7.3930   -9.3440 N.am   96  ASN96      -0.1957
     85  CA       -25.5670    6.8820  -10.5060 C.3    96  ASN96       0.1819
     86  C        -24.6760    6.5420  -11.7010 C.2    96  ASN96       0.2621
     87  O        -25.1770    6.2950  -12.7950 O.2    96  ASN96      -0.2715
     88  CB       -26.6180    7.9060  -10.9270 C.3    96  ASN96       0.1195
     89  CG       -26.0060    9.2170  -11.3810 C.2    96  ASN96       0.2630
     90  OD1      -26.7180   10.1950  -11.5800 O.2    96  ASN96      -0.2716
     91  ND2      -24.6910    9.2400  -11.5610 N.am   96  ASN96      -0.0877
     92  N        -23.3610    6.5450  -11.5120 N.am   97  HIS97      -0.1959
     93  CA       -22.4810    6.2160  -12.6220 C.3    97  HIS97       0.1787
     94  C        -21.0580    5.8290  -12.2230 C.2    97  HIS97       0.2620
     95  O        -20.5590    6.2110  -11.1630 O.2    97  HIS97      -0.2715
     96  CB       -22.4320    7.3780  -13.6240 C.3    97  HIS97       0.0785
     97  CG       -21.6480    8.5630  -13.1510 C.ar   97  HIS97       0.0821
     98  ND1      -22.0860    9.3940  -12.1420 N.ar   97  HIS97      -0.2267
     99  CD2      -20.4490    9.0530  -13.5470 C.ar   97  HIS97       0.1154
    100  CE1      -21.1920   10.3440  -11.9370 C.ar   97  HIS97       0.1986
    101  NE2      -20.1870   10.1610  -12.7780 N.ar   97  HIS97      -0.2212
    102  N        -20.4140    5.0590  -13.0940 N.am   98  TRP98      -0.1974
    103  CA       -19.0470    4.6290  -12.8720 C.3    98  TRP98       0.1640
    104  C        -18.0900    5.5980  -13.5290 C.2    98  TRP98       0.2290
    105  O        -18.3630    6.1250  -14.6080 O.2    98  TRP98      -0.2864
    106  CB       -18.8020    3.2400  -13.4660 C.3    98  TRP98       0.0576
    107  CG       -19.3690    2.1250  -12.6680 C.ar   98  TRP98       0.0006
    108  CD1      -20.5150    1.4410  -12.9240 C.ar   98  TRP98       0.0946
    109  CD2      -18.8310    1.5750  -11.4630 C.ar   98  TRP98       0.0152
    110  NE1      -20.7290    0.4930  -11.9550 N.ar   98  TRP98      -0.2442
    111  CE2      -19.7100    0.5510  -11.0440 C.ar   98  TRP98       0.0810
    112  CE3      -17.6940    1.8500  -10.6930 C.ar   98  TRP98       0.0012
    113  CZ2      -19.4890   -0.2050   -9.8880 C.ar   98  TRP98       0.0191
    114  CZ3      -17.4730    1.1050   -9.5440 C.ar   98  TRP98       0.0001
    115  CH2      -18.3720    0.0840   -9.1510 C.ar   98  TRP98       0.0015
@<TRIPOS>BOND
     1   105   104    2
     2    96    97    1
     3    96    93    1
     4    99    97   ar
     5    99   101   ar
     6     1     2    1
     7   104   103    1
     8   106   103    1
     9   106   107    1
    10    97    98   ar
    11   102   103    1
    12   102    94   am
    13   108   107   ar
    14   108   110   ar
    15    87    86    2
    16   101   100   ar
    17   107   109   ar
    18    93    94    1
    19    93    92    1
    20     2     5    1
    21     2     3    1
    22    94    95    2
    23    98   100   ar
    24   110   111   ar
    25    86    92   am
    26    86    85    1
    27    90    89    2
    28    91    89   am
    29     3     4    2
    30   109   111   ar
    31   109   112   ar
    32    89    88    1
    33    64    65   ar
    34    64    62   ar
    35   111   113   ar
    36    88    85    1
    37    65    63   ar
    38   112   114   ar
    39    85    84    1
    40    62    59   ar
    41   113   115   ar
    42   114   115   ar
    43    63    61   ar
    44    84    80   am
    45    73    75   ar
    46    73    71   ar
    47    59    61   ar
    48    59    57   ar
    49    69    68    2
    50    75    76   ar
    51    70    71    1
    52    70    67    1
    53    61    60   ar
    54    11    10    1
    55    71    72   ar
    56    66    67    1
    57    66    54   am
    58    53    52    1
    59    53    56    1
    60    53    54    1
    61    80    81    2
    62    80    79    1
    63    10     7    1
    64    68    67    1
    65    68    78   am
    66    76    77    1
    67    76    74   ar
    68    57    56    1
    69    57    58   ar
    70    54    55    2
    71    72    74   ar
    72    60    58   ar
    73    78    79    1
    74    79    82    1
    75     6     7    1
    76    82    83    1
    77     7     8    1
    78    43    42    2
    79    18    16    1
    80    35    34    2
    81     8    12   am
    82     8     9    2
    83    42    41    1
    84    12    13    1
    85    44    41    1
    86    44    45    1
    87    16    13    1
    88    16    17    1
    89    34    33    1
    90    34    40   am
    91    13    14    1
    92    41    40    1
    93    39    37   am
    94    45    47   ar
    95    45    46   ar
    96    47    49   ar
    97    33    36    1
    98    33    32    1
    99    36    37    1
   100    37    38    2
   101    46    48   ar
   102    29    28    2
   103    49    50   ar
   104    14    15    2
   105    32    28   am
   106    28    27    1
   107    48    50   ar
   108    50    51    1
   109    22    21    2
   110    27    30    1
   111    27    26    1
   112    19    20    1
   113    30    31    1
   114    25    23    1
   115    21    20    1
   116    20    23    1
   117    23    24    1
