@<TRIPOS>MOLECULE
tmp/2xzwC01.pdb
 127 124 0 0 0
SMALL
GASTEIGER

@<TRIPOS>ATOM
      1  N        -15.4130    7.5240  -26.7200 N.3     7  ILE7       -0.1245
      2  CA       -16.6820    6.8290  -26.7600 C.3     7  ILE7        0.1561
      3  C        -17.7500    7.9130  -26.9280 C.2     7  ILE7        0.2260
      4  O        -17.8250    8.8030  -26.0670 O.2     7  ILE7       -0.2867
      5  CB       -16.9230    6.0930  -25.4660 C.3     7  ILE7        0.0252
      6  CG1      -15.6820    5.2010  -25.0620 C.3     7  ILE7        0.0019
      7  CG2      -18.2200    5.3260  -25.5470 C.3     7  ILE7        0.0019
      8  CD1      -15.2980    4.1970  -26.0600 C.3     7  ILE7        0.0001
      9  N        -20.0950   -0.4870  -29.3010 N.3    33  VAL33      -0.1231
     10  CA       -19.8880   -0.9570  -27.9420 C.3    33  VAL33       0.1692
     11  C        -21.1900   -0.6790  -27.1730 C.2    33  VAL33       0.2592
     12  O        -22.1130   -0.0960  -27.7360 O.2    33  VAL33      -0.2718
     13  CB       -18.6590   -0.2570  -27.2190 C.3    33  VAL33       0.0266
     14  CG1      -17.3000   -0.4960  -28.0460 C.3    33  VAL33       0.0020
     15  CG2      -18.8460    1.2500  -26.9810 C.3    33  VAL33       0.0020
     16  N        -21.2260   -1.0880  -25.9060 N.am   34  ARG34      -0.1966
     17  CA       -22.3310   -0.7680  -24.9850 C.3    34  ARG34       0.1729
     18  C        -21.7010   -0.2600  -23.7250 C.2    34  ARG34       0.2617
     19  O        -20.6310   -0.7080  -23.3780 O.2    34  ARG34      -0.2715
     20  CB       -23.1560   -2.0420  -24.6800 C.3    34  ARG34       0.0348
     21  CG       -24.1390   -2.2680  -25.8540 C.3    34  ARG34       0.0492
     22  CD       -25.0250   -3.4440  -25.7560 C.3    34  ARG34       0.2205
     23  NE       -25.1390   -3.8510  -27.1590 N.pl3  34  ARG34      -0.0865
     24  CZ       -25.8220   -3.1360  -28.0650 C.cat  34  ARG34       0.5346
     25  NH1      -26.4690   -2.0420  -27.6580 N.pl3  34  ARG34       0.1354
     26  NH2      -25.8660   -3.4990  -29.3500 N.pl3  34  ARG34       0.1354
     27  N        -22.3220    0.7010  -23.0390 N.am   35  GLY35      -0.1940
     28  CA       -21.6840    1.2190  -21.8290 C.3    35  GLY35       0.2014
     29  C        -22.6380    1.9180  -20.9130 C.2    35  GLY35       0.2639
     30  O        -23.7820    2.1390  -21.2760 O.2    35  GLY35      -0.2714
     31  N        -22.1160    2.3000  -19.7620 N.am   36  PHE36      -0.1959
     32  CA       -22.7770    3.2600  -18.8780 C.3    36  PHE36       0.1771
     33  C        -21.7120    4.1420  -18.2300 C.2    36  PHE36       0.2620
     34  O        -20.5430    3.7510  -18.1900 O.2    36  PHE36      -0.2715
     35  CB       -23.6320    2.4950  -17.8580 C.3    36  PHE36       0.0574
     36  CG       -22.8550    1.6180  -16.8990 C.ar   36  PHE36      -0.0200
     37  CD1      -22.3090    2.1330  -15.7290 C.ar   36  PHE36      -0.0042
     38  CD2      -22.7030    0.2190  -17.1540 C.ar   36  PHE36      -0.0042
     39  CE1      -21.6700    1.2900  -14.7870 C.ar   36  PHE36      -0.0003
     40  CE2      -22.0130   -0.6180  -16.2430 C.ar   36  PHE36      -0.0003
     41  CZ       -21.4860   -0.0830  -15.0790 C.ar   36  PHE36      -0.0000
     42  N        -22.1160    5.3550  -17.8140 N.am   37  GLY37      -0.1940
     43  CA       -21.2860    6.2710  -17.0570 C.3    37  GLY37       0.2014
     44  C        -21.9010    6.3950  -15.6600 C.2    37  GLY37       0.2639
     45  O        -22.4640    5.4430  -15.1450 O.2    37  GLY37      -0.2714
     46  N        -21.7590    7.5570  -15.0330 N.am   38  ARG38      -0.1963
     47  CA       -22.1510    7.7230  -13.6560 C.3    38  ARG38       0.1729
     48  C        -23.6570    7.6950  -13.4910 C.2    38  ARG38       0.2616
     49  O        -24.1160    7.3840  -12.3820 O.2    38  ARG38      -0.2715
     50  CB       -21.5690    8.9930  -13.0310 C.3    38  ARG38       0.0348
     51  CG       -21.6950   10.1400  -13.8740 C.3    38  ARG38       0.0492
     52  CD       -21.0040   11.3020  -13.2470 C.3    38  ARG38       0.2205
     53  NE       -21.2640   12.5010  -14.0220 N.pl3  38  ARG38      -0.0865
     54  CZ       -20.7970   13.7070  -13.7340 C.cat  38  ARG38       0.5346
     55  NH1      -20.0800   13.9290  -12.6320 N.pl3  38  ARG38       0.1354
     56  NH2      -21.0310   14.6810  -14.5870 N.pl3  38  ARG38       0.1354
     57  N        -24.4110    7.8540  -14.5950 N.am   39  GLN39      -0.1977
     58  CA       -25.8840    7.7440  -14.4660 C.3    39  GLN39       0.1601
     59  C        -26.3700    6.3510  -14.6710 C.2    39  GLN39       0.2287
     60  O        -27.6020    6.1230  -14.7960 O.2    39  GLN39      -0.2864
     61  CB       -26.5970    8.7260  -15.4260 C.3    39  GLN39       0.0394
     62  CG       -26.3450   10.1980  -14.9760 C.3    39  GLN39       0.0908
     63  CD       -25.1050   10.7300  -15.6680 C.2    39  GLN39       0.2608
     64  OE1      -24.6080   10.0950  -16.5880 O.2    39  GLN39      -0.2717
     65  NE2      -24.5950   11.8360  -15.2250 N.am   39  GLN39      -0.0878
     66  N        -23.0610    2.7830  -27.8150 N.3    58  LYS58      -0.1245
     67  CA       -22.1910    3.8920  -28.1090 C.3    58  LYS58       0.1561
     68  C        -21.2670    3.4870  -29.2620 C.2    58  LYS58       0.2260
     69  O        -21.2570    2.3300  -29.6610 O.2    58  LYS58      -0.2867
     70  CB       -21.3340    4.2520  -26.8270 C.3    58  LYS58       0.0271
     71  CG       -22.1780    4.6270  -25.4870 C.3    58  LYS58       0.0035
     72  CD       -22.7050    6.0780  -25.5690 C.3    58  LYS58       0.0206
     73  CE       -23.4890    6.3610  -24.3330 C.3    58  LYS58       0.1093
     74  NZ       -24.3660    7.5180  -24.5390 N.3    58  LYS58      -0.1314
     75  N        -26.0560   17.1200  -23.1020 N.3    85  GLU85      -0.1231
     76  CA       -26.8310   16.1920  -22.2890 C.3    85  GLU85       0.1699
     77  C        -25.9680   15.0930  -21.7460 C.2    85  GLU85       0.2592
     78  O        -24.8840   14.7480  -22.3100 O.2    85  GLU85      -0.2718
     79  CB       -27.9750   15.6140  -23.1010 C.3    85  GLU85       0.0402
     80  CG       -28.8410   16.7320  -23.8120 C.3    85  GLU85       0.1161
     81  CD       -29.7420   17.5390  -22.8350 C.2    85  GLU85       0.3649
     82  OE1      -29.8770   17.1700  -21.6430 O.co2  85  GLU85      -0.2457
     83  OE2      -30.3210   18.5640  -23.2710 O.co2  85  GLU85      -0.2457
     84  N        -26.4050   14.5420  -20.6220 N.am   86  ILE86      -0.1966
     85  CA       -25.6780   13.4470  -20.0360 C.3    86  ILE86       0.1727
     86  C        -25.5180   12.3730  -21.1010 C.2    86  ILE86       0.2617
     87  O        -26.4020   12.1150  -21.9500 O.2    86  ILE86      -0.2715
     88  CB       -26.3220   12.9060  -18.6870 C.3    86  ILE86       0.0290
     89  CG1      -27.7060   12.2660  -19.0030 C.3    86  ILE86       0.0022
     90  CG2      -26.4170   14.1260  -17.6070 C.3    86  ILE86       0.0023
     91  CD1      -28.3410   11.3370  -17.9200 C.3    86  ILE86       0.0001
     92  N        -24.3530   11.7180  -21.0790 N.am   87  GLY87      -0.1940
     93  CA       -24.0970   10.6380  -22.0470 C.3    87  GLY87       0.2014
     94  C        -23.3900   11.0470  -23.3530 C.2    87  GLY87       0.2639
     95  O        -23.2820   10.2300  -24.2920 O.2    87  GLY87      -0.2714
     96  N        -22.8250   12.2530  -23.3790 N.am   88  ASP88      -0.1957
     97  CA       -22.1960   12.7930  -24.5720 C.3    88  ASP88       0.1840
     98  C        -20.9380   12.0440  -24.8970 C.2    88  ASP88       0.2623
     99  O        -20.5150   12.0610  -26.0470 O.2    88  ASP88      -0.2715
    100  CB       -21.8530   14.2710  -24.4420 C.3    88  ASP88       0.1450
    101  CG       -23.0020   15.1690  -24.8870 C.2    88  ASP88       0.3671
    102  OD1      -23.9770   14.6420  -25.4750 O.co2  88  ASP88      -0.2456
    103  OD2      -22.9240   16.3860  -24.6430 O.co2  88  ASP88      -0.2456
    104  N        -20.3040   11.4550  -23.8900 N.am   89  GLY89      -0.1940
    105  CA       -19.1460   10.6770  -24.1790 C.3    89  GLY89       0.2014
    106  C        -17.9490   10.9330  -23.2780 C.2    89  GLY89       0.2638
    107  O        -17.9590   11.7910  -22.4000 O.2    89  GLY89      -0.2714
    108  N        -16.8640   10.2030  -23.5400 N.am   90  LYS90      -0.1977
    109  CA       -15.7050   10.2700  -22.6470 C.3    90  LYS90       0.1596
    110  C        -14.5130    9.8990  -23.5250 C.2    90  LYS90       0.2287
    111  O        -14.6760    9.0440  -24.4430 O.2    90  LYS90      -0.2864
    112  CB       -15.7750    9.2710  -21.4780 C.3    90  LYS90       0.0298
    113  CG       -14.7540    9.6870  -20.3910 C.3    90  LYS90       0.0038
    114  CD       -15.1300    9.3370  -18.9510 C.3    90  LYS90       0.0206
    115  CE       -16.4330    9.9630  -18.4510 C.3    90  LYS90       0.1093
    116  NZ       -16.6360    9.2490  -17.1940 N.3    90  LYS90      -0.1314
    117  N        -10.2760    8.7550  -23.7100 N.3    92  PHE92      -0.1241
    118  CA        -9.1410    8.2140  -22.9490 C.3    92  PHE92       0.1605
    119  C         -7.9370    8.2970  -23.8840 C.2    92  PHE92       0.2264
    120  O         -7.9990    7.8170  -25.0070 O.2    92  PHE92      -0.2867
    121  CB        -9.3840    6.7690  -22.4990 C.3    92  PHE92       0.0534
    122  CG       -10.7300    6.5810  -21.8020 C.ar   92  PHE92      -0.0203
    123  CD1      -10.9660    7.1360  -20.5510 C.ar   92  PHE92      -0.0042
    124  CD2      -11.7080    5.8110  -22.3880 C.ar   92  PHE92      -0.0042
    125  CE1      -12.2290    6.9550  -19.8810 C.ar   92  PHE92      -0.0003
    126  CE2      -12.9310    5.6340  -21.7420 C.ar   92  PHE92      -0.0003
    127  CZ       -13.1930    6.2340  -20.5120 C.ar   92  PHE92      -0.0000
@<TRIPOS>BOND
     1    69    68    2
     2    26    24    1
     3     9    10    1
     4    68    67    1
     5    67    66    1
     6    67    70    1
     7    24    25    1
     8    24    23    2
     9    14    13    1
    10    10    13    1
    11    10    11    1
    12    12    11    2
    13    13    15    1
    14    11    16   am
    15    23    22    1
    16     3     2    1
    17     3     4    2
    18    70    71    1
    19     2     1    1
    20     2     5    1
    21     8     6    1
    22    99    98    2
    23    16    17    1
    24    21    22    1
    25    21    20    1
    26    72    71    1
    27    72    73    1
    28     7     5    1
    29   102   101   ar
    30     5     6    1
    31   120   119    2
    32    17    20    1
    33    17    18    1
    34    98    97    1
    35    98   104   am
    36   101   103   ar
    37   101   100    1
    38    97   100    1
    39    97    96    1
    40    74    73    1
    41   111   110    2
    42    95    94    2
    43   105   104    1
    44   105   106    1
    45   119   118    1
    46    80    79    1
    47    80    81    1
    48    18    19    2
    49    18    27   am
    50   117   118    1
    51   108   106   am
    52   108   109    1
    53   110   109    1
    54    96    94   am
    55    94    93    1
    56   106   107    2
    57    83    81   ar
    58    75    76    1
    59    79    76    1
    60    27    28    1
    61   118   121    1
    62    81    82   ar
    63   109   112    1
    64   121   122    1
    65   124   122   ar
    66   124   126   ar
    67    78    77    2
    68    76    77    1
    69    93    92    1
    70    87    86    2
    71    28    29    1
    72   122   123   ar
    73    77    84   am
    74   126   127   ar
    75   112   113    1
    76    30    29    2
    77    86    92   am
    78    86    85    1
    79    29    31   am
    80    84    85    1
    81   123   125   ar
    82   127   125   ar
    83   113   114    1
    84    85    88    1
    85    31    32    1
    86    89    88    1
    87    89    91    1
    88   114   115    1
    89    32    33    1
    90    32    35    1
    91    88    90    1
    92   115   116    1
    93    33    34    2
    94    33    42   am
    95    35    36    1
    96    42    43    1
    97    38    36   ar
    98    38    40   ar
    99    43    44    1
   100    36    37   ar
   101    64    63    2
   102    40    41   ar
   103    37    39   ar
   104    63    65   am
   105    63    62    1
   106    44    45    2
   107    44    46   am
   108    61    62    1
   109    61    58    1
   110    41    39   ar
   111    46    47    1
   112    60    59    2
   113    59    58    1
   114    57    58    1
   115    57    48   am
   116    56    54    1
   117    53    54    2
   118    53    52    1
   119    51    52    1
   120    51    50    1
   121    54    55    1
   122    47    48    1
   123    47    50    1
   124    48    49    2
