@<TRIPOS>MOLECULE
tmp/2xzwC00.pdb
 92 86 0 0 0
SMALL
GASTEIGER

@<TRIPOS>ATOM
      1  N         -6.0880   11.7730  -40.6040 N.3    26  VAL26      -0.1231
      2  CA        -6.6270   10.7940  -41.5450 C.3    26  VAL26       0.1692
      3  C         -6.2300    9.3440  -41.1920 C.2    26  VAL26       0.2593
      4  O         -5.1690    8.8350  -41.5730 O.2    26  VAL26      -0.2718
      5  CB        -6.2830   11.1640  -43.0120 C.3    26  VAL26       0.0266
      6  CG1       -7.1910   10.4180  -43.9710 C.3    26  VAL26       0.0020
      7  CG2       -6.4250   12.7220  -43.2180 C.3    26  VAL26       0.0020
      8  N         -7.1250    8.6810  -40.4680 N.am   27  GLY27      -0.1942
      9  CA        -6.8840    7.2940  -40.0670 C.3    27  GLY27       0.2014
     10  C         -7.5770    7.0680  -38.7590 C.2    27  GLY27       0.2639
     11  O         -7.2710    7.7440  -37.7500 O.2    27  GLY27      -0.2714
     12  N         -8.5020    6.1180  -38.7560 N.am   28  MET28      -0.1963
     13  CA        -9.2300    5.8350  -37.5250 C.3    28  MET28       0.1736
     14  C         -9.8900    4.4850  -37.6400 C.2    28  MET28       0.2617
     15  O        -10.1420    3.9980  -38.7580 O.2    28  MET28      -0.2715
     16  CB       -10.2740    6.9290  -37.2850 C.3    28  MET28       0.0427
     17  CG       -11.2330    7.1170  -38.3980 C.3    28  MET28       0.0599
     18  SD       -12.3550    8.5760  -38.1630 S.3    28  MET28      -0.1393
     19  CE       -13.3100    7.8500  -36.8440 C.3    28  MET28       0.0692
     20  N        -10.1610    3.9050  -36.4850 N.am   29  THR29      -0.1951
     21  CA       -10.8230    2.5950  -36.3540 C.3    29  THR29       0.1897
     22  C        -12.0830    2.7470  -35.4650 C.2    29  THR29       0.2313
     23  O        -12.0270    3.4430  -34.4760 O.2    29  THR29      -0.2863
     24  CB        -9.7810    1.6090  -35.7000 C.3    29  THR29       0.1794
     25  OG1       -8.6500    1.5360  -36.5810 O.3    29  THR29      -0.2208
     26  CG2      -10.3480    0.1920  -35.4750 C.3    29  THR29       0.0378
     27  N        -11.0790    5.0280  -32.3530 N.3    62  GLU62      -0.1245
     28  CA        -9.7130    4.9340  -31.9420 C.3    62  GLU62       0.1567
     29  C         -8.8380    5.5900  -32.9860 C.2    62  GLU62       0.2260
     30  O         -8.9570    5.2940  -34.1560 O.2    62  GLU62      -0.2867
     31  CB        -9.3130    3.4900  -31.7900 C.3    62  GLU62       0.0388
     32  CG        -9.8090    2.8000  -30.5230 C.3    62  GLU62       0.1160
     33  CD        -9.7170    1.3050  -30.6540 C.2    62  GLU62       0.3649
     34  OE1      -10.4410    0.7090  -31.5160 O.co2  62  GLU62      -0.2457
     35  OE2       -8.9010    0.7340  -29.8990 O.co2  62  GLU62      -0.2457
     36  N         -4.7930    6.9420  -33.5140 N.3    64  VAL64      -0.1245
     37  CA        -3.4220    7.0520  -33.0990 C.3    64  VAL64       0.1561
     38  C         -2.7940    8.2110  -33.8340 C.2    64  VAL64       0.2260
     39  O         -2.8200    8.2800  -35.0850 O.2    64  VAL64      -0.2867
     40  CB        -2.6890    5.7000  -33.3940 C.3    64  VAL64       0.0252
     41  CG1       -1.1780    5.7960  -33.0760 C.3    64  VAL64       0.0019
     42  CG2       -3.3620    4.5560  -32.5000 C.3    64  VAL64       0.0019
     43  N          4.2870    2.3170  -33.9110 N.3    99  THR99      -0.1274
     44  CA         3.3230    2.0550  -34.9660 C.3    99  THR99       0.1548
     45  C          4.0880    1.6280  -36.2160 C.3    99  THR99       0.2036
     46  O          5.1640    2.2410  -36.5810 O.3    99  THR99      -0.2187
     47  CB         2.5640    3.3360  -35.2540 C.3    99  THR99       0.1721
     48  OG1        2.0590    3.8630  -34.0190 O.3    99  THR99      -0.2215
     49  CG2        1.4680    3.1770  -36.2470 C.3    99  THR99       0.0371
     50  N          3.4730    0.3350  -40.3580 N.3   101  ARG101     -0.1231
     51  CA         2.6140    0.1440  -41.5310 C.3   101  ARG101      0.1694
     52  C          2.9960   -1.2100  -42.1610 C.2   101  ARG101      0.2592
     53  O          4.1380   -1.4220  -42.5190 O.2   101  ARG101     -0.2718
     54  CB         2.8570    1.3070  -42.5230 C.3   101  ARG101      0.0321
     55  CG         1.9910    1.1580  -43.7860 C.3   101  ARG101      0.0489
     56  CD         2.2450    2.3730  -44.7450 C.3   101  ARG101      0.2205
     57  NE         1.5650    3.5770  -44.2220 N.pl3 101  ARG101     -0.0865
     58  CZ         2.1790    4.7100  -43.8670 C.cat 101  ARG101      0.5346
     59  NH1        3.4970    4.8340  -43.9570 N.pl3 101  ARG101      0.1354
     60  NH2        1.4720    5.7160  -43.4050 N.pl3 101  ARG101      0.1354
     61  N          2.0440   -2.1090  -42.3220 N.am  102  ILE102     -0.1966
     62  CA         2.3590   -3.4850  -42.6890 C.3   102  ILE102      0.1727
     63  C          2.8720   -3.5220  -44.1220 C.2   102  ILE102      0.2616
     64  O          3.7960   -4.2880  -44.4530 O.2   102  ILE102     -0.2715
     65  CB         1.1050   -4.3880  -42.5060 C.3   102  ILE102      0.0290
     66  CG1        0.8270   -4.6360  -40.9790 C.3   102  ILE102      0.0022
     67  CG2        1.2590   -5.7380  -43.3010 C.3   102  ILE102      0.0023
     68  CD1       -0.4160   -5.4110  -40.6290 C.3   102  ILE102      0.0001
     69  N          2.2730   -2.6930  -44.9760 N.am  103  ARG103     -0.1977
     70  CA         2.5870   -2.7960  -46.4260 C.3   103  ARG103      0.1597
     71  C          4.0840   -2.5660  -46.7100 C.2   103  ARG103      0.2287
     72  O          4.6840   -3.2280  -47.5550 O.2   103  ARG103     -0.2864
     73  CB         1.7510   -1.8080  -47.2310 C.3   103  ARG103      0.0334
     74  CG         1.8320   -2.1100  -48.7810 C.3   103  ARG103      0.0492
     75  CD         0.9320   -1.1900  -49.5760 C.3   103  ARG103      0.2205
     76  NE         0.9260    0.2050  -49.1610 N.pl3 103  ARG103     -0.0865
     77  CZ         1.6690    1.1760  -49.6730 C.cat 103  ARG103      0.5346
     78  NH1        2.5690    0.9290  -50.6280 N.pl3 103  ARG103      0.1354
     79  NH2        1.5450    2.4100  -49.1870 N.pl3 103  ARG103      0.1354
     80  N          4.3000    6.2730  -40.1800 N.3   111  ALA111     -0.1231
     81  CA         3.1770    5.3130  -40.1390 C.3   111  ALA111      0.1694
     82  C          1.8490    5.9600  -39.6000 C.2   111  ALA111      0.2591
     83  O          0.7730    5.3170  -39.5200 O.2   111  ALA111     -0.2718
     84  CB         3.5920    4.0610  -39.3620 C.3   111  ALA111      0.0304
     85  N          1.9290    7.2460  -39.2530 N.am  112  ILE112     -0.1980
     86  CA         0.7700    8.0460  -38.7910 C.3   112  ILE112      0.1595
     87  C          0.4950    9.1990  -39.7790 C.2   112  ILE112      0.2287
     88  O         -0.6540    9.5620  -39.9760 O.2   112  ILE112     -0.2864
     89  CB         0.9940    8.6220  -37.3450 C.3   112  ILE112      0.0276
     90  CG1        0.9990    7.5000  -36.2950 C.3   112  ILE112      0.0022
     91  CG2       -0.0230    9.7880  -37.0180 C.3   112  ILE112      0.0022
     92  CD1        1.4770    7.9550  -34.8510 C.3   112  ILE112      0.0001
@<TRIPOS>BOND
     1    78    77    1
     2    77    79    1
     3    77    76    2
     4    75    76    1
     5    75    74    1
     6    74    73    1
     7    72    71    2
     8    73    70    1
     9    71    70    1
    10    70    69    1
    11    69    63   am
    12    56    57    1
    13    56    55    1
    14    64    63    2
    15    57    58    2
    16    63    62    1
    17     6     5    1
    18    59    58    1
    19    58    60    1
    20    55    54    1
    21    67    65    1
    22     7     5    1
    23     5     2    1
    24    62    65    1
    25    62    61    1
    26    54    51    1
    27    53    52    2
    28    65    66    1
    29    61    52   am
    30    52    51    1
    31     4     3    2
    32     2     3    1
    33     2     1    1
    34    51    50    1
    35     3     8   am
    36    66    68    1
    37     8     9    1
    38    80    81    1
    39    81    82    1
    40    81    84    1
    41     9    10    1
    42    88    87    2
    43    87    86    1
    44    82    83    2
    45    82    85   am
    46    85    86    1
    47    86    89    1
    48    10    12   am
    49    10    11    2
    50    15    14    2
    51    12    13    1
    52    17    18    1
    53    17    16    1
    54    18    19    1
    55    14    13    1
    56    14    20   am
    57    13    16    1
    58    89    91    1
    59    89    90    1
    60    25    24    1
    61    46    45    1
    62    20    21    1
    63    21    24    1
    64    21    22    1
    65    90    92    1
    66    49    47    1
    67    45    44    1
    68    24    26    1
    69    22    23    2
    70    47    44    1
    71    47    48    1
    72    39    38    2
    73    44    43    1
    74    30    29    2
    75    38    37    1
    76    36    37    1
    77    40    37    1
    78    40    41    1
    79    40    42    1
    80    29    28    1
    81    27    28    1
    82    28    31    1
    83    31    32    1
    84    34    33   ar
    85    33    32    1
    86    33    35   ar
