@<TRIPOS>MOLECULE
tmp/2xzwC02.pdb
 104 100 0 0 0
SMALL
GASTEIGER

@<TRIPOS>ATOM
      1  N        -21.8390    9.3140  -28.9260 N.3     9  ARG9       -0.1245
      2  CA       -23.1500    8.8590  -29.3700 C.3     9  ARG9        0.1563
      3  C        -23.0770    8.3900  -30.8290 C.2     9  ARG9        0.2260
      4  O        -22.4110    8.9720  -31.6450 O.2     9  ARG9       -0.2867
      5  CB       -24.1860    9.9930  -29.2500 C.3     9  ARG9        0.0307
      6  CG       -24.5310   10.3300  -27.8400 C.3     9  ARG9        0.0489
      7  CD       -25.6320   11.4070  -27.9190 C.3     9  ARG9        0.2205
      8  NE       -25.5630   12.2680  -26.7620 N.pl3   9  ARG9       -0.0865
      9  CZ       -26.1290   11.9800  -25.5920 C.cat   9  ARG9        0.5346
     10  NH1      -26.7740   10.8160  -25.4110 N.pl3   9  ARG9        0.1354
     11  NH2      -25.9830   12.8460  -24.6010 N.pl3   9  ARG9        0.1354
     12  N        -22.1160    2.3000  -19.7620 N.3    36  PHE36      -0.1227
     13  CA       -22.7770    3.2600  -18.8780 C.3    36  PHE36       0.1736
     14  C        -21.7120    4.1420  -18.2300 C.2    36  PHE36       0.2596
     15  O        -20.5430    3.7510  -18.1900 O.2    36  PHE36      -0.2718
     16  CB       -23.6320    2.4950  -17.8580 C.3    36  PHE36       0.0547
     17  CG       -22.8550    1.6180  -16.8990 C.ar   36  PHE36      -0.0202
     18  CD1      -22.3090    2.1330  -15.7290 C.ar   36  PHE36      -0.0042
     19  CD2      -22.7030    0.2190  -17.1540 C.ar   36  PHE36      -0.0042
     20  CE1      -21.6700    1.2900  -14.7870 C.ar   36  PHE36      -0.0003
     21  CE2      -22.0130   -0.6180  -16.2430 C.ar   36  PHE36      -0.0003
     22  CZ       -21.4860   -0.0830  -15.0790 C.ar   36  PHE36      -0.0000
     23  N        -22.1160    5.3550  -17.8140 N.am   37  GLY37      -0.1942
     24  CA       -21.2860    6.2710  -17.0570 C.3    37  GLY37       0.2014
     25  C        -21.9010    6.3950  -15.6600 C.2    37  GLY37       0.2639
     26  O        -22.4640    5.4430  -15.1450 O.2    37  GLY37      -0.2714
     27  N        -21.7590    7.5570  -15.0330 N.am   38  ARG38      -0.1963
     28  CA       -22.1510    7.7230  -13.6560 C.3    38  ARG38       0.1729
     29  C        -23.6570    7.6950  -13.4910 C.2    38  ARG38       0.2616
     30  O        -24.1160    7.3840  -12.3820 O.2    38  ARG38      -0.2715
     31  CB       -21.5690    8.9930  -13.0310 C.3    38  ARG38       0.0348
     32  CG       -21.6950   10.1400  -13.8740 C.3    38  ARG38       0.0492
     33  CD       -21.0040   11.3020  -13.2470 C.3    38  ARG38       0.2205
     34  NE       -21.2640   12.5010  -14.0220 N.pl3  38  ARG38      -0.0865
     35  CZ       -20.7970   13.7070  -13.7340 C.cat  38  ARG38       0.5346
     36  NH1      -20.0800   13.9290  -12.6320 N.pl3  38  ARG38       0.1354
     37  NH2      -21.0310   14.6810  -14.5870 N.pl3  38  ARG38       0.1354
     38  N        -24.4110    7.8540  -14.5950 N.am   39  GLN39      -0.1963
     39  CA       -25.8840    7.7440  -14.4660 C.3    39  GLN39       0.1733
     40  C        -26.3700    6.3510  -14.6710 C.2    39  GLN39       0.2616
     41  O        -27.6020    6.1230  -14.7960 O.2    39  GLN39      -0.2715
     42  CB       -26.5970    8.7260  -15.4260 C.3    39  GLN39       0.0408
     43  CG       -26.3450   10.1980  -14.9760 C.3    39  GLN39       0.0908
     44  CD       -25.1050   10.7300  -15.6680 C.2    39  GLN39       0.2608
     45  OE1      -24.6080   10.0950  -16.5880 O.2    39  GLN39      -0.2717
     46  NE2      -24.5950   11.8360  -15.2250 N.am   39  GLN39      -0.0878
     47  N        -25.4300    5.4070  -14.8660 N.am   40  LYS40      -0.1963
     48  CA       -25.8030    3.9670  -14.9090 C.3    40  LYS40       0.1728
     49  C        -26.8130    3.5580  -16.0060 C.2    40  LYS40       0.2617
     50  O        -27.6850    2.6530  -15.8160 O.2    40  LYS40      -0.2715
     51  CB       -26.2880    3.4950  -13.5220 C.3    40  LYS40       0.0311
     52  CG       -25.1370    3.4640  -12.4470 C.3    40  LYS40       0.0038
     53  CD       -25.5730    3.4770  -10.9720 C.3    40  LYS40       0.0206
     54  CE       -24.2960    3.4900  -10.0380 C.3    40  LYS40       0.1093
     55  NZ       -24.7400    3.5260   -8.6200 N.3    40  LYS40      -0.1314
     56  N        -26.7260    4.2380  -17.1400 N.am   41  GLY41      -0.1940
     57  CA       -27.5880    3.9690  -18.2820 C.3    41  GLY41       0.2014
     58  C        -29.0030    4.5680  -18.1640 C.2    41  GLY41       0.2639
     59  O        -29.9060    4.2390  -19.0010 O.2    41  GLY41      -0.2714
     60  N        -29.2150    5.4100  -17.1490 N.am   42  GLN42      -0.1963
     61  CA       -30.5540    5.9590  -16.8800 C.3    42  GLN42       0.1733
     62  C        -30.7290    7.4530  -17.0990 C.2    42  GLN42       0.2617
     63  O        -30.0880    8.3290  -16.4160 O.2    42  GLN42      -0.2715
     64  CB       -31.0180    5.5860  -15.4850 C.3    42  GLN42       0.0408
     65  CG       -30.9530    4.0700  -15.1590 C.3    42  GLN42       0.0908
     66  CD       -30.8650    3.8140  -13.6450 C.2    42  GLN42       0.2608
     67  OE1      -29.9180    3.1920  -13.1540 O.2    42  GLN42      -0.2717
     68  NE2      -31.8060    4.3440  -12.9080 N.am   42  GLN42      -0.0878
     69  N        -31.5840    7.7860  -18.0540 N.am   43  THR43      -0.1951
     70  CA       -31.9680    9.2030  -18.2260 C.3    43  THR43       0.1897
     71  C        -33.1070    9.6290  -17.2360 C.2    43  THR43       0.2313
     72  O        -33.2500   10.8290  -16.9830 O.2    43  THR43      -0.2863
     73  CB       -32.3080    9.5460  -19.7090 C.3    43  THR43       0.1794
     74  OG1      -33.4850    8.8410  -20.0780 O.3    43  THR43      -0.2208
     75  CG2      -31.1710    9.1020  -20.6660 C.3    43  THR43       0.0378
     76  N        -26.1220    1.2590  -22.6690 N.3    56  LEU56      -0.1245
     77  CA       -26.5900    1.9370  -23.8690 C.3    56  LEU56       0.1561
     78  C        -25.5970    1.6970  -24.9990 C.2    56  LEU56       0.2260
     79  O        -24.4060    1.4900  -24.7300 O.2    56  LEU56      -0.2867
     80  CB       -26.7630    3.4250  -23.6170 C.3    56  LEU56       0.0270
     81  CG       -27.8360    3.6440  -22.5300 C.3    56  LEU56       0.0019
     82  CD1      -27.9670    5.0650  -22.1750 C.3    56  LEU56       0.0001
     83  CD2      -29.1950    3.1630  -23.0260 C.3    56  LEU56       0.0001
     84  N        -23.0610    2.7830  -27.8150 N.3    58  LYS58      -0.1245
     85  CA       -22.1910    3.8920  -28.1090 C.3    58  LYS58       0.1561
     86  C        -21.2670    3.4870  -29.2620 C.2    58  LYS58       0.2260
     87  O        -21.2570    2.3300  -29.6610 O.2    58  LYS58      -0.2867
     88  CB       -21.3340    4.2520  -26.8270 C.3    58  LYS58       0.0271
     89  CG       -22.1780    4.6270  -25.4870 C.3    58  LYS58       0.0035
     90  CD       -22.7050    6.0780  -25.5690 C.3    58  LYS58       0.0206
     91  CE       -23.4890    6.3610  -24.3330 C.3    58  LYS58       0.1093
     92  NZ       -24.3660    7.5180  -24.5390 N.3    58  LYS58      -0.1314
     93  N        -26.4050   14.5420  -20.6220 N.3    86  ILE86      -0.1231
     94  CA       -25.6780   13.4470  -20.0360 C.3    86  ILE86       0.1692
     95  C        -25.5180   12.3730  -21.1010 C.2    86  ILE86       0.2592
     96  O        -26.4020   12.1150  -21.9500 O.2    86  ILE86      -0.2718
     97  CB       -26.3220   12.9060  -18.6870 C.3    86  ILE86       0.0266
     98  CG1      -27.7060   12.2660  -19.0030 C.3    86  ILE86       0.0019
     99  CG2      -26.4170   14.1260  -17.6070 C.3    86  ILE86       0.0020
    100  CD1      -28.3410   11.3370  -17.9200 C.3    86  ILE86       0.0001
    101  N        -24.3530   11.7180  -21.0790 N.am   87  GLY87      -0.1957
    102  CA       -24.0970   10.6380  -22.0470 C.3    87  GLY87       0.1869
    103  C        -23.3900   11.0470  -23.3530 C.2    87  GLY87       0.2309
    104  O        -23.2820   10.2300  -24.2920 O.2    87  GLY87      -0.2863
@<TRIPOS>BOND
     1     4     3    2
     2     3     2    1
     3    87    86    2
     4     2     5    1
     5     2     1    1
     6    86    85    1
     7     5     6    1
     8    85    84    1
     9    85    88    1
    10     7     6    1
    11     7     8    1
    12    88    89    1
    13     8     9    2
    14     9    10    1
    15     9    11    1
    16    90    89    1
    17    90    91    1
    18    78    79    2
    19    78    77    1
    20    92    91    1
    21   104   103    2
    22    77    80    1
    23    77    76    1
    24    80    81    1
    25   103   102    1
    26    83    81    1
    27    81    82    1
    28   102   101    1
    29    96    95    2
    30    95   101   am
    31    95    94    1
    32    75    73    1
    33    93    94    1
    34    74    73    1
    35    94    97    1
    36    12    13    1
    37    73    70    1
    38    98    97    1
    39    98   100    1
    40    59    58    2
    41    13    14    1
    42    13    16    1
    43    97    99    1
    44    57    58    1
    45    57    56    1
    46    14    15    2
    47    14    23   am
    48    70    69    1
    49    70    71    1
    50    58    60   am
    51    69    62   am
    52    16    17    1
    53    23    24    1
    54    71    72    2
    55    19    17   ar
    56    19    21   ar
    57    60    61    1
    58    56    49   am
    59    62    61    1
    60    62    63    2
    61    24    25    1
    62    17    18   ar
    63    61    64    1
    64    45    44    2
    65    21    22   ar
    66    49    50    2
    67    49    48    1
    68    18    20   ar
    69    44    46   am
    70    44    43    1
    71    25    26    2
    72    25    27   am
    73    64    65    1
    74    42    43    1
    75    42    39    1
    76    65    66    1
    77    22    20   ar
    78    27    28    1
    79    48    47    1
    80    48    51    1
    81    47    40   am
    82    41    40    2
    83    40    39    1
    84    38    39    1
    85    38    29   am
    86    37    35    1
    87    34    35    2
    88    34    33    1
    89    32    33    1
    90    32    31    1
    91    35    36    1
    92    28    29    1
    93    28    31    1
    94    66    67    2
    95    66    68   am
    96    51    52    1
    97    29    30    2
    98    52    53    1
    99    53    54    1
   100    54    55    1
