@<TRIPOS>MOLECULE
tmp/2y00A06.pdb
 208 203 0 0 0
SMALL
GASTEIGER

@<TRIPOS>ATOM
      1  N        -32.1040  -17.8920   18.7570 N.3    66  GLY66      -0.1225
      2  CA       -32.6010  -17.4370   20.0500 C.3    66  GLY66       0.1811
      3  C        -34.1250  -17.4400   20.0780 C.2    66  GLY66       0.2280
      4  O        -34.7350  -17.6240   21.1210 O.2    66  GLY66      -0.2866
      5  N        -35.6980  -20.6080   20.9570 N.3    69  LEU69      -0.1231
      6  CA       -35.4610  -20.9080   22.3450 C.3    69  LEU69       0.1693
      7  C        -36.4820  -20.1730   23.1870 C.2    69  LEU69       0.2591
      8  O        -36.9780  -20.7130   24.1830 O.2    69  LEU69      -0.2718
      9  CB       -34.0250  -20.5450   22.7300 C.3    69  LEU69       0.0284
     10  CG       -33.5130  -20.8720   24.1320 C.3    69  LEU69       0.0019
     11  CD1      -33.3790  -22.3760   24.3600 C.3    69  LEU69       0.0001
     12  CD2      -32.1940  -20.1690   24.3430 C.3    69  LEU69       0.0001
     13  N        -36.8030  -18.9510   22.7780 N.am   70  VAL70      -0.1980
     14  CA       -37.8160  -18.1350   23.4610 C.3    70  VAL70       0.1595
     15  C        -39.2450  -18.6480   23.2290 C.2    70  VAL70       0.2287
     16  O        -40.0650  -18.6550   24.1260 O.2    70  VAL70      -0.2864
     17  CB       -37.7210  -16.6410   23.0620 C.3    70  VAL70       0.0276
     18  CG1      -38.9970  -15.8770   23.4470 C.3    70  VAL70       0.0022
     19  CG2      -36.4820  -15.9940   23.7130 C.3    70  VAL70       0.0022
     20  N        -23.6400  -21.3180   18.1120 N.3    85  TRP85      -0.1227
     21  CA       -24.5470  -20.1890   18.2030 C.3    85  TRP85       0.1737
     22  C        -23.9920  -19.1760   19.2200 C.2    85  TRP85       0.2596
     23  O        -23.9990  -17.9670   18.9840 O.2    85  TRP85      -0.2718
     24  CB       -25.9980  -20.6670   18.5220 C.3    85  TRP85       0.0564
     25  CG       -26.9320  -19.5630   18.9510 C.ar   85  TRP85       0.0003
     26  CD1      -27.3870  -18.5250   18.1620 C.ar   85  TRP85       0.0946
     27  CD2      -27.5070  -19.3530   20.2620 C.ar   85  TRP85       0.0152
     28  NE1      -28.2070  -17.6960   18.9010 N.ar   85  TRP85      -0.2442
     29  CE2      -28.2960  -18.1710   20.1870 C.ar   85  TRP85       0.0810
     30  CE3      -27.4370  -20.0460   21.4880 C.ar   85  TRP85       0.0012
     31  CZ2      -29.0190  -17.6670   21.2920 C.ar   85  TRP85       0.0191
     32  CZ3      -28.1570  -19.5430   22.5970 C.ar   85  TRP85       0.0001
     33  CH2      -28.9490  -18.3650   22.4790 C.ar   85  TRP85       0.0015
     34  N        -23.4750  -19.6870   20.3280 N.am   86  THR86      -0.1953
     35  CA       -22.8950  -18.8860   21.3900 C.3    86  THR86       0.1897
     36  C        -21.6690  -18.1210   20.8960 C.2    86  THR86       0.2313
     37  O        -21.4710  -16.9470   21.2270 O.2    86  THR86      -0.2863
     38  CB       -22.4840  -19.8180   22.5570 C.3    86  THR86       0.1794
     39  OG1      -23.6530  -20.4970   23.0290 O.3    86  THR86      -0.2208
     40  CG2      -21.8350  -19.0440   23.6960 C.3    86  THR86       0.0378
     41  N        -22.6120  -15.3220   18.6060 N.3    89  ASP89      -0.1225
     42  CA       -23.1240  -14.2100   19.4420 C.3    89  ASP89       0.1805
     43  C        -21.9610  -13.3530   19.9390 C.2    89  ASP89       0.2597
     44  O        -21.9410  -12.1380   19.7130 O.2    89  ASP89      -0.2718
     45  CB       -23.9680  -14.7450   20.6170 C.3    89  ASP89       0.1424
     46  CG       -24.7820  -13.6490   21.3510 C.2    89  ASP89       0.3668
     47  OD1      -24.5960  -12.4210   21.1550 O.co2  89  ASP89      -0.2456
     48  OD2      -25.6280  -14.0400   22.1770 O.co2  89  ASP89      -0.2456
     49  N        -20.9910  -13.9870   20.6000 N.am   90  VAL90      -0.1980
     50  CA       -19.8050  -13.2950   21.1190 C.3    90  VAL90       0.1595
     51  C        -19.0490  -12.6160   19.9690 C.2    90  VAL90       0.2287
     52  O        -18.6560  -11.4400   20.0750 O.2    90  VAL90      -0.2864
     53  CB       -18.8910  -14.2600   21.9820 C.3    90  VAL90       0.0276
     54  CG1      -17.6080  -13.5440   22.5140 C.3    90  VAL90       0.0022
     55  CG2      -19.6980  -14.8340   23.1530 C.3    90  VAL90       0.0022
     56  N        -20.8350   -9.1340   18.4540 N.3    93  VAL93      -0.1245
     57  CA       -20.7390   -7.9610   19.3060 C.3    93  VAL93       0.1561
     58  C        -19.2900   -7.4500   19.4000 C.2    93  VAL93       0.2260
     59  O        -19.0450   -6.2410   19.3610 O.2    93  VAL93      -0.2867
     60  CB       -21.4420   -8.1470   20.7200 C.3    93  VAL93       0.0252
     61  CG1      -20.8520   -9.3170   21.5400 C.3    93  VAL93       0.0019
     62  CG2      -21.4030   -6.8520   21.5350 C.3    93  VAL93       0.0019
     63  N        -29.3880  -24.5980   26.6430 N.3   167  CYS167     -0.1221
     64  CA       -28.3170  -23.8230   26.0290 C.3   167  CYS167      0.1808
     65  C        -28.2310  -22.4640   26.6970 C.2   167  CYS167      0.2601
     66  O        -28.1490  -21.4370   26.0280 O.2   167  CYS167     -0.2717
     67  CB       -28.5480  -23.6720   24.5170 C.3   167  CYS167      0.0970
     68  SG       -27.1260  -22.9910   23.5820 S.3   167  CYS167     -0.0800
     69  N        -28.2910  -22.4570   28.0200 N.am  168  ASP168     -0.1959
     70  CA       -28.0680  -21.2370   28.7650 C.3   168  ASP168      0.1840
     71  C        -26.5730  -21.0430   28.7190 C.2   168  ASP168      0.2622
     72  O        -25.7850  -22.0130   28.7540 O.2   168  ASP168     -0.2715
     73  CB       -28.4950  -21.3730   30.2340 C.3   168  ASP168      0.1450
     74  CG       -29.9990  -21.1570   30.4680 C.2   168  ASP168      0.3671
     75  OD1      -30.8050  -21.1720   29.5100 O.co2 168  ASP168     -0.2456
     76  OD2      -30.3740  -20.9750   31.6540 O.co2 168  ASP168     -0.2456
     77  N        -26.1610  -19.7940   28.6560 N.am  169  PHE169     -0.1974
     78  CA       -24.7400  -19.5230   28.6300 C.3   169  PHE169      0.1639
     79  C        -24.2930  -19.3110   30.0760 C.2   169  PHE169      0.2290
     80  O        -24.1110  -18.1780   30.5460 O.2   169  PHE169     -0.2864
     81  CB       -24.4750  -18.3330   27.7060 C.3   169  PHE169      0.0560
     82  CG       -23.0460  -18.1100   27.3960 C.ar  169  PHE169     -0.0200
     83  CD1      -22.2160  -19.1730   27.0250 C.ar  169  PHE169     -0.0042
     84  CD2      -22.5250  -16.8100   27.4460 C.ar  169  PHE169     -0.0042
     85  CE1      -20.8700  -18.9520   26.7260 C.ar  169  PHE169     -0.0003
     86  CE2      -21.1950  -16.5590   27.1470 C.ar  169  PHE169     -0.0003
     87  CZ       -20.3540  -17.6380   26.7840 C.ar  169  PHE169     -0.0000
     88  N        -21.6610  -19.4530   32.6910 N.3   171  THR171     -0.1218
     89  CA       -20.2020  -19.3280   32.6090 C.3   171  THR171      0.1862
     90  C        -19.5620  -19.2330   33.9970 C.2   171  THR171      0.2287
     91  O        -20.2080  -18.8300   34.9560 O.2   171  THR171     -0.2866
     92  CB       -19.7900  -18.0480   31.7860 C.3   171  THR171      0.1770
     93  OG1      -20.0030  -16.8500   32.5590 O.3   171  THR171     -0.2211
     94  CG2      -20.5610  -17.9370   30.4470 C.3   171  THR171      0.0375
     95  N        -14.2780  -16.1440   33.1830 N.3   175  TYR175     -0.1227
     96  CA       -14.6590  -15.9240   31.7940 C.3   175  TYR175      0.1736
     97  C        -15.6160  -14.7370   31.6230 C.2   175  TYR175      0.2595
     98  O        -15.4880  -13.9580   30.6710 O.2   175  TYR175     -0.2718
     99  CB       -15.2700  -17.1820   31.1710 C.3   175  TYR175      0.0548
    100  CG       -15.7740  -16.9510   29.7590 C.ar  175  TYR175     -0.0200
    101  CD1      -17.0220  -16.3720   29.5280 C.ar  175  TYR175     -0.0009
    102  CD2      -14.9770  -17.2590   28.6610 C.ar  175  TYR175     -0.0009
    103  CE1      -17.4570  -16.1340   28.2400 C.ar  175  TYR175      0.0417
    104  CE2      -15.3950  -17.0280   27.3820 C.ar  175  TYR175      0.0417
    105  CZ       -16.6370  -16.4630   27.1700 C.ar  175  TYR175      0.1957
    106  OH       -17.0710  -16.2230   25.8860 O.3   175  TYR175     -0.2866
    107  N        -16.5740  -14.6020   32.5250 N.am  176  ALA176     -0.1980
    108  CA       -17.5400  -13.5120   32.4160 C.3   176  ALA176      0.1597
    109  C        -16.8190  -12.1790   32.4840 C.2   176  ALA176      0.2287
    110  O        -17.0490  -11.3200   31.6490 O.2   176  ALA176     -0.2864
    111  CB       -18.6170  -13.6100   33.5060 C.3   176  ALA176      0.0319
    112  N        -14.0370  -11.9650   29.2380 N.3   179  SER179     -0.1217
    113  CA       -14.6690  -11.7610   27.9370 C.3   179  SER179      0.1889
    114  C        -15.3970  -10.4230   27.8840 C.2   179  SER179      0.2288
    115  O        -15.4570   -9.8050   26.8270 O.2   179  SER179     -0.2866
    116  CB       -15.6300  -12.8970   27.6190 C.3   179  SER179      0.2089
    117  OG       -16.6740  -12.8790   28.5560 O.3   179  SER179     -0.2183
    118  N        -13.9190   -8.4130   25.0070 N.3   183  SER183     -0.1217
    119  CA       -14.8960   -8.0990   23.9780 C.3   183  SER183      0.1889
    120  C        -15.4950   -6.6880   24.0160 C.2   183  SER183      0.2288
    121  O        -15.8740   -6.1510   22.9720 O.2   183  SER183     -0.2866
    122  CB       -16.0340   -9.1120   23.9840 C.3   183  SER183      0.2089
    123  OG       -15.5730  -10.3170   23.4170 O.3   183  SER183     -0.2183
    124  N        -26.1050   -2.1820   24.6210 N.3   231  TRP231     -0.1241
    125  CA       -25.2640   -3.2940   25.0830 C.3   231  TRP231      0.1605
    126  C        -24.7040   -3.0720   26.4760 C.2   231  TRP231      0.2264
    127  O        -24.4550   -4.0320   27.1900 O.2   231  TRP231     -0.2867
    128  CB       -24.1380   -3.5680   24.1040 C.3   231  TRP231      0.0550
    129  CG       -24.5130   -4.3980   22.9460 C.ar  231  TRP231      0.0003
    130  CD1      -24.5770   -3.9990   21.6590 C.ar  231  TRP231      0.0946
    131  CD2      -24.8510   -5.8050   22.9530 C.ar  231  TRP231      0.0152
    132  NE1      -24.9410   -5.0580   20.8440 N.ar  231  TRP231     -0.2442
    133  CE2      -25.1140   -6.1770   21.6180 C.ar  231  TRP231      0.0810
    134  CE3      -24.9550   -6.7770   23.9610 C.ar  231  TRP231      0.0012
    135  CZ2      -25.4810   -7.4750   21.2580 C.ar  231  TRP231      0.0191
    136  CZ3      -25.3090   -8.0690   23.6110 C.ar  231  TRP231      0.0001
    137  CH2      -25.5750   -8.4120   22.2720 C.ar  231  TRP231      0.0015
    138  N        -26.6380   -4.8820   29.4580 N.3   234  PHE234     -0.1227
    139  CA       -26.2160   -6.2960   29.5440 C.3   234  PHE234      0.1736
    140  C        -24.8030   -6.5170   30.1480 C.2   234  PHE234      0.2595
    141  O        -24.6160   -7.3750   31.0070 O.2   234  PHE234     -0.2718
    142  CB       -26.2800   -6.9510   28.1790 C.3   234  PHE234      0.0547
    143  CG       -25.7240   -8.3350   28.1520 C.ar  234  PHE234     -0.0202
    144  CD1      -26.5450   -9.4260   28.4440 C.ar  234  PHE234     -0.0042
    145  CD2      -24.3750   -8.5630   27.8330 C.ar  234  PHE234     -0.0042
    146  CE1      -26.0460  -10.7410   28.4270 C.ar  234  PHE234     -0.0003
    147  CE2      -23.8600   -9.8620   27.7920 C.ar  234  PHE234     -0.0003
    148  CZ       -24.7080  -10.9650   28.0970 C.ar  234  PHE234     -0.0000
    149  N        -23.8110   -5.7560   29.6910 N.am  235  PHE235     -0.1976
    150  CA       -22.4500   -5.9380   30.2050 C.3   235  PHE235      0.1639
    151  C        -22.2570   -5.4320   31.6390 C.2   235  PHE235      0.2290
    152  O        -21.3790   -5.9400   32.3490 O.2   235  PHE235     -0.2864
    153  CB       -21.3880   -5.3730   29.2470 C.3   235  PHE235      0.0560
    154  CG       -21.1840   -6.2140   28.0300 C.ar  235  PHE235     -0.0200
    155  CD1      -20.4810   -7.4200   28.1160 C.ar  235  PHE235     -0.0042
    156  CD2      -21.7240   -5.8190   26.7900 C.ar  235  PHE235     -0.0042
    157  CE1      -20.3190   -8.2300   26.9880 C.ar  235  PHE235     -0.0003
    158  CE2      -21.5610   -6.6110   25.6450 C.ar  235  PHE235     -0.0003
    159  CZ       -20.8490   -7.8310   25.7510 C.ar  235  PHE235     -0.0000
    160  N        -23.8500   -8.2310   33.4910 N.3   238  ASN238     -0.1240
    161  CA       -22.9490   -9.3900   33.3750 C.3   238  ASN238      0.1653
    162  C        -21.8570   -9.4000   34.4850 C.2   238  ASN238      0.2266
    163  O        -21.5460  -10.4410   35.0450 O.2   238  ASN238     -0.2867
    164  CB       -22.3420   -9.4440   31.9570 C.3   238  ASN238      0.1155
    165  CG       -21.9590  -10.8620   31.5230 C.2   238  ASN238      0.2627
    166  OD1      -22.5950  -11.8290   31.9040 O.2   238  ASN238     -0.2716
    167  ND2      -20.9230  -10.9760   30.7010 N.am  238  ASN238     -0.0877
    168  N        -31.8280  -11.4980   30.5360 N.3   254  VAL254     -0.1245
    169  CA       -32.1650  -12.0070   29.2000 C.3   254  VAL254      0.1561
    170  C        -32.7630  -10.8990   28.3010 C.2   254  VAL254      0.2260
    171  O        -32.4260  -10.8030   27.1190 O.2   254  VAL254     -0.2867
    172  CB       -33.1300  -13.2270   29.2690 C.3   254  VAL254      0.0252
    173  CG1      -33.0570  -14.0270   28.0090 C.3   254  VAL254      0.0019
    174  CG2      -32.7530  -14.1280   30.3990 C.3   254  VAL254      0.0019
    175  N        -29.9790   -8.9030   27.0070 N.3   257  ASN257     -0.1225
    176  CA       -29.3110   -9.5500   25.8920 C.3   257  ASN257      0.1785
    177  C        -30.1050   -9.3080   24.6090 C.2   257  ASN257      0.2597
    178  O        -29.5230   -8.9360   23.5830 O.2   257  ASN257     -0.2718
    179  CB       -29.0460  -11.0420   26.1340 C.3   257  ASN257      0.1169
    180  CG       -27.7980  -11.5580   25.3970 C.2   257  ASN257      0.2627
    181  OD1      -27.3200  -12.6600   25.6600 O.2   257  ASN257     -0.2716
    182  ND2      -27.2720  -10.7690   24.4750 N.am  257  ASN257     -0.0877
    183  N        -31.4310   -9.4830   24.6740 N.am  258  TRP258     -0.1976
    184  CA       -32.3280   -9.1100   23.5520 C.3   258  TRP258      0.1640
    185  C        -32.2460   -7.6210   23.1440 C.2   258  TRP258      0.2290
    186  O        -32.2690   -7.2970   21.9590 O.2   258  TRP258     -0.2864
    187  CB       -33.7760   -9.5440   23.8270 C.3   258  TRP258      0.0576
    188  CG       -33.9180  -10.9790   23.6500 C.ar  258  TRP258      0.0006
    189  CD1      -33.8850  -11.9280   24.6300 C.ar  258  TRP258      0.0946
    190  CD2      -34.0510  -11.6790   22.4100 C.ar  258  TRP258      0.0152
    191  NE1      -33.9990  -13.1820   24.0720 N.ar  258  TRP258     -0.2442
    192  CE2      -34.1010  -13.0520   22.7100 C.ar  258  TRP258      0.0810
    193  CE3      -34.1140  -11.2780   21.0750 C.ar  258  TRP258      0.0012
    194  CZ2      -34.2230  -14.0280   21.7310 C.ar  258  TRP258      0.0191
    195  CZ3      -34.2190  -12.2520   20.0990 C.ar  258  TRP258      0.0001
    196  CH2      -34.2620  -13.6180   20.4310 C.ar  258  TRP258      0.0015
    197  N        -29.2790   -7.7200   20.8280 N.3   261  TYR261     -0.1241
    198  CA       -29.6710   -8.1910   19.5000 C.3   261  TYR261      0.1605
    199  C        -30.4460   -7.1330   18.6710 C.2   261  TYR261      0.2264
    200  O        -30.3240   -7.0860   17.4450 O.2   261  TYR261     -0.2867
    201  CB       -30.5410   -9.4330   19.6120 C.3   261  TYR261      0.0534
    202  CG       -29.8800  -10.6830   20.1890 C.ar  261  TYR261     -0.0201
    203  CD1      -28.4830  -10.7780   20.3700 C.ar  261  TYR261     -0.0009
    204  CD2      -30.6800  -11.7800   20.5610 C.ar  261  TYR261     -0.0009
    205  CE1      -27.9100  -11.9320   20.9140 C.ar  261  TYR261      0.0417
    206  CE2      -30.1260  -12.9180   21.0860 C.ar  261  TYR261      0.0417
    207  CZ       -28.7420  -13.0000   21.2620 C.ar  261  TYR261      0.1957
    208  OH       -28.2480  -14.1920   21.7640 O.3   261  TYR261     -0.2866
@<TRIPOS>BOND
     1   200   199    2
     2    20    21    1
     3    26    28   ar
     4    26    25   ar
     5    21    24    1
     6    21    22    1
     7    56    57    1
     8    24    25    1
     9    41    42    1
    10   199   198    1
    11     1     2    1
    12    28    29   ar
    13    25    27   ar
    14    23    22    2
    15    22    34   am
    16    57    58    1
    17    57    60    1
    18    59    58    2
    19    42    43    1
    20    42    45    1
    21   198   201    1
    22   198   197    1
    23   201   202    1
    24    44    43    2
    25    43    49   am
    26    51    52    2
    27    51    50    1
    28     2     3    1
    29     3     4    2
    30   195   196   ar
    31   195   193   ar
    32    29    27   ar
    33    29    31   ar
    34   202   203   ar
    35   202   204   ar
    36    27    30   ar
    37    34    35    1
    38   203   205   ar
    39   196   194   ar
    40   204   206   ar
    41    49    50    1
    42    45    46    1
    43    60    62    1
    44    60    61    1
    45   132   133   ar
    46   132   130   ar
    47    36    37    2
    48    36    35    1
    49   205   207   ar
    50     5     6    1
    51   193   190   ar
    52   206   207   ar
    53    50    53    1
    54    47    46   ar
    55   135   133   ar
    56   135   137   ar
    57   207   208    1
    58    31    33   ar
    59    46    48   ar
    60    35    38    1
    61    30    32   ar
    62   133   131   ar
    63   130   129   ar
    64   194   192   ar
    65   186   185    2
    66    53    54    1
    67    53    55    1
    68   137   136   ar
    69     6     9    1
    70     6     7    1
    71   190   192   ar
    72   190   188   ar
    73    33    32   ar
    74    38    39    1
    75    38    40    1
    76   192   191   ar
    77     9    10    1
    78    13     7   am
    79    13    14    1
    80   129   131   ar
    81   129   128    1
    82   131   134   ar
    83   121   120    2
    84    17    18    1
    85    17    14    1
    86    17    19    1
    87   185   184    1
    88     7     8    2
    89    15    14    1
    90    15    16    2
    91   123   122    1
    92   184   187    1
    93   184   183    1
    94    68    67    1
    95   178   177    2
    96   136   134   ar
    97   188   187    1
    98   188   189   ar
    99   119   122    1
   100   119   120    1
   101   119   118    1
   102   191   189   ar
   103   128   125    1
   104    10    12    1
   105    10    11    1
   106   182   180   am
   107    67    64    1
   108   177   183   am
   109   177   176    1
   110   124   125    1
   111   125   126    1
   112   180   181    2
   113   180   179    1
   114   158   159   ar
   115   158   156   ar
   116   159   157   ar
   117   106   105    1
   118   176   179    1
   119   176   175    1
   120    66    65    2
   121    64    63    1
   122    64    65    1
   123   126   127    2
   124    65    69   am
   125    85    87   ar
   126    85    83   ar
   127    87    86   ar
   128   156   154   ar
   129   115   114    2
   130   157   155   ar
   131    83    82   ar
   132   171   170    2
   133    86    84   ar
   134   105   104   ar
   135   105   103   ar
   136   104   102   ar
   137    82    84   ar
   138    82    81    1
   139   116   113    1
   140   116   117    1
   141    81    78    1
   142   147   145   ar
   143   147   148   ar
   144   145   143   ar
   145   114   113    1
   146   113   112    1
   147   173   172    1
   148    69    70    1
   149   154   155   ar
   150   154   153    1
   151   148   146   ar
   152   143   142    1
   153   143   144   ar
   154   142   139    1
   155   103   101   ar
   156   170   169    1
   157   146   144   ar
   158    78    77    1
   159    78    79    1
   160    77    71   am
   161   102   100   ar
   162    71    72    2
   163    71    70    1
   164    70    73    1
   165   169   172    1
   166   169   168    1
   167   153   150    1
   168   172   174    1
   169   138   139    1
   170    75    74   ar
   171   101   100   ar
   172   139   140    1
   173   149   140   am
   174   149   150    1
   175   100    99    1
   176    79    80    2
   177   140   141    2
   178   150   151    1
   179    73    74    1
   180    94    92    1
   181    74    76   ar
   182    98    97    2
   183   167   165   am
   184    99    96    1
   185   165   166    2
   186   165   164    1
   187    97    96    1
   188    97   107   am
   189   151   152    2
   190   110   109    2
   191    92    93    1
   192    92    89    1
   193    96    95    1
   194   164   161    1
   195   108   109    1
   196   108   107    1
   197   108   111    1
   198    89    88    1
   199    89    90    1
   200   161   160    1
   201   161   162    1
   202    90    91    2
   203   162   163    2
