@<TRIPOS>MOLECULE
tmp/2y00A00.pdb
 116 106 0 0 0
SMALL
GASTEIGER

@<TRIPOS>ATOM
      1  N        -15.3280   -3.3640   17.8350 N.3    98  GLU98      -0.1245
      2  CA       -13.9890   -3.1590   17.2470 C.3    98  GLU98       0.1567
      3  C        -14.0580   -2.3530   15.9450 C.2    98  GLU98       0.2260
      4  O        -13.2580   -1.4450   15.7180 O.2    98  GLU98      -0.2867
      5  CB       -13.2390   -4.4830   17.0430 C.3    98  GLU98       0.0388
      6  CG       -12.7510   -5.1220   18.3360 C.3    98  GLU98       0.1160
      7  CD       -12.0030   -6.4570   18.1310 C.2    98  GLU98       0.3649
      8  OE1      -11.4170   -6.7010   17.0550 O.co2  98  GLU98      -0.2457
      9  OE2      -11.9920   -7.2850   19.0610 O.co2  98  GLU98      -0.2457
     10  N        -14.5340    1.2810   16.7430 N.3   101  CYS101     -0.1221
     11  CA       -13.2400    1.8930   17.0830 C.3   101  CYS101      0.1808
     12  C        -12.4390    2.2970   15.8650 C.2   101  CYS101      0.2601
     13  O        -11.9050    3.4100   15.8070 O.2   101  CYS101     -0.2717
     14  CB       -12.3820    0.9740   17.9210 C.3   101  CYS101      0.0970
     15  SG       -12.8370    1.0420   19.5860 S.3   101  CYS101     -0.0800
     16  N        -12.3420    1.3770   14.9130 N.am  102  VAL102     -0.1979
     17  CA       -11.6940    1.6750   13.6560 C.3   102  VAL102      0.1595
     18  C        -12.3530    2.8920   12.9830 C.2   102  VAL102      0.2287
     19  O        -11.6520    3.7910   12.5260 O.2   102  VAL102     -0.2864
     20  CB       -11.6820    0.4480   12.7310 C.3   102  VAL102      0.0276
     21  CG1      -11.3880    0.8570   11.2880 C.3   102  VAL102      0.0022
     22  CG2      -10.6810   -0.5830   13.2450 C.3   102  VAL102      0.0022
     23  N        -11.2500    5.9340   14.8000 N.3   105  ILE105     -0.1245
     24  CA        -9.8360    6.2160   14.5160 C.3   105  ILE105      0.1561
     25  C         -9.6500    6.7620   13.0920 C.2   105  ILE105      0.2260
     26  O         -8.8530    7.6870   12.8810 O.2   105  ILE105     -0.2867
     27  CB        -8.9140    4.9800   14.7410 C.3   105  ILE105      0.0252
     28  CG1       -8.9520    4.5560   16.2050 C.3   105  ILE105      0.0019
     29  CG2       -7.4500    5.2760   14.2890 C.3   105  ILE105      0.0019
     30  CD1       -8.3900    3.1960   16.4510 C.3   105  ILE105      0.0001
     31  N         -5.4950   -1.1310    2.2130 N.3   125  ARG125     -0.1245
     32  CA        -5.3420   -1.0490    3.6580 C.3   125  ARG125      0.1563
     33  C         -6.6690   -1.1810    4.4090 C.2   125  ARG125      0.2260
     34  O         -6.7520   -1.9480    5.3780 O.2   125  ARG125     -0.2867
     35  CB        -4.5430    0.1910    4.0540 C.3   125  ARG125      0.0307
     36  CG        -3.1230    0.0980    3.4780 C.3   125  ARG125      0.0489
     37  CD        -2.0750    0.9390    4.2100 C.3   125  ARG125      0.2205
     38  NE        -0.7590    0.7620    3.5910 N.pl3 125  ARG125     -0.0865
     39  CZ        -0.1250    1.6830    2.8750 C.cat 125  ARG125      0.5346
     40  NH1       -0.6640    2.8780    2.6860 N.pl3 125  ARG125      0.1354
     41  NH2        1.0550    1.4080    2.3500 N.pl3 125  ARG125      0.1354
     42  N         -7.3900   -4.6900    4.7650 N.3   128  VAL128     -0.1231
     43  CA        -6.5490   -5.3610    5.7340 C.3   128  VAL128      0.1692
     44  C         -7.0430   -5.0110    7.1370 C.2   128  VAL128      0.2591
     45  O         -7.1440   -5.8790    8.0090 O.2   128  VAL128     -0.2718
     46  CB        -5.0410   -5.0340    5.5580 C.3   128  VAL128      0.0266
     47  CG1       -4.2360   -5.4920    6.7970 C.3   128  VAL128      0.0020
     48  CG2       -4.4970   -5.6820    4.2810 C.3   128  VAL128      0.0020
     49  N         -7.3960   -3.7490    7.3450 N.am  129  ILE129     -0.1980
     50  CA        -7.9470   -3.3280    8.6380 C.3   129  ILE129      0.1595
     51  C         -9.2170   -4.1180    9.0080 C.2   129  ILE129      0.2287
     52  O         -9.3430   -4.5950   10.1400 O.2   129  ILE129     -0.2864
     53  CB        -8.2270   -1.8300    8.6480 C.3   129  ILE129      0.0276
     54  CG1       -6.8910   -1.0810    8.6560 C.3   129  ILE129      0.0022
     55  CG2       -9.1690   -1.4440    9.8080 C.3   129  ILE129      0.0022
     56  CD1       -6.9930    0.3540    8.1890 C.3   129  ILE129      0.0001
     57  N         -8.3610   -7.7790    9.7830 N.3   132  THR132     -0.1203
     58  CA        -7.6650   -7.8160   11.0470 C.3   132  THR132      0.1994
     59  C         -8.6570   -7.7910   12.1960 C.2   132  THR132      0.2617
     60  O         -8.5240   -8.5850   13.1330 O.2   132  THR132     -0.2717
     61  CB        -6.6320   -6.6700   11.1590 C.3   132  THR132      0.1784
     62  OG1       -5.6490   -6.8540   10.1330 O.3   132  THR132     -0.2211
     63  CG2       -5.9530   -6.6560   12.5500 C.3   132  THR132      0.0376
     64  N         -9.6640   -6.9160   12.0970 N.am  133  VAL133     -0.1979
     65  CA       -10.7060   -6.8310   13.1150 C.3   133  VAL133      0.1595
     66  C        -11.4760   -8.1440   13.2500 C.2   133  VAL133      0.2287
     67  O        -11.6710   -8.6300   14.3540 O.2   133  VAL133     -0.2864
     68  CB       -11.6860   -5.6610   12.8710 C.3   133  VAL133      0.0276
     69  CG1      -13.0080   -5.8890   13.6240 C.3   133  VAL133      0.0022
     70  CG2      -11.0510   -4.3380   13.2900 C.3   133  VAL133      0.0022
     71  N         -9.0870  -10.8540   14.9690 N.3   136  ILE136     -0.1245
     72  CA        -9.0060  -10.6480   16.4140 C.3   136  ILE136      0.1561
     73  C        -10.3180  -11.0720   17.0630 C.2   136  ILE136      0.2260
     74  O        -10.3150  -11.7750   18.0830 O.2   136  ILE136     -0.2867
     75  CB        -8.7050   -9.1800   16.7830 C.3   136  ILE136      0.0252
     76  CG1       -7.4210   -8.7060   16.1180 C.3   136  ILE136      0.0019
     77  CG2       -8.5810   -9.0270   18.2800 C.3   136  ILE136      0.0019
     78  CD1       -7.2170   -7.2310   16.1920 C.3   136  ILE136      0.0001
     79  N        -10.7840  -14.0270   19.8360 N.3   140  VAL140     -0.1245
     80  CA       -11.2810  -13.7330   21.1690 C.3   140  VAL140      0.1561
     81  C        -12.5880  -14.4800   21.4780 C.2   140  VAL140      0.2260
     82  O        -12.8870  -14.7280   22.6500 O.2   140  VAL140     -0.2867
     83  CB       -11.4050  -12.1960   21.2990 C.3   140  VAL140      0.0252
     84  CG1      -12.5670  -11.7430   22.1710 C.3   140  VAL140      0.0019
     85  CG2      -10.0870  -11.6230   21.7560 C.3   140  VAL140      0.0019
     86  N        -12.4800   -7.9150   27.4550 N.3   182  ILE182     -0.1245
     87  CA       -11.7890   -8.0840   26.1910 C.3   182  ILE182      0.1561
     88  C        -12.7250   -7.8430   24.9890 C.2   182  ILE182      0.2260
     89  O        -12.3770   -7.1250   24.0760 O.2   182  ILE182     -0.2867
     90  CB       -11.0280   -9.4350   26.1410 C.3   182  ILE182      0.0252
     91  CG1       -9.7480   -9.3210   26.9760 C.3   182  ILE182      0.0019
     92  CG2      -10.6590   -9.8080   24.7200 C.3   182  ILE182      0.0019
     93  CD1       -9.2940  -10.6090   27.6110 C.3   182  ILE182      0.0001
     94  N        -12.8450   -2.6820   27.0470 N.3   186  ILE186     -0.1231
     95  CA       -11.6380   -2.0650   26.4960 C.3   186  ILE186      0.1678
     96  C        -11.9310   -1.3510   25.1620 C.2   186  ILE186      0.2434
     97  O        -11.6190   -0.1720   25.0410 O.2   186  ILE186     -0.2733
     98  CB       -10.4250   -3.0400   26.4080 C.3   186  ILE186      0.0265
     99  CG1       -9.9710   -3.4600   27.8110 C.3   186  ILE186      0.0019
    100  CG2       -9.2550   -2.4060   25.6370 C.3   186  ILE186      0.0020
    101  CD1       -8.8630   -4.5260   27.8320 C.3   186  ILE186      0.0001
    102  N        -12.5480   -2.0460   24.1790 N.am  187  PRO187     -0.2729
    103  CA       -12.9370   -1.2960   22.9820 C.3   187  PRO187      0.1401
    104  C        -13.8850   -0.1110   23.2790 C.2   187  PRO187      0.2269
    105  O        -13.7640    0.9500   22.6460 O.2   187  PRO187     -0.2865
    106  CB       -13.6390   -2.3500   22.0960 C.3   187  PRO187      0.0296
    107  CG       -13.1510   -3.6480   22.5690 C.3   187  PRO187      0.0237
    108  CD       -12.7570   -3.4960   24.0120 C.3   187  PRO187      0.0939
    109  N        -11.7450    2.8680   24.4230 N.3   190  ILE190     -0.1245
    110  CA       -11.0360    3.4140   23.2760 C.3   190  ILE190      0.1561
    111  C        -11.9770    4.2330   22.3930 C.2   190  ILE190      0.2260
    112  O        -11.6800    5.3850   22.0810 O.2   190  ILE190     -0.2867
    113  CB       -10.2810    2.3270   22.4600 C.3   190  ILE190      0.0252
    114  CG1       -9.2240    1.6590   23.3460 C.3   190  ILE190      0.0019
    115  CG2       -9.6250    2.9440   21.2010 C.3   190  ILE190      0.0019
    116  CD1       -8.4790    0.5320   22.6690 C.3   190  ILE190      0.0001
@<TRIPOS>BOND
     1    31    32    1
     2    41    39    1
     3    40    39    1
     4    39    38    2
     5    36    35    1
     6    36    37    1
     7    38    37    1
     8    32    35    1
     9    32    33    1
    10    48    46    1
    11    33    34    2
    12    42    43    1
    13    46    43    1
    14    46    47    1
    15    43    44    1
    16    44    49   am
    17    44    45    2
    18    49    50    1
    19    56    54    1
    20    50    53    1
    21    50    51    1
    22    53    54    1
    23    53    55    1
    24    51    52    2
    25    57    58    1
    26    62    61    1
    27    58    61    1
    28    58    59    1
    29    61    63    1
    30    21    20    1
    31    64    59   am
    32    64    65    1
    33    59    60    2
    34    19    18    2
    35    20    22    1
    36    20    17    1
    37    68    65    1
    38    68    70    1
    39    68    69    1
    40    26    25    2
    41    18    17    1
    42    25    24    1
    43    65    66    1
    44    66    67    2
    45    17    16    1
    46    29    27    1
    47    24    27    1
    48    24    23    1
    49    27    28    1
    50    16    12   am
    51    71    72    1
    52     4     3    2
    53    13    12    2
    54    12    11    1
    55     3     2    1
    56    76    78    1
    57    76    75    1
    58    28    30    1
    59    72    75    1
    60    72    73    1
    61    10    11    1
    62    75    77    1
    63     5     2    1
    64     5     6    1
    65     8     7   ar
    66    73    74    2
    67    11    14    1
    68     2     1    1
    69    14    15    1
    70     7     6    1
    71     7     9   ar
    72    79    80    1
    73    80    83    1
    74    80    81    1
    75   115   113    1
    76    83    85    1
    77    83    84    1
    78    81    82    2
    79   112   111    2
    80   106   107    1
    81   106   103    1
    82   111   110    1
    83   113   110    1
    84   113   114    1
    85   107   108    1
    86   105   104    2
    87   116   114    1
    88   103   104    1
    89   103   102    1
    90   110   109    1
    91   108   102    1
    92    89    88    2
    93   102    96   am
    94    92    90    1
    95    88    87    1
    96    97    96    2
    97    96    95    1
    98   100    98    1
    99    90    87    1
   100    90    91    1
   101    87    86    1
   102    98    95    1
   103    98    99    1
   104    95    94    1
   105    91    93    1
   106    99   101    1
