@<TRIPOS>MOLECULE
tmp/2y00B09.pdb
 97 94 0 0 0
SMALL
GASTEIGER

@<TRIPOS>ATOM
      1  N         34.9270  -15.3820   17.8520 N.3     8  TRP8       -0.1241
      2  CA        33.6090  -14.8330   18.0990 C.3     8  TRP8        0.1605
      3  C         32.6120  -15.9030   18.5600 C.2     8  TRP8        0.2264
      4  O         31.8310  -15.6800   19.4880 O.2     8  TRP8       -0.2867
      5  CB        33.1090  -14.0920   16.8640 C.3     8  TRP8        0.0550
      6  CG        31.9480  -13.2270   17.1690 C.ar    8  TRP8        0.0003
      7  CD1       31.9610  -11.9420   17.6930 C.ar    8  TRP8        0.0946
      8  CD2       30.5910  -13.5760   16.9950 C.ar    8  TRP8        0.0152
      9  NE1       30.6690  -11.4790   17.8460 N.ar    8  TRP8       -0.2442
     10  CE2       29.8060  -12.4590   17.4270 C.ar    8  TRP8        0.0810
     11  CE3       29.9500  -14.7230   16.5150 C.ar    8  TRP8        0.0012
     12  CZ2       28.4170  -12.4660   17.3870 C.ar    8  TRP8        0.0191
     13  CZ3       28.5940  -14.7340   16.4740 C.ar    8  TRP8        0.0001
     14  CH2       27.8260  -13.6080   16.9090 C.ar    8  TRP8        0.0015
     15  N         31.0810  -15.7820   22.3940 N.3    12  MET12      -0.1245
     16  CA        29.6560  -15.4850   22.4140 C.3    12  MET12       0.1570
     17  C         28.9210  -16.6620   23.0640 C.2    12  MET12       0.2261
     18  O         27.9550  -16.4550   23.7910 O.2    12  MET12      -0.2867
     19  CB        29.1640  -15.1900   20.9950 C.3    12  MET12       0.0387
     20  CG        28.0300  -14.1840   20.8930 C.3    12  MET12       0.0595
     21  SD        28.2460  -12.5780   21.6990 S.3    12  MET12      -0.1393
     22  CE        29.9570  -12.1930   21.3770 C.3    12  MET12       0.0692
     23  N         29.3700  -15.9810   26.8360 N.3    15  LEU15      -0.1231
     24  CA        28.4500  -14.9260   27.2590 C.3    15  LEU15       0.1693
     25  C         27.0320  -15.5220   27.3690 C.2    15  LEU15       0.2591
     26  O         26.3890  -15.4400   28.4330 O.2    15  LEU15      -0.2718
     27  CB        28.5040  -13.7510   26.2760 C.3    15  LEU15       0.0284
     28  CG        27.7550  -12.4360   26.5440 C.3    15  LEU15       0.0019
     29  CD1       28.0520  -11.8520   27.9360 C.3    15  LEU15       0.0001
     30  CD2       28.0750  -11.4060   25.4570 C.3    15  LEU15       0.0001
     31  N         26.5800  -16.1720   26.2910 N.am   16  MET16      -0.1979
     32  CA        25.2350  -16.7410   26.2560 C.3    16  MET16       0.1605
     33  C         24.9870  -17.7550   27.3680 C.2    16  MET16       0.2287
     34  O         23.9340  -17.7470   27.9910 O.2    16  MET16      -0.2864
     35  CB        24.8840  -17.3350   24.8850 C.3    16  MET16       0.0413
     36  CG        24.7230  -16.3200   23.7460 C.3    16  MET16       0.0598
     37  SD        23.6320  -14.8890   24.0310 S.3    16  MET16      -0.1393
     38  CE        22.2990  -15.7300   24.8350 C.3    16  MET16       0.0692
     39  N         24.4330  -15.7200   30.5260 N.3    19  VAL19      -0.1245
     40  CA        23.0680  -15.1580   30.5640 C.3    19  VAL19       0.1561
     41  C         22.0420  -16.2130   31.0130 C.2    19  VAL19       0.2260
     42  O         21.2320  -15.9580   31.9010 O.2    19  VAL19      -0.2867
     43  CB        22.6770  -14.5070   29.2180 C.3    19  VAL19       0.0252
     44  CG1       21.2810  -13.9200   29.2860 C.3    19  VAL19       0.0019
     45  CG2       23.6680  -13.3990   28.8940 C.3    19  VAL19       0.0019
     46  N         22.5050  -16.5830   17.2620 N.3    70  VAL70      -0.1245
     47  CA        23.4710  -15.4780   17.3380 C.3    70  VAL70       0.1561
     48  C         24.8910  -16.0150   17.1420 C.2    70  VAL70       0.2260
     49  O         25.6900  -15.4310   16.4290 O.2    70  VAL70      -0.2867
     50  CB        23.3480  -14.6960   18.6870 C.3    70  VAL70       0.0252
     51  CG1       24.5970  -13.8820   18.9890 C.3    70  VAL70       0.0019
     52  CG2       22.1330  -13.7880   18.6580 C.3    70  VAL70       0.0019
     53  N         20.6170   -4.6660   13.1700 N.3   263  TRP263     -0.1241
     54  CA        21.3260   -5.1090   14.3710 C.3   263  TRP263      0.1605
     55  C         20.7270   -4.4860   15.6420 C.2   263  TRP263      0.2264
     56  O         20.7420   -5.1010   16.7200 O.2   263  TRP263     -0.2867
     57  CB        22.8360   -4.8250   14.2530 C.3   263  TRP263      0.0550
     58  CG        23.1740   -3.3510   14.1810 C.ar  263  TRP263      0.0003
     59  CD1       23.2740   -2.5980   13.0550 C.ar  263  TRP263      0.0946
     60  CD2       23.4360   -2.4600   15.2890 C.ar  263  TRP263      0.0152
     61  NE1       23.5800   -1.3000   13.3810 N.ar  263  TRP263     -0.2442
     62  CE2       23.6850   -1.1850   14.7420 C.ar  263  TRP263      0.0810
     63  CE3       23.4930   -2.6220   16.6840 C.ar  263  TRP263      0.0012
     64  CZ2       23.9720   -0.0660   15.5380 C.ar  263  TRP263      0.0191
     65  CZ3       23.7780   -1.5110   17.4770 C.ar  263  TRP263      0.0001
     66  CH2       24.0120   -0.2500   16.9000 C.ar  263  TRP263      0.0015
     67  N         17.4810   -6.3250   16.7710 N.3   266  VAL266     -0.1231
     68  CA        17.9540   -7.5160   17.4710 C.3   266  VAL266      0.1692
     69  C         18.5140   -7.2300   18.8550 C.2   266  VAL266      0.2591
     70  O         18.2410   -7.9720   19.7960 O.2   266  VAL266     -0.2718
     71  CB        19.0100   -8.2260   16.6380 C.3   266  VAL266      0.0266
     72  CG1       19.6490   -9.3870   17.4310 C.3   266  VAL266      0.0020
     73  CG2       18.3610   -8.6990   15.3440 C.3   266  VAL266      0.0020
     74  N         19.3010   -6.1570   18.9620 N.am  267  ALA267     -0.1980
     75  CA        19.8720   -5.7210   20.2330 C.3   267  ALA267      0.1597
     76  C         18.7660   -5.4580   21.2320 C.2   267  ALA267      0.2287
     77  O         18.7420   -6.0390   22.3190 O.2   267  ALA267     -0.2864
     78  CB        20.7200   -4.4410   20.0360 C.3   267  ALA267      0.0319
     79  N         17.1800   -8.3910   22.5900 N.3   270  TRP270     -0.1241
     80  CA        18.0560   -8.9840   23.6160 C.3   270  TRP270      0.1605
     81  C         18.0300   -8.1680   24.9120 C.2   270  TRP270      0.2264
     82  O         18.1610   -8.7270   26.0050 O.2   270  TRP270     -0.2867
     83  CB        19.4880   -9.1570   23.1160 C.3   270  TRP270      0.0550
     84  CG        19.6420  -10.3490   22.3230 C.ar  270  TRP270      0.0003
     85  CD1       19.6160  -10.4450   20.9570 C.ar  270  TRP270      0.0946
     86  CD2       19.8200  -11.6660   22.8190 C.ar  270  TRP270      0.0152
     87  NE1       19.7770  -11.7640   20.5720 N.ar  270  TRP270     -0.2442
     88  CE2       19.9070  -12.5310   21.6990 C.ar  270  TRP270      0.0810
     89  CE3       19.9150  -12.2080   24.1020 C.ar  270  TRP270      0.0012
     90  CZ2       20.0900  -13.9090   21.8270 C.ar  270  TRP270      0.0191
     91  CZ3       20.0700  -13.5970   24.2300 C.ar  270  TRP270      0.0001
     92  CH2       20.1610  -14.4280   23.0940 C.ar  270  TRP270      0.0015
     93  N         17.0080   -9.8540   28.4720 N.3   274  ALA274     -0.1245
     94  CA        17.8970   -9.6580   29.6210 C.3   274  ALA274      0.1562
     95  C         17.1270   -9.2660   30.8920 C.2   274  ALA274      0.2260
     96  O         17.5930   -9.5010   32.0110 O.2   274  ALA274     -0.2867
     97  CB        18.9560   -8.6250   29.2910 C.3   274  ALA274      0.0290
@<TRIPOS>BOND
     1    59    61   ar
     2    59    58   ar
     3    53    54    1
     4    61    62   ar
     5    58    57    1
     6    58    60   ar
     7    57    54    1
     8    54    55    1
     9    62    60   ar
    10    62    64   ar
    11    60    63   ar
    12    73    71    1
    13    64    66   ar
    14    55    56    2
    15    49    48    2
    16    13    11   ar
    17    13    14   ar
    18    11     8   ar
    19    71    72    1
    20    71    68    1
    21    63    65   ar
    22    67    68    1
    23     5     6    1
    24     5     2    1
    25    66    65   ar
    26    14    12   ar
    27     8     6   ar
    28     8    10   ar
    29    48    47    1
    30     6     7   ar
    31    46    47    1
    32    47    50    1
    33    12    10   ar
    34    10     9   ar
    35    68    69    1
    36     7     9   ar
    37     1     2    1
    38     2     3    1
    39     3     4    2
    40    52    50    1
    41    50    51    1
    42    69    74   am
    43    69    70    2
    44    74    75    1
    45    78    75    1
    46    75    76    1
    47    87    85   ar
    48    87    88   ar
    49    20    19    1
    50    20    21    1
    51    85    84   ar
    52    19    16    1
    53    76    77    2
    54    22    21    1
    55    88    90   ar
    56    88    86   ar
    57    90    92   ar
    58    84    86   ar
    59    84    83    1
    60    15    16    1
    61    16    17    1
    62    79    80    1
    63    86    89   ar
    64    17    18    2
    65    92    91   ar
    66    83    80    1
    67    80    81    1
    68    36    37    1
    69    36    35    1
    70    37    38    1
    71    89    91   ar
    72    35    32    1
    73    81    82    2
    74    30    28    1
    75    32    31    1
    76    32    33    1
    77    27    28    1
    78    27    24    1
    79    31    25   am
    80    28    29    1
    81    23    24    1
    82    24    25    1
    83    33    34    2
    84    25    26    2
    85    93    94    1
    86    45    43    1
    87    43    44    1
    88    43    40    1
    89    97    94    1
    90    94    95    1
    91    39    40    1
    92    40    41    1
    93    95    96    2
    94    41    42    2
