@<TRIPOS>MOLECULE
tmp/2y00A01.pdb
 138 127 0 0 0
SMALL
GASTEIGER

@<TRIPOS>ATOM
      1  N        -24.3680    0.4800   -0.8780 N.3    34  ILE34      -0.1231
      2  CA       -22.9470    0.8180   -0.8870 C.3    34  ILE34       0.1692
      3  C        -22.2650    0.0510   -2.0030 C.2    34  ILE34       0.2592
      4  O        -21.2930    0.5170   -2.5850 O.2    34  ILE34      -0.2718
      5  CB       -22.3090    0.5050    0.4790 C.3    34  ILE34       0.0266
      6  CG1      -22.8640    1.4710    1.5380 C.3    34  ILE34       0.0019
      7  CG2      -20.7850    0.5620    0.4190 C.3    34  ILE34       0.0020
      8  CD1      -22.5920    1.0570    2.9840 C.3    34  ILE34       0.0001
      9  N        -22.7860   -1.1250   -2.3120 N.am   35  GLY35      -0.1957
     10  CA       -22.1650   -1.9610   -3.3150 C.3    35  GLY35       0.1869
     11  C        -22.5520   -1.5520   -4.7230 C.2    35  GLY35       0.2309
     12  O        -22.0590   -2.1300   -5.6790 O.2    35  GLY35      -0.2863
     13  N        -19.1110    4.5650   -2.1260 N.3    41  GLN41      -0.1245
     14  CA       -17.9660    3.6770   -1.9320 C.3    41  GLN41       0.1566
     15  C        -16.7100    4.3670   -1.3380 C.2    41  GLN41       0.2260
     16  O        -15.5830    4.0830   -1.7110 O.2    41  GLN41      -0.2867
     17  CB       -17.6760    2.9240   -3.2270 C.3    41  GLN41       0.0367
     18  CG       -18.8270    2.0310   -3.6020 C.3    41  GLN41       0.0905
     19  CD       -18.7560    1.4530   -4.9960 C.2    41  GLN41       0.2608
     20  OE1      -17.6800    1.1850   -5.5190 O.2    41  GLN41      -0.2717
     21  NE2      -19.9210    1.2230   -5.5940 N.am   41  GLN41      -0.0878
     22  N        -16.7110    1.3470    3.7930 N.3    46  LEU46      -0.1245
     23  CA       -16.2260   -0.0310    3.7810 C.3    46  LEU46       0.1561
     24  C        -16.3170   -0.5920    5.2090 C.2    46  LEU46       0.2260
     25  O        -16.7170   -1.7390    5.4150 O.2    46  LEU46      -0.2867
     26  CB       -14.8040   -0.1270    3.2240 C.3    46  LEU46       0.0270
     27  CG       -14.5810    0.0440    1.7220 C.3    46  LEU46       0.0019
     28  CD1      -13.0810   -0.1440    1.3860 C.3    46  LEU46       0.0001
     29  CD2      -15.4610   -0.9000    0.8940 C.3    46  LEU46       0.0001
     30  N        -19.9550   -1.2220    5.8550 N.3    49  THR49      -0.1203
     31  CA       -20.2720   -2.5270    5.2820 C.3    49  THR49       0.1994
     32  C        -19.8850   -3.6860    6.2260 C.2    49  THR49       0.2618
     33  O        -20.6330   -4.6480    6.3990 O.2    49  THR49      -0.2717
     34  CB       -19.6090   -2.6650    3.8900 C.3    49  THR49       0.1784
     35  OG1      -20.0750   -1.5870    3.0750 O.3    49  THR49      -0.2211
     36  CG2      -19.9400   -4.0190    3.2140 C.3    49  THR49       0.0376
     37  N        -18.7210   -3.5730    6.8450 N.am   50  SER50      -0.1951
     38  CA       -18.2700   -4.5570    7.8370 C.3    50  SER50       0.1924
     39  C        -19.2490   -4.6900    9.0220 C.2    50  SER50       0.2314
     40  O        -19.6140   -5.7930    9.4490 O.2    50  SER50      -0.2863
     41  CB       -16.8830   -4.1500    8.3430 C.3    50  SER50       0.2116
     42  OG       -16.4030   -5.0540    9.3190 O.3    50  SER50      -0.2180
     43  N        -22.4320   -6.3400    8.0260 N.3    53  CYS53      -0.1235
     44  CA       -22.2630   -7.7850    7.9560 C.3    53  CYS53       0.1677
     45  C        -22.4120   -8.4280    9.3290 C.2    53  CYS53       0.2270
     46  O        -23.0030   -9.5100    9.4650 O.2    53  CYS53      -0.2867
     47  CB       -20.9160   -8.1410    7.3570 C.3    53  CYS53       0.0956
     48  SG       -20.8170   -7.8270    5.5810 S.3    53  CYS53      -0.0801
     49  N        -25.4130  -11.0890   10.1800 N.3    57  VAL57      -0.1245
     50  CA       -25.1960  -12.4030   10.7810 C.3    57  VAL57       0.1561
     51  C        -26.1110  -12.5990   12.0150 C.2    57  VAL57       0.2260
     52  O        -26.6980  -13.6950   12.2050 O.2    57  VAL57      -0.2867
     53  CB       -23.6780  -12.6360   11.1230 C.3    57  VAL57       0.0252
     54  CG1      -23.4830  -13.8460   12.0540 C.3    57  VAL57       0.0019
     55  CG2      -22.8690  -12.7870    9.8380 C.3    57  VAL57       0.0019
     56  N        -28.5780  -15.7180   11.7510 N.3    61  LEU61      -0.1245
     57  CA       -28.2350  -16.8750   12.5880 C.3    61  LEU61       0.1561
     58  C        -28.5000  -16.6920   14.0860 C.2    61  LEU61       0.2260
     59  O        -29.2140  -17.4840   14.6900 O.2    61  LEU61      -0.2867
     60  CB       -26.7990  -17.3240   12.3420 C.3    61  LEU61       0.0270
     61  CG       -26.4950  -17.7020   10.8960 C.3    61  LEU61       0.0019
     62  CD1      -24.9750  -17.6880   10.6390 C.3    61  LEU61       0.0001
     63  CD2      -27.1230  -19.0480   10.5370 C.3    61  LEU61       0.0001
     64  N        -21.0480  -17.3050   17.7010 N.3    88  LEU88      -0.1245
     65  CA       -21.4610  -16.2970   16.7230 C.3    88  LEU88       0.1561
     66  C        -22.0280  -15.0900   17.4300 C.2    88  LEU88       0.2260
     67  O        -21.9020  -13.9600   16.9300 O.2    88  LEU88      -0.2867
     68  CB       -22.4700  -16.8560   15.7270 C.3    88  LEU88       0.0270
     69  CG       -21.9370  -17.9030   14.7510 C.3    88  LEU88       0.0019
     70  CD1      -23.0530  -18.3920   13.8660 C.3    88  LEU88       0.0001
     71  CD2      -20.7960  -17.3320   13.9200 C.3    88  LEU88       0.0001
     72  N        -18.8850  -13.3470   18.8630 N.3    91  LEU91      -0.1245
     73  CA       -18.2250  -12.8140   17.6680 C.3    91  LEU91       0.1561
     74  C        -18.7960  -11.4870   17.1830 C.2    91  LEU91       0.2260
     75  O        -18.0610  -10.5110   17.0150 O.2    91  LEU91      -0.2867
     76  CB       -18.2990  -13.8200   16.5170 C.3    91  LEU91       0.0270
     77  CG       -17.7040  -13.3100   15.2070 C.3    91  LEU91       0.0019
     78  CD1      -16.1700  -13.1490   15.3380 C.3    91  LEU91       0.0001
     79  CD2      -18.0230  -14.2610   14.0830 C.3    91  LEU91       0.0001
     80  N         -7.7380    1.6270   -0.3900 N.3   123  ARG123     -0.1245
     81  CA        -8.7050    0.5450   -0.3500 C.3   123  ARG123      0.1563
     82  C         -8.0420   -0.7370    0.1170 C.2   123  ARG123      0.2260
     83  O         -8.6570   -1.5050    0.8530 O.2   123  ARG123     -0.2867
     84  CB        -9.3920    0.3460   -1.7060 C.3   123  ARG123      0.0307
     85  CG        -9.9510    1.6440   -2.2820 C.3   123  ARG123      0.0489
     86  CD       -10.7660    1.4230   -3.5430 C.3   123  ARG123      0.2205
     87  NE       -12.1880    1.2450   -3.2510 N.pl3 123  ARG123     -0.0865
     88  CZ       -12.9690    2.1580   -2.6700 C.cat 123  ARG123      0.5346
     89  NH1      -12.4800    3.3360   -2.2830 N.pl3 123  ARG123      0.1354
     90  NH2      -14.2510    1.8810   -2.4610 N.pl3 123  ARG123      0.1354
     91  N         -9.2680   -2.8750    3.5010 N.3   127  LYS127     -0.1245
     92  CA        -9.4760   -4.3180    3.5300 C.3   127  LYS127      0.1561
     93  C         -8.6630   -5.0470    4.6090 C.2   127  LYS127      0.2260
     94  O         -9.1860   -5.9650    5.2590 O.2   127  LYS127     -0.2867
     95  CB        -9.1590   -4.9520    2.1850 C.3   127  LYS127      0.0271
     96  CG       -10.2980   -4.9230    1.2080 C.3   127  LYS127      0.0035
     97  CD        -9.8840   -5.5820   -0.1010 C.3   127  LYS127      0.0206
     98  CE        -9.3400   -6.9920    0.1450 C.3   127  LYS127      0.1093
     99  NZ        -9.0230   -7.7040   -1.1320 N.3   127  LYS127     -0.1314
    100  N        -10.1260   -4.2740    8.0450 N.3   130  ILE130     -0.1231
    101  CA       -11.3620   -5.0100    8.2610 C.3   130  ILE130      0.1692
    102  C        -11.0940   -6.4810    8.5960 C.2   130  ILE130      0.2592
    103  O        -11.6640   -7.0050    9.5590 O.2   130  ILE130     -0.2718
    104  CB       -12.3530   -4.8500    7.0750 C.3   130  ILE130      0.0266
    105  CG1      -13.0140   -3.4700    7.1190 C.3   130  ILE130      0.0019
    106  CG2      -13.4340   -5.9270    7.1190 C.3   130  ILE130      0.0020
    107  CD1      -13.6080   -2.9610    5.7730 C.3   130  ILE130      0.0001
    108  N        -10.2090   -7.1330    7.8480 N.am  131  CYS131     -0.1970
    109  CA        -9.9000   -8.5520    8.0900 C.3   131  CYS131      0.1712
    110  C         -9.1610   -8.7670    9.4020 C.2   131  CYS131      0.2296
    111  O         -9.3230   -9.8030   10.0590 O.2   131  CYS131     -0.2864
    112  CB        -9.0950   -9.1470    6.9430 C.3   131  CYS131      0.0983
    113  SG       -10.0090   -9.1420    5.3970 S.3   131  CYS131     -0.0798
    114  N        -11.9120   -8.7180   12.1380 N.3   134  TRP134     -0.1241
    115  CA       -12.5720  -10.0150   12.2040 C.3   134  TRP134      0.1605
    116  C        -11.6370  -11.1520   12.7280 C.2   134  TRP134      0.2264
    117  O        -12.1040  -12.0630   13.4190 O.2   134  TRP134     -0.2867
    118  CB       -13.2230  -10.3570   10.8600 C.3   134  TRP134      0.0550
    119  CG       -14.4730   -9.5440   10.6310 C.ar  134  TRP134      0.0003
    120  CD1      -14.5420   -8.3080   10.0800 C.ar  134  TRP134      0.0946
    121  CD2      -15.8220   -9.9080   10.9620 C.ar  134  TRP134      0.0152
    122  NE1      -15.8340   -7.8700   10.0440 N.ar  134  TRP134     -0.2442
    123  CE2      -16.6480   -8.8290   10.5790 C.ar  134  TRP134      0.0810
    124  CE3      -16.4130  -11.0370   11.5530 C.ar  134  TRP134      0.0012
    125  CZ2      -18.0520   -8.8430   10.7450 C.ar  134  TRP134      0.0191
    126  CZ3      -17.8040  -11.0460   11.7420 C.ar  134  TRP134      0.0001
    127  CH2      -18.6070   -9.9490   11.3310 C.ar  134  TRP134      0.0015
    128  N        -14.3480  -17.5200   19.3750 N.3   142  PHE142     -0.1241
    129  CA       -14.3450  -18.9730   19.1460 C.3   142  PHE142      0.1605
    130  C        -13.4780  -19.8220   20.0810 C.2   142  PHE142      0.2264
    131  O        -13.9420  -20.8450   20.5860 O.2   142  PHE142     -0.2867
    132  CB       -13.9770  -19.2950   17.6910 C.3   142  PHE142      0.0534
    133  CG       -15.1030  -19.0970   16.7380 C.ar  142  PHE142     -0.0203
    134  CD1      -16.1030  -20.0670   16.5930 C.ar  142  PHE142     -0.0042
    135  CD2      -15.1830  -17.9390   15.9920 C.ar  142  PHE142     -0.0042
    136  CE1      -17.1760  -19.8780   15.7050 C.ar  142  PHE142     -0.0003
    137  CE2      -16.2500  -17.7350   15.1050 C.ar  142  PHE142     -0.0003
    138  CZ       -17.2520  -18.7140   14.9680 C.ar  142  PHE142     -0.0000
@<TRIPOS>BOND
     1    12    11    2
     2    21    19   am
     3    20    19    2
     4    19    18    1
     5    11    10    1
     6    18    17    1
     7    86    87    1
     8    86    85    1
     9    10     9    1
    10    87    88    2
    11    17    14    1
    12    88    90    1
    13    88    89    1
    14     4     3    2
    15     9     3   am
    16    85    84    1
    17    13    14    1
    18     3     2    1
    19    14    15    1
    20    16    15    2
    21    84    81    1
    22    99    98    1
    23     2     1    1
    24     2     5    1
    25    80    81    1
    26    81    82    1
    27    97    98    1
    28    97    96    1
    29    82    83    2
    30     7     5    1
    31     5     6    1
    32    29    27    1
    33    96    95    1
    34    28    27    1
    35     6     8    1
    36    27    26    1
    37    95    92    1
    38    35    34    1
    39    36    34    1
    40    26    23    1
    41    91    92    1
    42    92    93    1
    43    23    22    1
    44    23    24    1
    45    34    31    1
    46    93    94    2
    47    24    25    2
    48    31    30    1
    49    31    32    1
    50   113   112    1
    51    48    47    1
    52   107   105    1
    53    32    33    2
    54    32    37   am
    55    37    38    1
    56   112   109    1
    57   104   106    1
    58   104   105    1
    59   104   101    1
    60    47    44    1
    61    38    41    1
    62    38    39    1
    63   108   109    1
    64   108   102   am
    65    44    43    1
    66    44    45    1
    67   100   101    1
    68   109   110    1
    69   101   102    1
    70    41    42    1
    71   102   103    2
    72    39    40    2
    73    45    46    2
    74   110   111    2
    75    55    53    1
    76   122   120   ar
    77   122   123   ar
    78   120   119   ar
    79    49    50    1
    80    63    61    1
    81   123   125   ar
    82   123   121   ar
    83   119   118    1
    84   119   121   ar
    85    62    61    1
    86   125   127   ar
    87    50    53    1
    88    50    51    1
    89   118   115    1
    90    61    60    1
    91   121   124   ar
    92    53    54    1
    93   127   126   ar
    94   124   126   ar
    95    56    57    1
    96    51    52    2
    97   114   115    1
    98   115   116    1
    99    60    57    1
   100    57    58    1
   101   116   117    2
   102    70    69    1
   103    71    69    1
   104    79    77    1
   105    58    59    2
   106    69    68    1
   107   138   137   ar
   108   138   136   ar
   109   137   135   ar
   110    77    78    1
   111    77    76    1
   112   136   134   ar
   113    68    65    1
   114   135   133   ar
   115    76    73    1
   116   134   133   ar
   117    65    66    1
   118    65    64    1
   119   133   132    1
   120    67    66    2
   121    75    74    2
   122    74    73    1
   123    73    72    1
   124   132   129    1
   125   129   128    1
   126   129   130    1
   127   130   131    2
