@<TRIPOS>MOLECULE
tmp/2y00B07.pdb
 117 108 0 0 0
SMALL
GASTEIGER

@<TRIPOS>ATOM
      1  N         -0.2470   -4.7550   40.1020 N.3   104  ALA104     -0.1245
      2  CA        -0.6890   -3.3780   40.3320 C.3   104  ALA104      0.1562
      3  C         -2.1540   -3.3020   40.7980 C.2   104  ALA104      0.2260
      4  O         -2.4670   -2.5100   41.6810 O.2   104  ALA104     -0.2867
      5  CB        -0.4650   -2.5210   39.1050 C.3   104  ALA104      0.0290
      6  N         -2.4990   -4.5560   44.5320 N.3   107  ARG107     -0.1245
      7  CA        -2.0480   -3.5590   45.4970 C.3   107  ARG107      0.1563
      8  C         -3.0020   -2.3920   45.5860 C.2   107  ARG107      0.2260
      9  O         -3.2280   -1.8470   46.6600 O.2   107  ARG107     -0.2867
     10  CB        -0.6450   -3.0490   45.1470 C.3   107  ARG107      0.0307
     11  CG         0.4660   -4.0930   45.2140 C.3   107  ARG107      0.0489
     12  CD         0.6970   -4.6130   46.6320 C.3   107  ARG107      0.2205
     13  NE        -0.2030   -5.7070   46.9700 N.pl3 107  ARG107     -0.0865
     14  CZ        -0.6220   -5.9620   48.2020 C.cat 107  ARG107      0.5346
     15  NH1       -0.2260   -5.1980   49.2130 N.pl3 107  ARG107      0.1354
     16  NH2       -1.4580   -6.9630   48.4180 N.pl3 107  ARG107      0.1354
     17  N         -0.5800    1.9820   38.6300 N.3   195  ALA195     -0.1245
     18  CA         0.5580    2.2360   39.5060 C.3   195  ALA195      0.1562
     19  C          0.5660    3.6730   40.0220 C.2   195  ALA195      0.2260
     20  O          1.0220    3.9230   41.1420 O.2   195  ALA195     -0.2867
     21  CB         1.8790    1.9070   38.8180 C.3   195  ALA195      0.0290
     22  N         -2.0940    3.8220   42.9650 N.3   198  VAL198     -0.1231
     23  CA        -1.3990    3.2270   44.1090 C.3   198  VAL198      0.1692
     24  C         -0.4170    4.2270   44.7080 C.2   198  VAL198      0.2592
     25  O         -0.2690    4.3100   45.9270 O.2   198  VAL198     -0.2718
     26  CB        -0.6550    1.9160   43.7310 C.3   198  VAL198      0.0266
     27  CG1        0.1400    1.3840   44.9190 C.3   198  VAL198      0.0020
     28  CG2       -1.6490    0.8610   43.2230 C.3   198  VAL198      0.0020
     29  N          0.2290    5.0040   43.8480 N.am  199  TYR199     -0.1976
     30  CA         1.2110    5.9860   44.2960 C.3   199  TYR199      0.1639
     31  C          0.5890    7.1810   45.0320 C.2   199  TYR199      0.2290
     32  O          1.0950    7.5920   46.0850 O.2   199  TYR199     -0.2864
     33  CB         2.0280    6.4750   43.1100 C.3   199  TYR199      0.0560
     34  CG         3.0890    7.4840   43.4500 C.ar  199  TYR199     -0.0198
     35  CD1        4.3110    7.0800   43.9890 C.ar  199  TYR199     -0.0009
     36  CD2        2.8880    8.8390   43.2010 C.ar  199  TYR199     -0.0009
     37  CE1        5.3020    7.9990   44.2840 C.ar  199  TYR199      0.0417
     38  CE2        3.8750    9.7750   43.4950 C.ar  199  TYR199      0.0417
     39  CZ         5.0770    9.3450   44.0350 C.ar  199  TYR199      0.1957
     40  OH         6.0560   10.2560   44.3260 O.3   199  TYR199     -0.2866
     41  N         -0.7330    5.8530   48.2530 N.3   202  ALA202     -0.1231
     42  CA         0.4100    5.6870   49.1540 C.3   202  ALA202      0.1694
     43  C          0.8410    7.0120   49.8000 C.2   202  ALA202      0.2591
     44  O          0.9980    7.0900   51.0130 O.2   202  ALA202     -0.2718
     45  CB         1.5750    5.0530   48.4290 C.3   202  ALA202      0.0304
     46  N          1.0160    8.0470   48.9820 N.am  203  LYS203     -0.1980
     47  CA         1.5140    9.3390   49.4540 C.3   203  LYS203      0.1596
     48  C          0.5070   10.0420   50.3640 C.2   203  LYS203      0.2287
     49  O          0.8890   10.7930   51.2640 O.2   203  LYS203     -0.2864
     50  CB         1.8940   10.2460   48.2790 C.3   203  LYS203      0.0298
     51  CG         3.3530   10.6920   48.3350 C.3   203  LYS203      0.0038
     52  CD         3.5840   12.0250   47.6530 C.3   203  LYS203      0.0206
     53  CE         4.9260   12.6020   48.0800 C.3   203  LYS203      0.1093
     54  NZ         4.8840   14.0930   48.1400 N.3   203  LYS203     -0.1314
     55  N          0.7570    8.7090   54.0040 N.3   206  ILE206     -0.1245
     56  CA         1.7860    9.3560   54.8210 C.3   206  ILE206      0.1561
     57  C          1.3630   10.7340   55.3750 C.2   206  ILE206      0.2260
     58  O          2.1970   11.5310   55.8020 O.2   206  ILE206     -0.2867
     59  CB         3.1950    9.3880   54.1300 C.3   206  ILE206      0.0252
     60  CG1        3.1660   10.1320   52.7840 C.3   206  ILE206      0.0019
     61  CG2        3.7600    7.9750   53.9960 C.3   206  ILE206      0.0019
     62  CD1        3.5880   11.6220   52.8400 C.3   206  ILE206      0.0001
     63  N          6.3390    1.9610   56.7280 N.3   223  MET223     -0.1245
     64  CA         7.6080    2.0820   56.0170 C.3   223  MET223      0.1570
     65  C          7.9970    0.7670   55.3400 C.2   223  MET223      0.2261
     66  O          8.4010    0.7710   54.1770 O.2   223  MET223     -0.2867
     67  CB         8.7240    2.5630   56.9520 C.3   223  MET223      0.0387
     68  CG         8.7190    4.0750   57.2240 C.3   223  MET223      0.0595
     69  SD         9.0260    5.1260   55.7780 S.3   223  MET223     -0.1393
     70  CE        10.7730    4.8160   55.4560 C.3   223  MET223      0.0692
     71  N          5.7340    0.3410   52.3220 N.3   226  HIS226     -0.1241
     72  CA         6.1150    1.2400   51.2470 C.3   226  HIS226      0.1621
     73  C          7.4320    0.8330   50.6160 C.2   226  HIS226      0.2264
     74  O          7.6530    1.1140   49.4470 O.2   226  HIS226     -0.2867
     75  CB         6.1410    2.6930   51.7380 C.3   226  HIS226      0.0745
     76  CG         4.7790    3.2990   51.8790 C.ar  226  HIS226      0.0817
     77  ND1        4.5600    4.6590   51.8510 N.ar  226  HIS226     -0.2268
     78  CD2        3.5560    2.7250   52.0150 C.ar  226  HIS226      0.1154
     79  CE1        3.2650    4.8980   51.9900 C.ar  226  HIS226      0.1986
     80  NE2        2.6330    3.7410   52.0860 N.ar  226  HIS226     -0.2212
     81  N          6.3160   -1.8570   48.1840 N.3   229  LEU229     -0.1231
     82  CA         5.6850   -1.1810   47.0540 C.3   229  LEU229      0.1693
     83  C          6.7230   -0.6170   46.0730 C.2   229  LEU229      0.2591
     84  O          6.5880   -0.7610   44.8470 O.2   229  LEU229     -0.2718
     85  CB         4.7820   -0.0420   47.5280 C.3   229  LEU229      0.0284
     86  CG         3.3460   -0.3230   47.9500 C.3   229  LEU229      0.0019
     87  CD1        2.6010    1.0080   48.0650 C.3   229  LEU229      0.0001
     88  CD2        2.6220   -1.2470   46.9900 C.3   229  LEU229      0.0001
     89  N          7.7530    0.0260   46.6180 N.am  230  LYS230     -0.1980
     90  CA         8.8130    0.5970   45.8110 C.3   230  LYS230      0.1596
     91  C          9.5790   -0.4950   45.0650 C.2   230  LYS230      0.2287
     92  O         10.0010   -0.2960   43.9280 O.2   230  LYS230     -0.2864
     93  CB         9.7520    1.4090   46.6970 C.3   230  LYS230      0.0298
     94  CG        10.4700    2.5230   45.9650 C.3   230  LYS230      0.0038
     95  CD        11.5940    3.0980   46.8210 C.3   230  LYS230      0.0206
     96  CE        12.4310    4.1090   46.0370 C.3   230  LYS230      0.1093
     97  NZ        13.8030    4.2420   46.6180 N.3   230  LYS230     -0.1314
     98  N          8.1350   -3.2260   43.9630 N.3   232  LEU232     -0.1231
     99  CA         7.2110   -3.5800   42.8930 C.3   232  LEU232      0.1693
    100  C          7.1710   -2.5220   41.7810 C.2   232  LEU232      0.2592
    101  O          7.0540   -2.8640   40.5910 O.2   232  LEU232     -0.2718
    102  CB         5.8190   -3.8670   43.4390 C.3   232  LEU232      0.0284
    103  CG         5.7030   -5.0590   44.3910 C.3   232  LEU232      0.0019
    104  CD1        4.3160   -5.1220   45.0260 C.3   232  LEU232      0.0001
    105  CD2        6.0220   -6.3680   43.6820 C.3   232  LEU232      0.0001
    106  N          7.2970   -1.2510   42.1580 N.am  233  GLY233     -0.1957
    107  CA         7.4470   -0.1760   41.1860 C.3   233  GLY233      0.1869
    108  C          8.7220   -0.2970   40.3700 C.2   233  GLY233      0.2309
    109  O          8.7090   -0.0160   39.1670 O.2   233  GLY233     -0.2863
    110  N          8.3660   -2.9720   37.8060 N.3   236  MET236     -0.1245
    111  CA         7.5490   -2.4130   36.7260 C.3   236  MET236      0.1570
    112  C          8.2810   -1.4420   35.8170 C.2   236  MET236      0.2261
    113  O          8.0410   -1.4180   34.6070 O.2   236  MET236     -0.2867
    114  CB         6.3040   -1.7430   37.2850 C.3   236  MET236      0.0387
    115  CG         5.2760   -2.7340   37.8120 C.3   236  MET236      0.0595
    116  SD         3.8990   -1.9160   38.6440 S.3   236  MET236     -0.1393
    117  CE         3.3220   -3.2420   39.6780 C.3   236  MET236      0.0692
@<TRIPOS>BOND
     1   113   112    2
     2   112   111    1
     3   111   114    1
     4   111   110    1
     5   114   115    1
     6   115   116    1
     7    17    18    1
     8   116   117    1
     9    21    18    1
    10     5     2    1
    11   109   108    2
    12    18    19    1
    13    19    20    2
    14     1     2    1
    15     2     3    1
    16   108   107    1
    17   101   100    2
    18     3     4    2
    19   107   106    1
    20   100   106   am
    21   100    99    1
    22    99   102    1
    23    99    98    1
    24    22    23    1
    25    33    34    1
    26    33    30    1
    27    36    34   ar
    28    36    38   ar
    29    28    26    1
    30   102   103    1
    31    34    35   ar
    32    38    39   ar
    33   105   103    1
    34    26    23    1
    35    26    27    1
    36    29    30    1
    37    29    24   am
    38    92    91    2
    39    35    37   ar
    40    39    37   ar
    41    39    40    1
    42    23    24    1
    43    30    31    1
    44   103   104    1
    45     6     7    1
    46    24    25    2
    47    84    83    2
    48    31    32    2
    49    91    90    1
    50    10    11    1
    51    10     7    1
    52    11    12    1
    53     7     8    1
    54     8     9    2
    55    90    89    1
    56    90    93    1
    57    94    93    1
    58    94    95    1
    59    96    97    1
    60    96    95    1
    61    83    89   am
    62    83    82    1
    63    12    13    1
    64    13    14    2
    65    88    86    1
    66    82    85    1
    67    82    81    1
    68    85    86    1
    69    52    53    1
    70    52    51    1
    71    86    87    1
    72    53    54    1
    73    14    16    1
    74    14    15    1
    75    41    42    1
    76    50    51    1
    77    50    47    1
    78    45    42    1
    79    46    47    1
    80    46    43   am
    81    42    43    1
    82    74    73    2
    83    47    48    1
    84    43    44    2
    85    48    49    2
    86    73    72    1
    87    72    75    1
    88    72    71    1
    89    75    76    1
    90    77    76   ar
    91    77    79   ar
    92    76    78   ar
    93    79    80   ar
    94    78    80   ar
    95    60    62    1
    96    60    59    1
    97    61    59    1
    98    55    56    1
    99    59    56    1
   100    66    65    2
   101    56    57    1
   102    65    64    1
   103    57    58    2
   104    70    69    1
   105    69    68    1
   106    64    63    1
   107    64    67    1
   108    67    68    1
