@<TRIPOS>MOLECULE
tmp/2y00A04.pdb
 129 124 0 0 0
SMALL
GASTEIGER

@<TRIPOS>ATOM
      1  N        -49.3330  -17.5730   23.2200 N.3     8  TRP8       -0.1241
      2  CA       -48.0050  -17.0450   23.4160 C.3     8  TRP8        0.1605
      3  C        -47.0280  -17.5230   22.3130 C.2     8  TRP8        0.2264
      4  O        -46.2760  -16.7170   21.7750 O.2     8  TRP8       -0.2867
      5  CB       -47.5210  -17.3790   24.8380 C.3     8  TRP8        0.0550
      6  CG       -46.3440  -16.5730   25.2230 C.ar    8  TRP8        0.0003
      7  CD1      -46.3330  -15.2800   25.7250 C.ar    8  TRP8        0.0946
      8  CD2      -44.9870  -16.9770   25.1150 C.ar    8  TRP8        0.0152
      9  NE1      -45.0330  -14.8710   25.9400 N.ar    8  TRP8       -0.2442
     10  CE2      -44.1860  -15.8900   25.5730 C.ar    8  TRP8        0.0810
     11  CE3      -44.3670  -18.1460   24.6730 C.ar    8  TRP8        0.0012
     12  CZ2      -42.7950  -15.9460   25.5950 C.ar    8  TRP8        0.0191
     13  CZ3      -43.0050  -18.2050   24.7010 C.ar    8  TRP8        0.0001
     14  CH2      -42.2230  -17.1030   25.1540 C.ar    8  TRP8        0.0015
     15  N        -45.4490  -14.8170   19.6540 N.3    12  MET12      -0.1245
     16  CA       -44.0250  -14.6150   19.8320 C.3    12  MET12       0.1570
     17  C        -43.3010  -15.0420   18.5610 C.2    12  MET12       0.2261
     18  O        -42.2960  -14.4380   18.2060 O.2    12  MET12      -0.2867
     19  CB       -43.5260  -15.3630   21.0770 C.3    12  MET12       0.0387
     20  CG       -42.3560  -14.7230   21.8230 C.3    12  MET12       0.0595
     21  SD       -42.5400  -13.0280   22.4660 S.3    12  MET12      -0.1393
     22  CE       -44.2640  -12.9430   22.8650 C.3    12  MET12       0.0692
     23  N        -43.6690  -11.8740   16.2610 N.3    15  LEU15      -0.1231
     24  CA       -42.7840  -10.8000   16.6860 C.3    15  LEU15       0.1693
     25  C        -41.3410  -11.1500   16.2650 C.2    15  LEU15       0.2591
     26  O        -40.6560  -10.3450   15.6440 O.2    15  LEU15      -0.2718
     27  CB       -42.8890  -10.6090   18.2090 C.3    15  LEU15       0.0284
     28  CG       -42.0880   -9.5290   18.9520 C.3    15  LEU15       0.0019
     29  CD1      -42.3700   -8.1380   18.3930 C.3    15  LEU15       0.0001
     30  CD2      -42.4380   -9.5610   20.4150 C.3    15  LEU15       0.0001
     31  N        -40.9050  -12.3690   16.5690 N.am   16  MET16      -0.1979
     32  CA       -39.5780  -12.8020   16.1980 C.3    16  MET16       0.1605
     33  C        -39.3650  -12.7170   14.6930 C.2    16  MET16       0.2287
     34  O        -38.3310  -12.2040   14.2550 O.2    16  MET16      -0.2864
     35  CB       -39.2720  -14.2190   16.7080 C.3    16  MET16       0.0413
     36  CG       -39.1530  -14.3520   18.2210 C.3    16  MET16       0.0598
     37  SD       -38.0520  -13.1930   19.0340 S.3    16  MET16      -0.1393
     38  CE       -36.6290  -13.2810   17.9690 C.3    16  MET16       0.0692
     39  N        -38.7680   -9.1500   13.7930 N.3    19  VAL19      -0.1245
     40  CA       -37.4140   -8.7250   14.1690 C.3    19  VAL19       0.1561
     41  C        -36.3790   -9.2010   13.1500 C.2    19  VAL19       0.2260
     42  O        -35.5310   -8.4280   12.7290 O.2    19  VAL19      -0.2867
     43  CB       -37.0240   -9.1990   15.5850 C.3    19  VAL19       0.0252
     44  CG1      -35.6540   -8.6870   15.9540 C.3    19  VAL19       0.0019
     45  CG2      -38.0090   -8.6660   16.5780 C.3    19  VAL19       0.0019
     46  N        -36.6990   -7.2030    9.8370 N.3    22  LEU22      -0.1245
     47  CA       -36.2830   -5.8190    9.9400 C.3    22  LEU22       0.1561
     48  C        -34.7460   -5.7230    9.9600 C.2    22  LEU22       0.2260
     49  O        -34.1770   -4.8220    9.3490 O.2    22  LEU22      -0.2867
     50  CB       -36.9190   -5.1920   11.1850 C.3    22  LEU22       0.0270
     51  CG       -36.7830   -3.7000   11.5070 C.3    22  LEU22       0.0019
     52  CD1      -37.3840   -2.7870   10.4110 C.3    22  LEU22       0.0001
     53  CD2      -37.3660   -3.3640   12.9020 C.3    22  LEU22       0.0001
     54  N        -35.6980  -20.6080   20.9570 N.3    69  LEU69      -0.1231
     55  CA       -35.4610  -20.9080   22.3450 C.3    69  LEU69       0.1693
     56  C        -36.4820  -20.1730   23.1870 C.2    69  LEU69       0.2591
     57  O        -36.9780  -20.7130   24.1830 O.2    69  LEU69      -0.2718
     58  CB       -34.0250  -20.5450   22.7300 C.3    69  LEU69       0.0284
     59  CG       -33.5130  -20.8720   24.1320 C.3    69  LEU69       0.0019
     60  CD1      -33.3790  -22.3760   24.3600 C.3    69  LEU69       0.0001
     61  CD2      -32.1940  -20.1690   24.3430 C.3    69  LEU69       0.0001
     62  N        -36.8030  -18.9510   22.7780 N.am   70  VAL70      -0.1980
     63  CA       -37.8160  -18.1350   23.4610 C.3    70  VAL70       0.1595
     64  C        -39.2450  -18.6480   23.2290 C.2    70  VAL70       0.2287
     65  O        -40.0650  -18.6550   24.1260 O.2    70  VAL70      -0.2864
     66  CB       -37.7210  -16.6410   23.0620 C.3    70  VAL70       0.0276
     67  CG1      -38.9970  -15.8770   23.4470 C.3    70  VAL70       0.0022
     68  CG2      -36.4820  -15.9940   23.7130 C.3    70  VAL70       0.0022
     69  N        -35.0780  -12.2840   34.6410 N.3   251  TRP251     -0.1241
     70  CA       -35.8270  -11.9660   33.3930 C.3   251  TRP251      0.1605
     71  C        -35.1700  -10.7580   32.6760 C.2   251  TRP251      0.2264
     72  O        -35.0890  -10.7250   31.4390 O.2   251  TRP251     -0.2867
     73  CB       -37.3420  -11.7190   33.6580 C.3   251  TRP251      0.0550
     74  CG       -37.6150  -10.5000   34.5110 C.ar  251  TRP251      0.0003
     75  CD1      -37.7040  -10.4650   35.8750 C.ar  251  TRP251      0.0946
     76  CD2      -37.7760   -9.1450   34.0640 C.ar  251  TRP251      0.0152
     77  NE1      -37.9190   -9.1710   36.3070 N.ar  251  TRP251     -0.2442
     78  CE2      -37.9600   -8.3400   35.2190 C.ar  251  TRP251      0.0810
     79  CE3      -37.7760   -8.5320   32.8090 C.ar  251  TRP251      0.0012
     80  CZ2      -38.1470   -6.9480   35.1530 C.ar  251  TRP251      0.0191
     81  CZ3      -37.9620   -7.1470   32.7360 C.ar  251  TRP251      0.0001
     82  CH2      -38.1460   -6.3700   33.9070 C.ar  251  TRP251      0.0015
     83  N        -31.8280  -11.4980   30.5360 N.3   254  VAL254     -0.1231
     84  CA       -32.1650  -12.0070   29.2000 C.3   254  VAL254      0.1692
     85  C        -32.7630  -10.8990   28.3010 C.2   254  VAL254      0.2591
     86  O        -32.4260  -10.8030   27.1190 O.2   254  VAL254     -0.2718
     87  CB       -33.1300  -13.2270   29.2690 C.3   254  VAL254      0.0266
     88  CG1      -33.0570  -14.0270   28.0090 C.3   254  VAL254      0.0020
     89  CG2      -32.7530  -14.1280   30.3990 C.3   254  VAL254      0.0020
     90  N        -33.6290  -10.0570   28.8650 N.am  255  ALA255     -0.1980
     91  CA       -34.1360   -8.8810   28.1510 C.3   255  ALA255      0.1597
     92  C        -32.9840   -7.9940   27.6670 C.2   255  ALA255      0.2287
     93  O        -32.9550   -7.5780   26.4990 O.2   255  ALA255     -0.2864
     94  CB       -35.1230   -8.0720   29.0190 C.3   255  ALA255      0.0319
     95  N        -31.4310   -9.4830   24.6740 N.3   258  TRP258     -0.1227
     96  CA       -32.3280   -9.1100   23.5520 C.3   258  TRP258      0.1737
     97  C        -32.2460   -7.6210   23.1440 C.2   258  TRP258      0.2595
     98  O        -32.2690   -7.2970   21.9590 O.2   258  TRP258     -0.2718
     99  CB       -33.7760   -9.5440   23.8270 C.3   258  TRP258      0.0564
    100  CG       -33.9180  -10.9790   23.6500 C.ar  258  TRP258      0.0003
    101  CD1      -33.8850  -11.9280   24.6300 C.ar  258  TRP258      0.0946
    102  CD2      -34.0510  -11.6790   22.4100 C.ar  258  TRP258      0.0152
    103  NE1      -33.9990  -13.1820   24.0720 N.ar  258  TRP258     -0.2442
    104  CE2      -34.1010  -13.0520   22.7100 C.ar  258  TRP258      0.0810
    105  CE3      -34.1140  -11.2780   21.0750 C.ar  258  TRP258      0.0012
    106  CZ2      -34.2230  -14.0280   21.7310 C.ar  258  TRP258      0.0191
    107  CZ3      -34.2190  -12.2520   20.0990 C.ar  258  TRP258      0.0001
    108  CH2      -34.2620  -13.6180   20.4310 C.ar  258  TRP258      0.0015
    109  N        -32.1110   -6.7170   24.1090 N.am  259  LEU259     -0.1980
    110  CA       -31.8460   -5.3180   23.7500 C.3   259  LEU259      0.1596
    111  C        -30.6100   -5.2170   22.8530 C.2   259  LEU259      0.2287
    112  O        -30.5880   -4.4310   21.9010 O.2   259  LEU259     -0.2864
    113  CB       -31.6840   -4.4400   24.9690 C.3   259  LEU259      0.0297
    114  CG       -31.5050   -2.9430   24.7060 C.3   259  LEU259      0.0022
    115  CD1      -32.5520   -2.3600   23.7470 C.3   259  LEU259      0.0001
    116  CD2      -31.5410   -2.1950   26.0460 C.3   259  LEU259      0.0001
    117  N        -31.2350   -6.2930   19.3480 N.3   262  ALA262     -0.1245
    118  CA       -32.1700   -5.3770   18.6670 C.3   262  ALA262      0.1562
    119  C        -31.4410   -4.2220   18.0090 C.2   262  ALA262      0.2260
    120  O        -31.9370   -3.6090   17.0630 O.2   262  ALA262     -0.2867
    121  CB       -33.2180   -4.8460   19.6550 C.3   262  ALA262      0.0290
    122  N        -31.2220   -1.2260   14.1450 N.3   266  MET266     -0.1245
    123  CA       -31.2320    0.2130   14.2850 C.3   266  MET266      0.1570
    124  C        -30.4130    1.0170   13.2810 C.2   266  MET266      0.2261
    125  O        -30.8260    2.1110   12.9020 O.2   266  MET266     -0.2867
    126  CB       -30.8710    0.5990   15.7180 C.3   266  MET266      0.0387
    127  CG       -31.8930    0.0490   16.7210 C.3   266  MET266      0.0595
    128  SD       -31.4760    0.3950   18.4450 S.3   266  MET266     -0.1393
    129  CE       -32.4000   -0.9280   19.2380 C.3   266  MET266      0.0692
@<TRIPOS>BOND
     1    49    48    2
     2    46    47    1
     3    47    48    1
     4    47    50    1
     5    52    51    1
     6    50    51    1
     7    51    53    1
     8    42    41    2
     9   125   124    2
    10    41    40    1
    11   124   123    1
    12    39    40    1
    13   122   123    1
    14    40    43    1
    15    34    33    2
    16   123   126    1
    17    33    32    1
    18    43    44    1
    19    43    45    1
    20    26    25    2
    21   126   127    1
    22    32    31    1
    23    32    35    1
    24    23    24    1
    25    25    31   am
    26    25    24    1
    27    24    27    1
    28    35    36    1
    29   127   128    1
    30   120   119    2
    31    38    37    1
    32   119   118    1
    33    18    17    2
    34    27    28    1
    35    36    37    1
    36    29    28    1
    37   128   129    1
    38    17    16    1
    39   118   117    1
    40   118   121    1
    41    28    30    1
    42    15    16    1
    43    16    19    1
    44   107   108   ar
    45   107   105   ar
    46   108   106   ar
    47    54    55    1
    48   105   102   ar
    49    19    20    1
    50   106   104   ar
    51     4     3    2
    52    20    21    1
    53   112   111    2
    54    98    97    2
    55     3     2    1
    56    55    58    1
    57    55    56    1
    58   102   104   ar
    59   102   100   ar
    60    21    22    1
    61   104   103   ar
    62    58    59    1
    63    62    56   am
    64    62    63    1
    65   111   110    1
    66    66    67    1
    67    66    63    1
    68    66    68    1
    69    97    96    1
    70    97   109   am
    71    56    57    2
    72     1     2    1
    73    64    63    1
    74    64    65    2
    75     2     5    1
    76    96    99    1
    77    96    95    1
    78   100    99    1
    79   100   101   ar
    80   115   114    1
    81   110   109    1
    82   110   113    1
    83   103   101   ar
    84    59    61    1
    85    59    60    1
    86    11    13   ar
    87    11     8   ar
    88    13    14   ar
    89   114   113    1
    90   114   116    1
    91     5     6    1
    92     8     6   ar
    93     8    10   ar
    94    14    12   ar
    95     6     7   ar
    96    10    12   ar
    97    10     9   ar
    98     7     9   ar
    99    93    92    2
   100    86    85    2
   101    92    91    1
   102    88    87    1
   103    91    90    1
   104    91    94    1
   105    85    90   am
   106    85    84    1
   107    84    87    1
   108    84    83    1
   109    87    89    1
   110    72    71    2
   111    71    70    1
   112    81    79   ar
   113    81    82   ar
   114    79    76   ar
   115    70    73    1
   116    70    69    1
   117    73    74    1
   118    82    80   ar
   119    76    74   ar
   120    76    78   ar
   121    74    75   ar
   122    80    78   ar
   123    78    77   ar
   124    75    77   ar
