@<TRIPOS>MOLECULE
tmp/2y02A06.pdb
 214 211 0 0 0
SMALL
GASTEIGER

@<TRIPOS>ATOM
      1  N        -35.2990  -21.2170   20.7700 N.3    69  LEU69      -0.1245
      2  CA       -35.1300  -21.5090   22.1770 C.3    69  LEU69       0.1561
      3  C        -36.2060  -20.8090   23.0140 C.2    69  LEU69       0.2260
      4  O        -36.7790  -21.4060   23.9220 O.2    69  LEU69      -0.2867
      5  CB       -33.7140  -21.1210   22.6270 C.3    69  LEU69       0.0270
      6  CG       -33.2520  -21.3640   24.0690 C.3    69  LEU69       0.0019
      7  CD1      -33.2500  -22.8630   24.3960 C.3    69  LEU69       0.0001
      8  CD2      -31.8780  -20.7240   24.3050 C.3    69  LEU69       0.0001
      9  N        -23.5170  -21.7920   17.8990 N.3    85  TRP85      -0.1227
     10  CA       -24.4150  -20.6360   18.0810 C.3    85  TRP85       0.1737
     11  C        -23.8680  -19.6130   19.0820 C.2    85  TRP85       0.2596
     12  O        -23.9240  -18.4030   18.8630 O.2    85  TRP85      -0.2718
     13  CB       -25.8230  -21.0930   18.4990 C.3    85  TRP85       0.0564
     14  CG       -26.7500  -19.9820   18.8950 C.ar   85  TRP85       0.0003
     15  CD1      -27.1840  -18.9480   18.1010 C.ar   85  TRP85       0.0946
     16  CD2      -27.3640  -19.7870   20.1710 C.ar   85  TRP85       0.0152
     17  NE1      -28.0360  -18.1270   18.8060 N.ar   85  TRP85      -0.2442
     18  CE2      -28.1660  -18.6160   20.0790 C.ar   85  TRP85       0.0810
     19  CE3      -27.3270  -20.4880   21.3820 C.ar   85  TRP85       0.0012
     20  CZ2      -28.9210  -18.1250   21.1590 C.ar   85  TRP85       0.0191
     21  CZ3      -28.0770  -20.0000   22.4660 C.ar   85  TRP85       0.0001
     22  CH2      -28.8750  -18.8290   22.3340 C.ar   85  TRP85       0.0015
     23  N        -23.3560  -20.1160   20.1910 N.am   86  THR86      -0.1953
     24  CA       -22.8020  -19.2970   21.2570 C.3    86  THR86       0.1897
     25  C        -21.5730  -18.5270   20.7660 C.2    86  THR86       0.2313
     26  O        -21.3950  -17.3530   21.1010 O.2    86  THR86      -0.2863
     27  CB       -22.4090  -20.2040   22.4480 C.3    86  THR86       0.1794
     28  OG1      -23.6020  -20.7430   23.0350 O.3    86  THR86      -0.2208
     29  CG2      -21.6380  -19.4280   23.4810 C.3    86  THR86       0.0378
     30  N        -22.6000  -15.7060   18.3780 N.3    89  ASP89      -0.1225
     31  CA       -23.1120  -14.6460   19.2410 C.3    89  ASP89       0.1805
     32  C        -21.9470  -13.7750   19.7500 C.2    89  ASP89       0.2597
     33  O        -21.8940  -12.5830   19.4400 O.2    89  ASP89      -0.2718
     34  CB       -23.8870  -15.2860   20.3920 C.3    89  ASP89       0.1424
     35  CG       -24.5390  -14.2830   21.3110 C.2    89  ASP89       0.3668
     36  OD1      -24.0780  -13.1250   21.4370 O.co2  89  ASP89      -0.2456
     37  OD2      -25.5340  -14.6860   21.9420 O.co2  89  ASP89      -0.2456
     38  N        -21.0060  -14.3710   20.4980 N.am   90  VAL90      -0.1980
     39  CA       -19.8520  -13.6330   21.0210 C.3    90  VAL90       0.1595
     40  C        -19.0920  -12.9920   19.8680 C.2    90  VAL90       0.2287
     41  O        -18.6940  -11.8400   19.9600 O.2    90  VAL90      -0.2864
     42  CB       -18.9030  -14.5160   21.9020 C.3    90  VAL90       0.0276
     43  CG1      -17.7370  -13.6880   22.4650 C.3    90  VAL90       0.0022
     44  CG2      -19.6690  -15.1830   23.0380 C.3    90  VAL90       0.0022
     45  N        -20.8400   -9.4320   18.3760 N.3    93  VAL93      -0.1245
     46  CA       -20.7450   -8.2680   19.2400 C.3    93  VAL93       0.1561
     47  C        -19.2770   -7.8240   19.3910 C.2    93  VAL93       0.2260
     48  O        -18.9910   -6.6230   19.4320 O.2    93  VAL93      -0.2867
     49  CB       -21.4990   -8.4770   20.5930 C.3    93  VAL93       0.0252
     50  CG1      -20.8930   -9.5970   21.3840 C.3    93  VAL93       0.0019
     51  CG2      -21.5520   -7.1940   21.4140 C.3    93  VAL93       0.0019
     52  N        -29.0910  -24.8210   26.8140 N.3   167  CYS167     -0.1221
     53  CA       -28.0450  -24.0280   26.1860 C.3   167  CYS167      0.1808
     54  C        -28.0910  -22.6330   26.7860 C.2   167  CYS167      0.2601
     55  O        -28.2000  -21.6530   26.0740 O.2   167  CYS167     -0.2717
     56  CB       -28.2290  -24.0010   24.6650 C.3   167  CYS167      0.0970
     57  SG       -26.8400  -23.3580   23.6950 S.3   167  CYS167     -0.0800
     58  N        -28.0020  -22.5650   28.1110 N.am  168  ASP168     -0.1959
     59  CA       -28.1400  -21.3100   28.8660 C.3   168  ASP168      0.1840
     60  C        -26.9460  -20.3750   28.7610 C.2   168  ASP168      0.2622
     61  O        -27.0990  -19.1690   28.9580 O.2   168  ASP168     -0.2715
     62  CB       -28.3530  -21.5950   30.3590 C.3   168  ASP168      0.1450
     63  CG       -29.7850  -21.9820   30.7040 C.2   168  ASP168      0.3671
     64  OD1      -30.6680  -22.0250   29.8130 O.co2 168  ASP168     -0.2456
     65  OD2      -30.0220  -22.2450   31.9000 O.co2 168  ASP168     -0.2456
     66  N        -25.7670  -20.9430   28.4820 N.am  169  PHE169     -0.1974
     67  CA       -24.4870  -20.2320   28.5550 C.3   169  PHE169      0.1639
     68  C        -24.1930  -19.7450   29.9830 C.2   169  PHE169      0.2290
     69  O        -24.0030  -18.5510   30.2530 O.2   169  PHE169     -0.2864
     70  CB       -24.3740  -19.1270   27.4970 C.3   169  PHE169      0.0560
     71  CG       -22.9650  -18.6750   27.2400 C.ar  169  PHE169     -0.0200
     72  CD1      -21.9870  -19.5940   26.8440 C.ar  169  PHE169     -0.0042
     73  CD2      -22.6100  -17.3280   27.3890 C.ar  169  PHE169     -0.0042
     74  CE1      -20.6620  -19.1860   26.5910 C.ar  169  PHE169     -0.0003
     75  CE2      -21.2950  -16.9010   27.1390 C.ar  169  PHE169     -0.0003
     76  CZ       -20.3150  -17.8400   26.7290 C.ar  169  PHE169     -0.0000
     77  N        -21.5710  -19.5570   32.7050 N.3   171  THR171     -0.1218
     78  CA       -20.1150  -19.4970   32.6150 C.3   171  THR171      0.1862
     79  C        -19.5420  -19.4000   34.0000 C.2   171  THR171      0.2287
     80  O        -20.2630  -19.0520   34.9350 O.2   171  THR171     -0.2866
     81  CB       -19.6160  -18.2530   31.8330 C.3   171  THR171      0.1770
     82  OG1      -19.8500  -17.0610   32.6020 O.3   171  THR171     -0.2211
     83  CG2      -20.2860  -18.1210   30.4520 C.3   171  THR171      0.0375
     84  N        -14.3330  -16.3350   33.2450 N.3   175  TYR175     -0.1227
     85  CA       -14.6860  -16.0880   31.8610 C.3   175  TYR175      0.1736
     86  C        -15.6090  -14.8690   31.7060 C.2   175  TYR175      0.2595
     87  O        -15.4430  -14.0660   30.7690 O.2   175  TYR175     -0.2718
     88  CB       -15.3240  -17.3110   31.2260 C.3   175  TYR175      0.0548
     89  CG       -15.7470  -17.0670   29.8060 C.ar  175  TYR175     -0.0200
     90  CD1      -17.0180  -16.5750   29.5150 C.ar  175  TYR175     -0.0009
     91  CD2      -14.8720  -17.3130   28.7490 C.ar  175  TYR175     -0.0009
     92  CE1      -17.4200  -16.3460   28.2010 C.ar  175  TYR175      0.0417
     93  CE2      -15.2580  -17.0930   27.4420 C.ar  175  TYR175      0.0417
     94  CZ       -16.5370  -16.6110   27.1760 C.ar  175  TYR175      0.1957
     95  OH       -16.9070  -16.3790   25.8870 O.3   175  TYR175     -0.2866
     96  N        -16.5740  -14.7310   32.6200 N.am  176  ALA176     -0.1980
     97  CA       -17.5320  -13.6220   32.5410 C.3   176  ALA176      0.1597
     98  C        -16.7860  -12.3040   32.5620 C.2   176  ALA176      0.2287
     99  O        -17.0170  -11.4600   31.7010 O.2   176  ALA176     -0.2864
    100  CB       -18.5760  -13.6800   33.6570 C.3   176  ALA176      0.0319
    101  N        -14.0530  -12.0980   29.3390 N.3   179  SER179     -0.1202
    102  CA       -14.6740  -11.8850   28.0320 C.3   179  SER179      0.2020
    103  C        -15.3350  -10.5100   27.9620 C.2   179  SER179      0.2619
    104  O        -15.2210   -9.8110   26.9500 O.2   179  SER179     -0.2717
    105  CB       -15.6780  -12.9860   27.7260 C.3   179  SER179      0.2103
    106  OG       -16.7580  -12.9350   28.6240 O.3   179  SER179     -0.2182
    107  N        -16.0030  -10.1170   29.0400 N.am  180  SER180     -0.1951
    108  CA       -16.6200   -8.8170   29.1070 C.3   180  SER180      0.1924
    109  C        -15.5760   -7.7210   28.9140 C.2   180  SER180      0.2314
    110  O        -15.7880   -6.7870   28.1220 O.2   180  SER180     -0.2863
    111  CB       -17.3520   -8.6400   30.4270 C.3   180  SER180      0.2116
    112  OG       -18.4220   -9.5520   30.5140 O.3   180  SER180     -0.2180
    113  N        -13.7970   -8.5910   25.1100 N.3   183  SER183     -0.1217
    114  CA       -14.6780   -8.3990   23.9580 C.3   183  SER183      0.1889
    115  C        -15.4750   -7.0830   23.9560 C.2   183  SER183      0.2288
    116  O        -15.8820   -6.6340   22.8960 O.2   183  SER183     -0.2866
    117  CB       -15.6100   -9.5910   23.7590 C.3   183  SER183      0.2089
    118  OG       -16.8000   -9.4410   24.5010 O.3   183  SER183     -0.2183
    119  N        -26.0460   -2.4960   24.4380 N.3   231  TRP231     -0.1241
    120  CA       -25.2100   -3.5290   25.0470 C.3   231  TRP231      0.1605
    121  C        -24.6750   -3.2180   26.4670 C.2   231  TRP231      0.2264
    122  O        -24.4220   -4.1320   27.2630 O.2   231  TRP231     -0.2867
    123  CB       -24.0430   -3.8480   24.1220 C.3   231  TRP231      0.0550
    124  CG       -24.3950   -4.6910   22.9410 C.ar  231  TRP231      0.0003
    125  CD1      -24.4240   -4.2920   21.6400 C.ar  231  TRP231      0.0946
    126  CD2      -24.7470   -6.0930   22.9430 C.ar  231  TRP231      0.0152
    127  NE1      -24.7830   -5.3470   20.8270 N.ar  231  TRP231     -0.2442
    128  CE2      -24.9930   -6.4610   21.5980 C.ar  231  TRP231      0.0810
    129  CE3      -24.8700   -7.0660   23.9480 C.ar  231  TRP231      0.0012
    130  CZ2      -25.3390   -7.7760   21.2190 C.ar  231  TRP231      0.0191
    131  CZ3      -25.2520   -8.3870   23.5780 C.ar  231  TRP231      0.0001
    132  CH2      -25.4790   -8.7210   22.2230 C.ar  231  TRP231      0.0015
    133  N        -26.6470   -4.9530   29.4130 N.3   234  PHE234     -0.1227
    134  CA       -26.2760   -6.3710   29.5550 C.3   234  PHE234      0.1736
    135  C        -24.8940   -6.6090   30.1930 C.2   234  PHE234      0.2595
    136  O        -24.7720   -7.3810   31.1490 O.2   234  PHE234     -0.2718
    137  CB       -26.3670   -7.0990   28.2170 C.3   234  PHE234      0.0547
    138  CG       -25.8370   -8.5070   28.2570 C.ar  234  PHE234     -0.0202
    139  CD1      -26.6470   -9.5610   28.7010 C.ar  234  PHE234     -0.0042
    140  CD2      -24.5300   -8.7850   27.8560 C.ar  234  PHE234     -0.0042
    141  CE1      -26.1770  -10.8700   28.7370 C.ar  234  PHE234     -0.0003
    142  CE2      -24.0440  -10.0920   27.8850 C.ar  234  PHE234     -0.0003
    143  CZ       -24.8700  -11.1410   28.3320 C.ar  234  PHE234     -0.0000
    144  N        -23.8580   -5.9570   29.6630 N.am  235  PHE235     -0.1976
    145  CA       -22.5180   -6.1300   30.2190 C.3   235  PHE235      0.1639
    146  C        -22.3600   -5.5390   31.6210 C.2   235  PHE235      0.2290
    147  O        -21.5690   -6.0580   32.4120 O.2   235  PHE235     -0.2864
    148  CB       -21.4130   -5.6680   29.2390 C.3   235  PHE235      0.0560
    149  CG       -21.2810   -6.5640   28.0170 C.ar  235  PHE235     -0.0200
    150  CD1      -20.6730   -7.8160   28.1150 C.ar  235  PHE235     -0.0042
    151  CD2      -21.8020   -6.1710   26.7870 C.ar  235  PHE235     -0.0042
    152  CE1      -20.5820   -8.6580   27.0110 C.ar  235  PHE235     -0.0003
    153  CE2      -21.7120   -6.9940   25.6760 C.ar  235  PHE235     -0.0003
    154  CZ       -21.0940   -8.2470   25.7830 C.ar  235  PHE235     -0.0000
    155  N        -23.9790   -8.4620   33.5400 N.3   238  ASN238     -0.1240
    156  CA       -23.0600   -9.6210   33.5140 C.3   238  ASN238      0.1653
    157  C        -22.0050   -9.5530   34.6340 C.2   238  ASN238      0.2266
    158  O        -21.7490  -10.5540   35.3090 O.2   238  ASN238     -0.2867
    159  CB       -22.3500   -9.7090   32.1600 C.3   238  ASN238      0.1155
    160  CG       -21.7580  -11.0710   31.9040 C.2   238  ASN238      0.2627
    161  OD1      -22.3790  -12.0840   32.1980 O.2   238  ASN238     -0.2716
    162  ND2      -20.5570  -11.1090   31.3340 N.am  238  ASN238     -0.0877
    163  N        -32.0630   -9.6020   32.9480 N.3   253  PHE253     -0.1227
    164  CA       -30.7740  -10.0490   32.3730 C.3   253  PHE253      0.1736
    165  C        -30.9600  -10.6630   30.9930 C.2   253  PHE253      0.2595
    166  O        -30.1590  -10.4190   30.0800 O.2   253  PHE253     -0.2718
    167  CB       -30.0880  -11.0630   33.2880 C.3   253  PHE253      0.0547
    168  CG       -28.7320  -11.5140   32.8040 C.ar  253  PHE253     -0.0202
    169  CD1      -27.7360  -10.5920   32.5140 C.ar  253  PHE253     -0.0042
    170  CD2      -28.4500  -12.8720   32.6590 C.ar  253  PHE253     -0.0042
    171  CE1      -26.4810  -11.0150   32.0650 C.ar  253  PHE253     -0.0003
    172  CE2      -27.1990  -13.3100   32.2180 C.ar  253  PHE253     -0.0003
    173  CZ       -26.2120  -12.3890   31.9240 C.ar  253  PHE253     -0.0000
    174  N        -32.0190  -11.4630   30.8600 N.am  254  VAL254     -0.1980
    175  CA       -32.4320  -12.0220   29.5770 C.3   254  VAL254      0.1595
    176  C        -32.8240  -10.8850   28.6250 C.2   254  VAL254      0.2287
    177  O        -32.3730  -10.8380   27.4730 O.2   254  VAL254     -0.2864
    178  CB       -33.5920  -13.0270   29.7490 C.3   254  VAL254      0.0276
    179  CG1      -33.8450  -13.7530   28.4730 C.3   254  VAL254      0.0022
    180  CG2      -33.2450  -14.0590   30.7830 C.3   254  VAL254      0.0022
    181  N        -30.0110   -8.9690   27.0510 N.3   257  ASN257     -0.1225
    182  CA       -29.2760   -9.6600   26.0200 C.3   257  ASN257      0.1785
    183  C        -30.0250   -9.5230   24.7100 C.2   257  ASN257      0.2597
    184  O        -29.4110   -9.2530   23.6870 O.2   257  ASN257     -0.2718
    185  CB       -29.0020  -11.1220   26.3850 C.3   257  ASN257      0.1169
    186  CG       -27.7420  -11.7120   25.6770 C.2   257  ASN257      0.2627
    187  OD1      -27.2750  -12.8100   26.0310 O.2   257  ASN257     -0.2716
    188  ND2      -27.2160  -11.0030   24.6710 N.am  257  ASN257     -0.0877
    189  N        -31.3500   -9.6690   24.7350 N.am  258  TRP258     -0.1976
    190  CA       -32.1690   -9.4060   23.5370 C.3   258  TRP258      0.1640
    191  C        -32.1000   -7.9430   23.0520 C.2   258  TRP258      0.2290
    192  O        -32.0480   -7.6870   21.8430 O.2   258  TRP258     -0.2864
    193  CB       -33.6090   -9.8970   23.7260 C.3   258  TRP258      0.0576
    194  CG       -33.6680  -11.3730   23.6130 C.ar  258  TRP258      0.0006
    195  CD1      -33.5110  -12.2810   24.6210 C.ar  258  TRP258      0.0946
    196  CD2      -33.8430  -12.1270   22.4140 C.ar  258  TRP258      0.0152
    197  NE1      -33.5840  -13.5560   24.1210 N.ar  258  TRP258     -0.2442
    198  CE2      -33.7780  -13.4890   22.7660 C.ar  258  TRP258      0.0810
    199  CE3      -34.0410  -11.7820   21.0670 C.ar  258  TRP258      0.0012
    200  CZ2      -33.9210  -14.5120   21.8230 C.ar  258  TRP258      0.0191
    201  CZ3      -34.1640  -12.7910   20.1260 C.ar  258  TRP258      0.0001
    202  CH2      -34.1000  -14.1430   20.5050 C.ar  258  TRP258      0.0015
    203  N        -29.1810   -8.1180   20.7740 N.3   261  TYR261     -0.1241
    204  CA       -29.5510   -8.6220   19.4460 C.3   261  TYR261      0.1605
    205  C        -30.3110   -7.5850   18.6360 C.2   261  TYR261      0.2264
    206  O        -30.1290   -7.4870   17.4290 O.2   261  TYR261     -0.2867
    207  CB       -30.4500   -9.8630   19.5470 C.3   261  TYR261      0.0534
    208  CG       -29.8070  -11.1190   20.0910 C.ar  261  TYR261     -0.0201
    209  CD1      -28.4240  -11.1730   20.3670 C.ar  261  TYR261     -0.0009
    210  CD2      -30.5790  -12.2630   20.3200 C.ar  261  TYR261     -0.0009
    211  CE1      -27.8340  -12.3140   20.8580 C.ar  261  TYR261      0.0417
    212  CE2      -30.0000  -13.4150   20.8130 C.ar  261  TYR261      0.0417
    213  CZ       -28.6180  -13.4290   21.0840 C.ar  261  TYR261      0.1957
    214  OH       -28.0210  -14.5630   21.5710 O.3   261  TYR261     -0.2866
@<TRIPOS>BOND
     1   206   205    2
     2     9    10    1
     3    10    13    1
     4    10    11    1
     5    15    17   ar
     6    15    14   ar
     7    45    46    1
     8    30    31    1
     9    13    14    1
    10   205   204    1
    11    17    18   ar
    12    12    11    2
    13    14    16   ar
    14    11    23   am
    15    46    47    1
    16    46    49    1
    17    31    32    1
    18    31    34    1
    19    47    48    2
    20    33    32    2
    21   204   207    1
    22   204   203    1
    23   207   208    1
    24    32    38   am
    25    40    41    2
    26    40    39    1
    27    18    16   ar
    28    18    20   ar
    29   208   210   ar
    30   208   209   ar
    31   201   202   ar
    32   201   199   ar
    33    16    19   ar
    34    23    24    1
    35   210   212   ar
    36   209   211   ar
    37    34    35    1
    38    38    39    1
    39   202   200   ar
    40    49    50    1
    41    49    51    1
    42    25    26    2
    43    25    24    1
    44     1     2    1
    45   212   213   ar
    46   127   128   ar
    47   127   125   ar
    48   211   213   ar
    49    39    42    1
    50   199   196   ar
    51   213   214    1
    52    20    22   ar
    53   130   128   ar
    54   130   132   ar
    55    24    27    1
    56    35    36   ar
    57    35    37   ar
    58    19    21   ar
    59   128   126   ar
    60   125   124   ar
    61   200   198   ar
    62   192   191    2
    63    42    43    1
    64    42    44    1
    65     2     5    1
    66     2     3    1
    67   132   131   ar
    68    22    21   ar
    69   196   198   ar
    70   196   194   ar
    71    27    28    1
    72    27    29    1
    73     5     6    1
    74   198   197   ar
    75   116   115    2
    76   124   126   ar
    77   124   123    1
    78   126   129   ar
    79     3     4    2
    80   191   190    1
    81   190   193    1
    82   190   189    1
    83   131   129   ar
    84   194   193    1
    85   194   195   ar
    86   184   183    2
    87    57    56    1
    88   117   114    1
    89   117   118    1
    90   115   114    1
    91   114   113    1
    92     6     8    1
    93     6     7    1
    94   197   195   ar
    95   123   120    1
    96   119   120    1
    97    56    53    1
    98   188   186   am
    99   183   189   am
   100   183   182    1
   101   120   121    1
   102   153   154   ar
   103   153   151   ar
   104   186   187    2
   105   186   185    1
   106   154   152   ar
   107    95    94    1
   108   182   185    1
   109   182   181    1
   110    55    54    2
   111    53    54    1
   112    53    52    1
   113   121   122    2
   114    74    76   ar
   115    74    72   ar
   116    76    75   ar
   117    54    58   am
   118   151   149   ar
   119    72    71   ar
   120   104   103    2
   121   152   150   ar
   122    75    73   ar
   123    94    93   ar
   124    94    92   ar
   125    71    73   ar
   126    71    70    1
   127    93    91   ar
   128   177   176    2
   129    70    67    1
   130   105   102    1
   131   105   106    1
   132   140   142   ar
   133   140   138   ar
   134   142   143   ar
   135   103   102    1
   136   103   107   am
   137   149   150   ar
   138   149   148    1
   139   102   101    1
   140    58    59    1
   141   110   109    2
   142    92    90   ar
   143   137   138    1
   144   137   134    1
   145   138   139   ar
   146   143   141   ar
   147   179   178    1
   148    66    67    1
   149    66    60   am
   150    67    68    1
   151   176   175    1
   152   139   141   ar
   153    91    89   ar
   154    60    59    1
   155    60    61    2
   156    59    62    1
   157   109   108    1
   158   107   108    1
   159   108   111    1
   160   148   145    1
   161   133   134    1
   162    90    89   ar
   163   134   135    1
   164   175   178    1
   165   175   174    1
   166   144   135   am
   167   144   145    1
   168   178   180    1
   169    89    88    1
   170    64    63   ar
   171    68    69    2
   172   166   165    2
   173   135   136    2
   174   145   146    1
   175    62    63    1
   176   111   112    1
   177    83    81    1
   178    63    65   ar
   179    87    86    2
   180   174   165   am
   181   165   164    1
   182    88    85    1
   183   162   160   am
   184   146   147    2
   185    99    98    2
   186    86    85    1
   187    86    96   am
   188    81    82    1
   189    81    78    1
   190    85    84    1
   191   160   159    1
   192   160   161    2
   193   173   171   ar
   194   173   172   ar
   195   171   169   ar
   196   159   156    1
   197   172   170   ar
   198   164   163    1
   199   164   167    1
   200   169   168   ar
   201    97    98    1
   202    97    96    1
   203    97   100    1
   204    78    77    1
   205    78    79    1
   206   170   168   ar
   207   168   167    1
   208   156   155    1
   209   156   157    1
   210    79    80    2
   211   157   158    2
