@<TRIPOS>MOLECULE
tmp/2y03A03.pdb
 160 155 0 0 0
SMALL
GASTEIGER

@<TRIPOS>ATOM
      1  N        -23.6900  -21.2770   18.0500 N.3    85  TRP85      -0.1227
      2  CA       -24.5820  -20.1350   18.1730 C.3    85  TRP85       0.1737
      3  C        -24.0290  -19.1560   19.2120 C.2    85  TRP85       0.2596
      4  O        -23.9610  -17.9490   18.9850 O.2    85  TRP85      -0.2718
      5  CB       -26.0020  -20.6010   18.5140 C.3    85  TRP85       0.0564
      6  CG       -26.9400  -19.5070   18.9410 C.ar   85  TRP85       0.0003
      7  CD1      -27.4790  -18.5430   18.1470 C.ar   85  TRP85       0.0946
      8  CD2      -27.4470  -19.2710   20.2650 C.ar   85  TRP85       0.0152
      9  NE1      -28.2750  -17.7070   18.8950 N.ar   85  TRP85      -0.2442
     10  CE2      -28.2800  -18.1380   20.1970 C.ar   85  TRP85       0.0810
     11  CE3      -27.2730  -19.9040   21.5050 C.ar   85  TRP85       0.0012
     12  CZ2      -28.9520  -17.6240   21.3250 C.ar   85  TRP85       0.0191
     13  CZ3      -27.9510  -19.3940   22.6330 C.ar   85  TRP85       0.0001
     14  CH2      -28.7720  -18.2650   22.5300 C.ar   85  TRP85       0.0015
     15  N        -23.6060  -19.6920   20.3460 N.am   86  THR86      -0.1953
     16  CA       -22.9890  -18.8960   21.4040 C.3    86  THR86       0.1897
     17  C        -21.7760  -18.1080   20.8980 C.2    86  THR86       0.2313
     18  O        -21.6080  -16.9470   21.2640 O.2    86  THR86      -0.2863
     19  CB       -22.5630  -19.7970   22.5860 C.3    86  THR86       0.1794
     20  OG1      -23.7030  -20.5510   23.0360 O.3    86  THR86      -0.2208
     21  CG2      -21.9960  -18.9640   23.7100 C.3    86  THR86       0.0378
     22  N        -22.7980  -15.2450   18.4310 N.3    89  ASP89      -0.1225
     23  CA       -23.2550  -14.1710   19.2920 C.3    89  ASP89       0.1805
     24  C        -22.0790  -13.3270   19.8460 C.2    89  ASP89       0.2597
     25  O        -22.0570  -12.1130   19.6590 O.2    89  ASP89      -0.2718
     26  CB       -24.0920  -14.7550   20.4260 C.3    89  ASP89       0.1424
     27  CG       -24.6610  -13.6940   21.3500 C.2    89  ASP89       0.3668
     28  OD1      -24.1800  -12.5330   21.3800 O.co2  89  ASP89      -0.2456
     29  OD2      -25.6090  -14.0370   22.0670 O.co2  89  ASP89      -0.2456
     30  N        -21.1210  -13.9520   20.5300 N.am   90  VAL90      -0.1980
     31  CA       -19.9930  -13.2010   21.0620 C.3    90  VAL90       0.1595
     32  C        -19.2180  -12.5430   19.9090 C.2    90  VAL90       0.2287
     33  O        -18.8660  -11.3620   20.0040 O.2    90  VAL90      -0.2864
     34  CB       -19.0580  -14.0650   22.0220 C.3    90  VAL90       0.0276
     35  CG1      -17.8570  -13.2720   22.5410 C.3    90  VAL90       0.0022
     36  CG2      -19.8420  -14.6010   23.2240 C.3    90  VAL90       0.0022
     37  N        -20.8680   -9.0130   18.6130 N.3    93  VAL93      -0.1245
     38  CA       -20.7530   -7.8630   19.4930 C.3    93  VAL93       0.1561
     39  C        -19.3220   -7.3820   19.4760 C.2    93  VAL93       0.2260
     40  O        -19.0720   -6.1960   19.3450 O.2    93  VAL93      -0.2867
     41  CB       -21.1080   -8.1440   20.9510 C.3    93  VAL93       0.0252
     42  CG1      -21.6320   -6.8770   21.5990 C.3    93  VAL93       0.0019
     43  CG2      -22.1260   -9.2210   21.0690 C.3    93  VAL93       0.0019
     44  N        -29.5810  -24.5750   26.4110 N.3   167  CYS167     -0.1235
     45  CA       -28.5170  -23.8060   25.7880 C.3   167  CYS167      0.1677
     46  C        -28.3320  -22.5070   26.5120 C.2   167  CYS167      0.2270
     47  O        -28.4830  -21.4410   25.9490 O.2   167  CYS167     -0.2867
     48  CB       -28.7780  -23.5740   24.3120 C.3   167  CYS167      0.0956
     49  SG       -27.3410  -22.8940   23.4550 S.3   167  CYS167     -0.0801
     50  N        -25.9920  -19.9030   28.6460 N.3   169  PHE169     -0.1241
     51  CA       -24.5760  -19.5490   28.6330 C.3   169  PHE169      0.1605
     52  C        -24.0800  -19.2430   30.0410 C.2   169  PHE169      0.2264
     53  O        -23.5960  -18.1570   30.2940 O.2   169  PHE169     -0.2867
     54  CB       -24.3190  -18.3860   27.6700 C.3   169  PHE169      0.0534
     55  CG       -22.8650  -18.1520   27.3620 C.ar  169  PHE169     -0.0203
     56  CD1      -22.0100  -19.2200   27.0800 C.ar  169  PHE169     -0.0042
     57  CD2      -22.3530  -16.8510   27.3160 C.ar  169  PHE169     -0.0042
     58  CE1      -20.6620  -19.0000   26.7710 C.ar  169  PHE169     -0.0003
     59  CE2      -21.0090  -16.6180   27.0210 C.ar  169  PHE169     -0.0003
     60  CZ       -20.1610  -17.6940   26.7360 C.ar  169  PHE169     -0.0000
     61  N        -21.5680  -19.0660   32.8290 N.3   171  THR171     -0.1218
     62  CA       -20.1200  -18.9870   32.6920 C.3   171  THR171      0.1862
     63  C        -19.4620  -18.8280   34.0560 C.2   171  THR171      0.2287
     64  O        -20.0740  -18.3030   34.9760 O.2   171  THR171     -0.2866
     65  CB       -19.6880  -17.7850   31.7700 C.3   171  THR171      0.1770
     66  OG1      -19.9660  -16.5290   32.4180 O.3   171  THR171     -0.2211
     67  CG2      -20.3750  -17.8240   30.3840 C.3   171  THR171      0.0375
     68  N        -14.2400  -15.8740   33.2670 N.3   175  TYR175     -0.1227
     69  CA       -14.6760  -15.5830   31.9140 C.3   175  TYR175      0.1736
     70  C        -15.6520  -14.4010   31.8480 C.2   175  TYR175      0.2595
     71  O        -15.5770  -13.5550   30.9520 O.2   175  TYR175     -0.2718
     72  CB       -15.3410  -16.8100   31.3370 C.3   175  TYR175      0.0548
     73  CG       -15.7520  -16.5930   29.9380 C.ar  175  TYR175     -0.0200
     74  CD1      -17.0230  -16.0560   29.6410 C.ar  175  TYR175     -0.0009
     75  CD2      -14.8790  -16.8860   28.8910 C.ar  175  TYR175     -0.0009
     76  CE1      -17.4280  -15.8420   28.3320 C.ar  175  TYR175      0.0417
     77  CE2      -15.2740  -16.6870   27.5690 C.ar  175  TYR175      0.0417
     78  CZ       -16.5520  -16.1560   27.3000 C.ar  175  TYR175      0.1957
     79  OH       -16.9460  -15.9250   26.0110 O.3   175  TYR175     -0.2866
     80  N        -16.6000  -14.3590   32.7750 N.am  176  ALA176     -0.1980
     81  CA       -17.5790  -13.2890   32.7580 C.3   176  ALA176      0.1597
     82  C        -16.8520  -11.9390   32.7350 C.2   176  ALA176      0.2287
     83  O        -17.0640  -11.1270   31.8490 O.2   176  ALA176     -0.2864
     84  CB       -18.4880  -13.4040   33.9560 C.3   176  ALA176      0.0319
     85  N        -14.1610  -11.7910   29.4780 N.3   179  SER179     -0.1217
     86  CA       -14.7420  -11.5660   28.1690 C.3   179  SER179      0.1889
     87  C        -15.4360  -10.2210   28.0850 C.2   179  SER179      0.2288
     88  O        -15.3940   -9.5920   27.0400 O.2   179  SER179     -0.2866
     89  CB       -15.6860  -12.6880   27.7460 C.3   179  SER179      0.2089
     90  OG       -16.9080  -12.5700   28.4250 O.3   179  SER179     -0.2183
     91  N        -13.8920   -8.0690   25.2940 N.3   183  SER183     -0.1217
     92  CA       -14.6440   -7.8760   24.0910 C.3   183  SER183      0.1889
     93  C        -15.4390   -6.5490   24.0880 C.2   183  SER183      0.2288
     94  O        -15.7340   -6.0240   23.0240 O.2   183  SER183     -0.2866
     95  CB       -15.4720   -9.1180   23.7440 C.3   183  SER183      0.2089
     96  OG       -16.7440   -9.0550   24.3360 O.3   183  SER183     -0.2183
     97  N        -26.0280   -1.9530   24.6090 N.3   233  TRP233     -0.1241
     98  CA       -25.1940   -3.0020   25.2220 C.3   233  TRP233      0.1605
     99  C        -24.6350   -2.7320   26.6290 C.2   233  TRP233      0.2264
    100  O        -24.3470   -3.6670   27.3750 O.2   233  TRP233     -0.2867
    101  CB       -24.0210   -3.3330   24.3240 C.3   233  TRP233      0.0550
    102  CG       -24.3700   -4.1350   23.1680 C.ar  233  TRP233      0.0003
    103  CD1      -24.4430   -3.7190   21.8690 C.ar  233  TRP233      0.0946
    104  CD2      -24.7060   -5.5120   23.1700 C.ar  233  TRP233      0.0152
    105  NE1      -24.7960   -4.7700   21.0540 N.ar  233  TRP233     -0.2442
    106  CE2      -24.9660   -5.8840   21.8290 C.ar  233  TRP233      0.0810
    107  CE3      -24.7980   -6.4810   24.1710 C.ar  233  TRP233      0.0012
    108  CZ2      -25.3140   -7.1910   21.4640 C.ar  233  TRP233      0.0191
    109  CZ3      -25.1490   -7.7810   23.8120 C.ar  233  TRP233      0.0001
    110  CH2      -25.4040   -8.1240   22.4660 C.ar  233  TRP233      0.0015
    111  N        -26.5480   -4.5300   29.5110 N.3   236  PHE236     -0.1227
    112  CA       -26.1240   -5.9220   29.6110 C.3   236  PHE236      0.1736
    113  C        -24.7410   -6.1390   30.2770 C.2   236  PHE236      0.2595
    114  O        -24.5920   -7.0320   31.1110 O.2   236  PHE236     -0.2718
    115  CB       -26.1050   -6.5730   28.2470 C.3   236  PHE236      0.0547
    116  CG       -25.6320   -7.9890   28.2710 C.ar  236  PHE236     -0.0202
    117  CD1      -26.4610   -9.0070   28.7750 C.ar  236  PHE236     -0.0042
    118  CD2      -24.3750   -8.3200   27.7840 C.ar  236  PHE236     -0.0042
    119  CE1      -26.0500  -10.3450   28.7960 C.ar  236  PHE236     -0.0003
    120  CE2      -23.9370   -9.6590   27.7840 C.ar  236  PHE236     -0.0003
    121  CZ       -24.7780  -10.6750   28.2980 C.ar  236  PHE236     -0.0000
    122  N        -23.7420   -5.3330   29.9030 N.am  237  PHE237     -0.1976
    123  CA       -22.3720   -5.5490   30.3800 C.3   237  PHE237      0.1639
    124  C        -22.0620   -5.1330   31.8120 C.2   237  PHE237      0.2290
    125  O        -21.1510   -5.6990   32.4510 O.2   237  PHE237     -0.2864
    126  CB       -21.3510   -5.0000   29.3910 C.3   237  PHE237      0.0560
    127  CG       -21.1700   -5.8910   28.2110 C.ar  237  PHE237     -0.0200
    128  CD1      -20.4850   -7.0980   28.3470 C.ar  237  PHE237     -0.0042
    129  CD2      -21.7500   -5.5730   26.9880 C.ar  237  PHE237     -0.0042
    130  CE1      -20.3380   -7.9420   27.2750 C.ar  237  PHE237     -0.0003
    131  CE2      -21.5940   -6.4050   25.9070 C.ar  237  PHE237     -0.0003
    132  CZ       -20.8830   -7.5920   26.0500 C.ar  237  PHE237     -0.0000
    133  N        -23.7050   -7.8450   33.8160 N.3   240  ASN240     -0.1240
    134  CA       -22.8530   -9.0180   33.7270 C.3   240  ASN240      0.1653
    135  C        -21.7480   -9.0220   34.7940 C.2   240  ASN240      0.2266
    136  O        -21.5110  -10.0330   35.4290 O.2   240  ASN240     -0.2867
    137  CB       -22.2710   -9.1280   32.3180 C.3   240  ASN240      0.1155
    138  CG       -21.8090  -10.5170   31.9940 C.2   240  ASN240      0.2627
    139  OD1      -21.9800  -11.4310   32.7790 O.2   240  ASN240     -0.2716
    140  ND2      -21.2150  -10.6830   30.8340 N.am  240  ASN240     -0.0877
    141  N        -30.0550   -8.3470   27.2590 N.3   259  ASN259     -0.1240
    142  CA       -29.4070   -9.0640   26.1930 C.3   259  ASN259      0.1653
    143  C        -30.1630   -8.8730   24.8790 C.2   259  ASN259      0.2266
    144  O        -29.5450   -8.6350   23.8470 O.2   259  ASN259     -0.2867
    145  CB       -29.2050  -10.5410   26.5300 C.3   259  ASN259      0.1155
    146  CG       -27.9470  -11.1310   25.8650 C.2   259  ASN259      0.2627
    147  OD1      -27.7610  -12.3420   25.8390 O.2   259  ASN259     -0.2716
    148  ND2      -27.0850  -10.2680   25.3240 N.am  259  ASN259     -0.0877
    149  N        -29.3670   -7.4640   20.9570 N.3   263  TYR263     -0.1241
    150  CA       -29.7010   -7.9300   19.6210 C.3   263  TYR263      0.1605
    151  C        -30.4910   -6.8940   18.8070 C.2   263  TYR263      0.2264
    152  O        -30.3840   -6.8290   17.5670 O.2   263  TYR263     -0.2867
    153  CB       -30.5400   -9.1970   19.7040 C.3   263  TYR263      0.0534
    154  CG       -29.8780  -10.4070   20.3180 C.ar  263  TYR263     -0.0201
    155  CD1      -28.5240  -10.3990   20.7030 C.ar  263  TYR263     -0.0009
    156  CD2      -30.6050  -11.5800   20.4940 C.ar  263  TYR263     -0.0009
    157  CE1      -27.9300  -11.5290   21.2590 C.ar  263  TYR263      0.0417
    158  CE2      -30.0220  -12.7040   21.0400 C.ar  263  TYR263      0.0417
    159  CZ       -28.6940  -12.6690   21.4190 C.ar  263  TYR263      0.1957
    160  OH       -28.1450  -13.7880   21.9660 O.3   263  TYR263     -0.2866
@<TRIPOS>BOND
     1   152   151    2
     2     1     2    1
     3     7     9   ar
     4     7     6   ar
     5     2     5    1
     6     2     3    1
     7    22    23    1
     8     5     6    1
     9    37    38    1
    10   151   150    1
    11     9    10   ar
    12     6     8   ar
    13     4     3    2
    14     3    15   am
    15    23    24    1
    16    23    26    1
    17    40    39    2
    18    39    38    1
    19    38    41    1
    20   150   153    1
    21   150   149    1
    22    25    24    2
    23   153   154    1
    24    24    30   am
    25    32    33    2
    26    32    31    1
    27    10     8   ar
    28    10    12   ar
    29     8    11   ar
    30   154   156   ar
    31   154   155   ar
    32    15    16    1
    33    26    27    1
    34   156   158   ar
    35    30    31    1
    36   155   157   ar
    37    17    18    2
    38    17    16    1
    39    41    43    1
    40    41    42    1
    41   158   159   ar
    42   105   106   ar
    43   105   103   ar
    44    31    34    1
    45   157   159   ar
    46    12    14   ar
    47    27    28   ar
    48    27    29   ar
    49    16    19    1
    50   159   160    1
    51   108   106   ar
    52   108   110   ar
    53    11    13   ar
    54   106   104   ar
    55   103   102   ar
    56    34    35    1
    57    34    36    1
    58   110   109   ar
    59    14    13   ar
    60    19    20    1
    61    19    21    1
    62    94    93    2
    63   102   104   ar
    64   102   101    1
    65   104   107   ar
    66    49    48    1
    67    95    92    1
    68    95    96    1
    69   109   107   ar
    70   144   143    2
    71    93    92    1
    72    92    91    1
    73    48    45    1
    74   101    98    1
    75    97    98    1
    76   143   142    1
    77    98    99    1
    78   148   146   am
    79    45    44    1
    80    45    46    1
    81   147   146    2
    82   146   145    1
    83   131   132   ar
    84   131   129   ar
    85    47    46    2
    86    79    78    1
    87   132   130   ar
    88   142   145    1
    89   142   141    1
    90    99   100    2
    91    60    58   ar
    92    60    59   ar
    93    58    56   ar
    94   129   127   ar
    95    59    57   ar
    96    88    87    2
    97    56    55   ar
    98   130   128   ar
    99    78    77   ar
   100    78    76   ar
   101    57    55   ar
   102    55    54    1
   103    77    75   ar
   104    54    51    1
   105    89    86    1
   106    89    90    1
   107   120   118   ar
   108   120   121   ar
   109   118   116   ar
   110    87    86    1
   111    86    85    1
   112   127   128   ar
   113   127   126    1
   114   115   116    1
   115   115   112    1
   116   116   117   ar
   117   121   119   ar
   118    76    74   ar
   119    51    50    1
   120    51    52    1
   121   117   119   ar
   122    75    73   ar
   123   126   123    1
   124   111   112    1
   125   112   113    1
   126    74    73   ar
   127   122   113   am
   128   122   123    1
   129    73    72    1
   130    52    53    2
   131   113   114    2
   132   123   124    1
   133    67    65    1
   134   140   138   am
   135    71    70    2
   136    72    69    1
   137    65    66    1
   138    65    62    1
   139   124   125    2
   140    70    69    1
   141    70    80   am
   142    83    82    2
   143    69    68    1
   144   138   137    1
   145   138   139    2
   146   137   134    1
   147    62    61    1
   148    62    63    1
   149    82    81    1
   150    81    80    1
   151    81    84    1
   152   134   133    1
   153   134   135    1
   154    63    64    2
   155   135   136    2
