@<TRIPOS>MOLECULE
tmp/2y04B00.pdb
 184 179 0 0 0
SMALL
GASTEIGER

@<TRIPOS>ATOM
      1  N          9.0740  -22.0570   18.8360 N.3    85  TRP85      -0.1227
      2  CA        10.0010  -21.1540   19.5040 C.3    85  TRP85       0.1737
      3  C          9.4470  -19.7200   19.4900 C.2    85  TRP85       0.2596
      4  O          9.3660  -19.0810   20.5410 O.2    85  TRP85      -0.2718
      5  CB        11.4010  -21.2260   18.8770 C.3    85  TRP85       0.0564
      6  CG        12.2960  -20.1600   19.3870 C.ar   85  TRP85       0.0003
      7  CD1       12.7410  -20.0190   20.6680 C.ar   85  TRP85       0.0946
      8  CD2       12.8340  -19.0570   18.6510 C.ar   85  TRP85       0.0152
      9  NE1       13.5220  -18.8990   20.7780 N.ar   85  TRP85      -0.2442
     10  CE2       13.6000  -18.2890   19.5530 C.ar   85  TRP85       0.0810
     11  CE3       12.7560  -18.6510   17.3210 C.ar   85  TRP85       0.0012
     12  CZ2       14.2830  -17.1280   19.1650 C.ar   85  TRP85       0.0191
     13  CZ3       13.4470  -17.5000   16.9310 C.ar   85  TRP85       0.0001
     14  CH2       14.1910  -16.7520   17.8550 C.ar   85  TRP85       0.0015
     15  N          9.0480  -19.2380   18.3100 N.am   86  THR86      -0.1953
     16  CA         8.3710  -17.9350   18.1640 C.3    86  THR86       0.1897
     17  C          7.1360  -17.8070   19.0810 C.2    86  THR86       0.2313
     18  O          6.9800  -16.7960   19.7670 O.2    86  THR86      -0.2863
     19  CB         7.9570  -17.6350   16.6850 C.3    86  THR86       0.1794
     20  OG1        9.0860  -17.7590   15.8100 O.3    86  THR86      -0.2208
     21  CG2        7.4210  -16.2340   16.5550 C.3    86  THR86       0.0378
     22  N          8.1030  -17.3320   22.7030 N.3    89  ASP89      -0.1225
     23  CA         8.6330  -15.9910   22.8560 C.3    89  ASP89       0.1805
     24  C          7.4810  -14.9870   23.0330 C.2    89  ASP89       0.2597
     25  O          7.4170  -14.2490   24.0270 O.2    89  ASP89      -0.2718
     26  CB         9.5160  -15.6530   21.6600 C.3    89  ASP89       0.1424
     27  CG        10.0920  -14.2720   21.7310 C.2    89  ASP89       0.3668
     28  OD1        9.9110  -13.5930   22.7580 O.co2  89  ASP89      -0.2456
     29  OD2       10.7310  -13.8540   20.7510 O.co2  89  ASP89      -0.2456
     30  N          6.5480  -14.9770   22.0920 N.am   90  VAL90      -0.1980
     31  CA         5.3710  -14.1210   22.2450 C.3    90  VAL90       0.1595
     32  C          4.5500  -14.4830   23.5050 C.2    90  VAL90       0.2287
     33  O          4.0680  -13.5910   24.2040 O.2    90  VAL90      -0.2864
     34  CB         4.4790  -14.0630   20.9700 C.3    90  VAL90       0.0276
     35  CG1        3.3520  -13.1040   21.1900 C.3    90  VAL90       0.0022
     36  CG2        5.2910  -13.6020   19.7740 C.3    90  VAL90       0.0022
     37  N          6.2640  -12.7440   26.9910 N.3    93  VAL93      -0.1231
     38  CA         6.1140  -11.2990   27.0890 C.3    93  VAL93       0.1692
     39  C          4.6940  -10.9710   27.4500 C.2    93  VAL93       0.2592
     40  O          4.4590  -10.1290   28.2970 O.2    93  VAL93      -0.2718
     41  CB         6.4070  -10.6250   25.7540 C.3    93  VAL93       0.0266
     42  CG1        6.3290   -9.1300   25.8800 C.3    93  VAL93       0.0020
     43  CG2        7.7800  -11.0290   25.2680 C.3    93  VAL93       0.0020
     44  N          3.7460  -11.6590   26.8120 N.am   94  THR94      -0.1953
     45  CA         2.3120  -11.4100   27.0050 C.3    94  THR94       0.1897
     46  C          1.8750  -11.7470   28.4160 C.2    94  THR94       0.2313
     47  O          1.2160  -10.9290   29.0480 O.2    94  THR94      -0.2863
     48  CB         1.4600  -12.1450   25.9640 C.3    94  THR94       0.1794
     49  OG1        1.8340  -11.7010   24.6540 O.3    94  THR94      -0.2208
     50  CG2       -0.0080  -11.8480   26.1670 C.3    94  THR94       0.0378
     51  N         14.6260  -18.2630   10.2030 N.3   167  CYS167     -0.1235
     52  CA        13.5770  -18.2150   11.2100 C.3   167  CYS167      0.1677
     53  C         13.4020  -16.7790   11.6230 C.2   167  CYS167      0.2270
     54  O         13.4030  -16.4560   12.8030 O.2   167  CYS167     -0.2867
     55  CB        13.9030  -19.0930   12.4140 C.3   167  CYS167      0.0956
     56  SG        12.5110  -19.2840   13.5810 S.3   167  CYS167     -0.0801
     57  N         11.0380  -13.5920   11.8740 N.3   169  PHE169     -0.1241
     58  CA         9.6390  -13.3480   12.0580 C.3   169  PHE169      0.1605
     59  C          9.3220  -12.1020   11.2490 C.2   169  PHE169      0.2264
     60  O          9.0550  -11.0350   11.8020 O.2   169  PHE169     -0.2867
     61  CB         9.3860  -13.1440   13.5440 C.3   169  PHE169      0.0534
     62  CG         7.9540  -13.3060   13.9640 C.ar  169  PHE169     -0.0203
     63  CD1        7.1560  -14.3160   13.4350 C.ar  169  PHE169     -0.0042
     64  CD2        7.4210  -12.4700   14.9400 C.ar  169  PHE169     -0.0042
     65  CE1        5.8500  -14.4680   13.8430 C.ar  169  PHE169     -0.0003
     66  CE2        6.1190  -12.6200   15.3590 C.ar  169  PHE169     -0.0003
     67  CZ         5.3280  -13.6260   14.8080 C.ar  169  PHE169     -0.0000
     68  N          6.8160  -10.3160    9.6370 N.3   171  THR171     -0.1218
     69  CA         5.3630  -10.3350    9.7090 C.3   171  THR171      0.1862
     70  C          4.7950   -9.3920    8.6770 C.2   171  THR171      0.2287
     71  O          5.5350   -8.6700    8.0190 O.2   171  THR171     -0.2866
     72  CB         4.8330   -9.9340   11.1000 C.3   171  THR171      0.1770
     73  OG1        5.1940   -8.5720   11.3770 O.3   171  THR171     -0.2211
     74  CG2        5.3880  -10.8700   12.1790 C.3   171  THR171      0.0375
     75  N         -0.5390   -7.9140   11.4350 N.3   175  TYR175     -0.1227
     76  CA        -0.1610   -8.7070   12.5910 C.3   175  TYR175      0.1736
     77  C          0.7910   -7.9390   13.5040 C.2   175  TYR175      0.2595
     78  O          0.6830   -8.0020   14.7280 O.2   175  TYR175     -0.2718
     79  CB         0.4570  -10.0410   12.1750 C.3   175  TYR175      0.0548
     80  CG         0.9060  -10.8250   13.3690 C.ar  175  TYR175     -0.0200
     81  CD1        0.0030  -11.6220   14.0760 C.ar  175  TYR175     -0.0009
     82  CD2        2.2270  -10.7250   13.8430 C.ar  175  TYR175     -0.0009
     83  CE1        0.4140  -12.3400   15.2240 C.ar  175  TYR175      0.0417
     84  CE2        2.6480  -11.4260   14.9910 C.ar  175  TYR175      0.0417
     85  CZ         1.7410  -12.2350   15.6770 C.ar  175  TYR175      0.1957
     86  OH         2.1550  -12.9230   16.8030 O.3   175  TYR175     -0.2866
     87  N          1.7280   -7.2100   12.9120 N.am  176  ALA176     -0.1980
     88  CA         2.6810   -6.4390   13.7080 C.3   176  ALA176      0.1597
     89  C          1.9640   -5.4150   14.6000 C.2   176  ALA176      0.2287
     90  O          2.3290   -5.2510   15.7710 O.2   176  ALA176     -0.2864
     91  CB         3.7070   -5.7640   12.8160 C.3   176  ALA176      0.0319
     92  N         -0.7090   -7.4250   17.0590 N.3   179  SER179     -0.1202
     93  CA         0.0620   -8.1510   18.0640 C.3   179  SER179      0.2020
     94  C          0.6410   -7.2110   19.1130 C.2   179  SER179      0.2619
     95  O          0.4920   -7.4380   20.3060 O.2   179  SER179     -0.2717
     96  CB         1.1910   -8.9460   17.4150 C.3   179  SER179      0.2103
     97  OG         1.7340   -9.8710   18.3440 O.3   179  SER179     -0.2182
     98  N          1.2950   -6.1510   18.6690 N.am  180  SER180     -0.1951
     99  CA         1.8220   -5.1650   19.6010 C.3   180  SER180      0.1924
    100  C          0.7550   -4.5360   20.5320 C.2   180  SER180      0.2314
    101  O          0.9530   -4.4810   21.7580 O.2   180  SER180     -0.2863
    102  CB         2.6040   -4.0910   18.8470 C.3   180  SER180      0.2116
    103  OG         3.7820   -4.6550   18.3160 O.3   180  SER180     -0.2180
    104  N         -0.8610   -7.6390   22.7120 N.3   183  SER183     -0.1217
    105  CA         0.0390   -8.3180   23.6620 C.3   183  SER183      0.1889
    106  C          0.7710   -7.3780   24.6010 C.2   183  SER183      0.2288
    107  O          1.1390   -7.7750   25.7020 O.2   183  SER183     -0.2866
    108  CB         1.0540   -9.2050   22.9530 C.3   183  SER183      0.2089
    109  OG         0.4020  -10.2770   22.2970 O.3   183  SER183     -0.2183
    110  N         11.3770   -3.2940   27.3710 N.3   243  TRP243     -0.1241
    111  CA        10.5280   -3.7060   26.2540 C.3   243  TRP243      0.1605
    112  C          9.9770   -2.5670   25.3940 C.2   243  TRP243      0.2264
    113  O          9.7020   -2.7460   24.2050 O.2   243  TRP243     -0.2867
    114  CB         9.4060   -4.5760   26.7630 C.3   243  TRP243      0.0550
    115  CG         9.8040   -5.9900   27.0040 C.ar  243  TRP243      0.0003
    116  CD1        9.9270   -6.6120   28.2170 C.ar  243  TRP243      0.0946
    117  CD2       10.1110   -6.9870   26.0130 C.ar  243  TRP243      0.0152
    118  NE1       10.2970   -7.9300   28.0460 N.ar  243  TRP243     -0.2442
    119  CE2       10.4090   -8.1890   26.7060 C.ar  243  TRP243      0.0810
    120  CE3       10.1780   -6.9800   24.6120 C.ar  243  TRP243      0.0012
    121  CZ2       10.7610   -9.3700   26.0460 C.ar  243  TRP243      0.0191
    122  CZ3       10.5460   -8.1760   23.9500 C.ar  243  TRP243      0.0001
    123  CH2       10.8280   -9.3450   24.6770 C.ar  243  TRP243      0.0015
    124  N         11.9700   -2.0850   21.9800 N.3   246  PHE246     -0.1227
    125  CA        11.6210   -3.0950   20.9640 C.3   246  PHE246      0.1736
    126  C         10.2590   -2.8700   20.3270 C.2   246  PHE246      0.2595
    127  O         10.1610   -2.8600   19.1150 O.2   246  PHE246     -0.2718
    128  CB        11.6590   -4.5050   21.5280 C.3   246  PHE246      0.0547
    129  CG        11.1450   -5.5550   20.5750 C.ar  246  PHE246     -0.0202
    130  CD1       11.9960   -6.1600   19.6600 C.ar  246  PHE246     -0.0042
    131  CD2        9.8100   -5.9570   20.6030 C.ar  246  PHE246     -0.0042
    132  CE1       11.5320   -7.1440   18.7970 C.ar  246  PHE246     -0.0003
    133  CE2        9.3330   -6.9450   19.7290 C.ar  246  PHE246     -0.0003
    134  CZ        10.1950   -7.5340   18.8270 C.ar  246  PHE246     -0.0000
    135  N          9.2130   -2.7060   21.1380 N.am  247  PHE247     -0.1976
    136  CA         7.8550   -2.5130   20.6130 C.3   247  PHE247      0.1639
    137  C          7.6230   -1.1770   19.9000 C.2   247  PHE247      0.2290
    138  O          6.7520   -1.0730   19.0370 O.2   247  PHE247     -0.2864
    139  CB         6.8190   -2.7090   21.7140 C.3   247  PHE247      0.0560
    140  CG         6.5370   -4.1290   22.0040 C.ar  247  PHE247     -0.0200
    141  CD1        5.7680   -4.8810   21.1360 C.ar  247  PHE247     -0.0042
    142  CD2        7.0600   -4.7340   23.1330 C.ar  247  PHE247     -0.0042
    143  CE1        5.5080   -6.2270   21.4020 C.ar  247  PHE247     -0.0003
    144  CE2        6.8120   -6.0910   23.4160 C.ar  247  PHE247     -0.0003
    145  CZ         6.0380   -6.8390   22.5470 C.ar  247  PHE247     -0.0000
    146  N          9.3110   -1.8590   16.6290 N.3   250  ASN250     -0.1240
    147  CA         8.3790   -2.7440   15.9270 C.3   250  ASN250      0.1653
    148  C          7.3780   -1.9710   15.0850 C.2   250  ASN250      0.2266
    149  O          7.1030   -2.3320   13.9440 O.2   250  ASN250     -0.2867
    150  CB         7.6340   -3.6130   16.9480 C.3   250  ASN250      0.1155
    151  CG         7.1900   -4.9490   16.3870 C.2   250  ASN250      0.2627
    152  OD1        7.9620   -5.6580   15.7430 O.2   250  ASN250     -0.2716
    153  ND2        5.9490   -5.3170   16.6630 N.am  250  ASN250     -0.0877
    154  N         17.3640   -3.5140   15.9340 N.3   265  PHE265     -0.1241
    155  CA        16.1220   -4.2380   16.1540 C.3   265  PHE265      0.1605
    156  C         16.3900   -5.4900   16.9820 C.2   265  PHE265      0.2264
    157  O         15.7270   -5.7250   17.9900 O.2   265  PHE265     -0.2867
    158  CB        15.4990   -4.6040   14.7970 C.3   265  PHE265      0.0534
    159  CG        14.1130   -5.1800   14.8820 C.ar  265  PHE265     -0.0203
    160  CD1       13.9210   -6.5590   15.0550 C.ar  265  PHE265     -0.0042
    161  CD2       13.0000   -4.3580   14.7480 C.ar  265  PHE265     -0.0042
    162  CE1       12.6360   -7.0990   15.1170 C.ar  265  PHE265     -0.0003
    163  CE2       11.7140   -4.8810   14.8160 C.ar  265  PHE265     -0.0003
    164  CZ        11.5260   -6.2520   14.9990 C.ar  265  PHE265     -0.0000
    165  N         15.3980   -6.5740   20.9960 N.3   269  ASN269     -0.1240
    166  CA        14.7370   -7.8180   21.3510 C.3   269  ASN269      0.1653
    167  C         15.4850   -8.5330   22.4760 C.2   269  ASN269      0.2266
    168  O         14.8720   -9.1790   23.3300 O.2   269  ASN269     -0.2867
    169  CB        14.6390   -8.7110   20.1160 C.3   269  ASN269      0.1155
    170  CG        13.5410   -9.7730   20.2200 C.2   269  ASN269      0.2627
    171  OD1       12.8830  -10.0840   19.2250 O.2   269  ASN269     -0.2716
    172  ND2       13.3610  -10.3490   21.4060 N.am  269  ASN269     -0.0877
    173  N         14.7980   -9.9010   26.2030 N.3   273  TYR273     -0.1241
    174  CA        15.1340  -11.1790   26.8250 C.3   273  TYR273      0.1605
    175  C         15.8700  -10.9890   28.1620 C.2   273  TYR273      0.2264
    176  O         15.6810  -11.7600   29.1060 O.2   273  TYR273     -0.2867
    177  CB        15.9830  -12.0230   25.8840 C.3   273  TYR273      0.0534
    178  CG        15.2860  -12.5050   24.6310 C.ar  273  TYR273     -0.0201
    179  CD1       13.8970  -12.4470   24.4940 C.ar  273  TYR273     -0.0009
    180  CD2       16.0270  -13.0380   23.5740 C.ar  273  TYR273     -0.0009
    181  CE1       13.2660  -12.9140   23.3430 C.ar  273  TYR273      0.0417
    182  CE2       15.4020  -13.5110   22.4180 C.ar  273  TYR273      0.0417
    183  CZ        14.0220  -13.4430   22.3130 C.ar  273  TYR273      0.1957
    184  OH        13.4170  -13.9050   21.1680 O.3   273  TYR273     -0.2866
@<TRIPOS>BOND
     1    71    70    2
     2    70    69    1
     3    68    69    1
     4    69    72    1
     5    51    52    1
     6    72    73    1
     7    72    74    1
     8    52    53    1
     9    52    55    1
    10    59    60    2
    11    59    58    1
    12    75    76    1
    13    53    54    2
    14    57    58    1
    15    58    61    1
    16    79    76    1
    17    79    80    1
    18    55    56    1
    19    76    77    1
    20    91    88    1
    21    87    77   am
    22    87    88    1
    23    80    82   ar
    24    80    81   ar
    25    63    65   ar
    26    63    62   ar
    27    77    78    2
    28    61    62    1
    29    88    89    1
    30    65    67   ar
    31    82    84   ar
    32   149   148    2
    33    62    64   ar
    34    81    83   ar
    35    89    90    2
    36   161   163   ar
    37   161   159   ar
    38   158   159    1
    39   158   155    1
    40    67    66   ar
    41   163   164   ar
    42   159   160   ar
    43    64    66   ar
    44    84    85   ar
    45   164   162   ar
    46   160   162   ar
    47   148   147    1
    48    83    85   ar
    49    85    86    1
    50   152   151    2
    51    20    19    1
    52   147   146    1
    53   147   150    1
    54   154   155    1
    55   155   156    1
    56   151   153   am
    57   151   150    1
    58    21    19    1
    59    19    16    1
    60    13    11   ar
    61    13    14   ar
    62   156   157    2
    63    92    93    1
    64    11     8   ar
    65    96    93    1
    66    96    97    1
    67    14    12   ar
    68    93    94    1
    69    16    15    1
    70    16    17    1
    71    15     3   am
    72   103   102    1
    73     8     6   ar
    74     8    10   ar
    75    98    94   am
    76    98    99    1
    77   132   134   ar
    78   132   130   ar
    79   134   133   ar
    80     1     2    1
    81   102    99    1
    82     5     6    1
    83     5     2    1
    84   138   137    2
    85    17    18    2
    86    94    95    2
    87   127   126    2
    88    12    10   ar
    89   171   170    2
    90     6     7   ar
    91     3     2    1
    92     3     4    2
    93    10     9   ar
    94    99   100    1
    95   130   129   ar
    96   133   131   ar
    97    36    34    1
    98   137   136    1
    99   169   170    1
   100   169   166    1
   101   170   172   am
   102   126   125    1
   103   126   135   am
   104   100   101    2
   105   129   131   ar
   106   129   128    1
   107   136   135    1
   108   136   139    1
   109     7     9   ar
   110    29    27   ar
   111   125   128    1
   112   125   124    1
   113    34    35    1
   114    34    31    1
   115   165   166    1
   116   141   143   ar
   117   141   140   ar
   118   184   183    1
   119   166   167    1
   120   143   145   ar
   121    26    27    1
   122    26    23    1
   123   139   140    1
   124    27    28   ar
   125   140   142   ar
   126    30    31    1
   127    30    24   am
   128    31    32    1
   129   109   108    1
   130   183   182   ar
   131   183   181   ar
   132   182   180   ar
   133   167   168    2
   134   145   144   ar
   135    22    23    1
   136   104   105    1
   137    23    24    1
   138   108   105    1
   139    24    25    2
   140   142   144   ar
   141   181   179   ar
   142    32    33    2
   143   180   178   ar
   144   105   106    1
   145   122   120   ar
   146   122   123   ar
   147   113   112    2
   148   179   178   ar
   149   106   107    2
   150   120   117   ar
   151   178   177    1
   152    49    48    1
   153   123   121   ar
   154    43    41    1
   155   112   111    1
   156    41    42    1
   157    41    38    1
   158   177   174    1
   159    48    50    1
   160    48    45    1
   161   117   119   ar
   162   117   115   ar
   163   121   119   ar
   164   173   174    1
   165   111   114    1
   166   111   110    1
   167   119   118   ar
   168   114   115    1
   169    44    45    1
   170    44    39   am
   171   174   175    1
   172    37    38    1
   173   115   116   ar
   174    45    46    1
   175    38    39    1
   176    39    40    2
   177   118   116   ar
   178   175   176    2
   179    46    47    2
