@<TRIPOS>MOLECULE
tmp/2y05A01.pdb
 132 127 0 0 0
SMALL
GASTEIGER

@<TRIPOS>ATOM
      1  N         47.3410   57.6120   16.3260 N.3    47  PRO47      -0.2102
      2  CA        46.8350   57.2560   15.0000 C.3    47  PRO47       0.1504
      3  C         45.8430   56.1080   14.9690 C.2    47  PRO47       0.2575
      4  O         44.9300   56.1660   14.1590 O.2    47  PRO47      -0.2718
      5  CB        48.0860   56.8800   14.2280 C.3    47  PRO47       0.0282
      6  CG        49.1790   57.6330   14.8970 C.3    47  PRO47       0.0208
      7  CD        48.8060   57.6680   16.3630 C.3    47  PRO47       0.0893
      8  N         46.0170   55.0670   15.7980 N.am   48  TYR48      -0.1977
      9  CA        45.0590   53.9300   15.7840 C.3    48  TYR48       0.1639
     10  C         43.6370   54.4250   16.0010 C.2    48  TYR48       0.2290
     11  O         42.6950   53.8080   15.5350 O.2    48  TYR48      -0.2864
     12  CB        45.3900   52.8450   16.8270 C.3    48  TYR48       0.0560
     13  CG        44.9440   53.1730   18.2550 C.ar   48  TYR48      -0.0198
     14  CD1       43.6170   53.0170   18.6480 C.ar   48  TYR48      -0.0009
     15  CD2       45.8450   53.6600   19.1910 C.ar   48  TYR48      -0.0009
     16  CE1       43.1990   53.3400   19.9390 C.ar   48  TYR48       0.0417
     17  CE2       45.4560   53.9790   20.4750 C.ar   48  TYR48       0.0417
     18  CZ        44.1260   53.8170   20.8540 C.ar   48  TYR48       0.1957
     19  OH        43.7210   54.1340   22.1330 O.3    48  TYR48      -0.2866
     20  N         41.4630   54.6870   12.9120 N.3    51  VAL51      -0.1231
     21  CA        40.9500   53.4280   12.3790 C.3    51  VAL51       0.1692
     22  C         39.8730   52.8500   13.3070 C.2    51  VAL51       0.2591
     23  O         38.8090   52.4400   12.8490 O.2    51  VAL51      -0.2718
     24  CB        42.0950   52.3840   12.1860 C.3    51  VAL51       0.0266
     25  CG1       41.5630   51.1190   11.5530 C.3    51  VAL51       0.0020
     26  CG2       43.2190   52.9520   11.3250 C.3    51  VAL51       0.0020
     27  N         40.1520   52.8040   14.6030 N.am   52  ALA52      -0.1980
     28  CA        39.2240   52.2250   15.5750 C.3    52  ALA52       0.1597
     29  C         37.9250   53.0080   15.6280 C.2    52  ALA52       0.2287
     30  O         36.8710   52.4200   15.9120 O.2    52  ALA52      -0.2864
     31  CB        39.8510   52.1040   16.9770 C.3    52  ALA52       0.0319
     32  N         34.7270   51.7360   13.8760 N.3    55  ARG55      -0.1245
     33  CA        33.8890   50.7060   14.5240 C.3    55  ARG55       0.1563
     34  C         32.8420   51.2630   15.4760 C.2    55  ARG55       0.2260
     35  O         31.9990   50.5110   15.9470 O.2    55  ARG55      -0.2867
     36  CB        34.7520   49.7220   15.3120 C.3    55  ARG55       0.0307
     37  CG        35.8750   49.0750   14.5060 C.3    55  ARG55       0.0489
     38  CD        35.3730   48.3380   13.2510 C.3    55  ARG55       0.2205
     39  NE        36.4270   48.3790   12.2400 N.pl3  55  ARG55      -0.0865
     40  CZ        36.3300   48.8510   11.0000 C.cat  55  ARG55       0.5346
     41  NH1       35.1800   49.3040   10.4980 N.pl3  55  ARG55       0.1354
     42  NH2       37.4110   48.8250   10.2310 N.pl3  55  ARG55       0.1354
     43  N         37.6800   56.6010   21.8890 N.3    63  MET63      -0.1245
     44  CA        38.4960   55.7160   22.7400 C.3    63  MET63       0.1570
     45  C         39.8530   56.3350   23.0010 C.2    63  MET63       0.2261
     46  O         40.3150   57.1640   22.2190 O.2    63  MET63      -0.2867
     47  CB        38.6850   54.3530   22.0920 C.3    63  MET63       0.0387
     48  CG        39.6780   54.3200   20.9230 C.3    63  MET63       0.0595
     49  SD        39.1570   55.3550   19.5950 S.3    63  MET63      -0.1393
     50  CE        37.7360   54.4370   18.9830 C.3    63  MET63       0.0692
     51  N         43.5670   56.2700   26.0850 N.3    65  GLN65      -0.1245
     52  CA        44.2010   56.1890   27.3990 C.3    65  GLN65       0.1566
     53  C         44.5110   57.5820   27.9810 C.2    65  GLN65       0.2260
     54  O         44.5610   58.5970   27.2580 O.2    65  GLN65      -0.2867
     55  CB        45.4810   55.3510   27.2800 C.3    65  GLN65       0.0367
     56  CG        46.0120   54.7720   28.5600 C.3    65  GLN65       0.0905
     57  CD        47.2660   53.9730   28.3320 C.2    65  GLN65       0.2608
     58  OE1       48.1630   54.3980   27.6120 O.2    65  GLN65      -0.2717
     59  NE2       47.3380   52.8190   28.9260 N.am   65  GLN65      -0.0878
     60  N         41.7840   53.7930   30.6370 N.3    87  SER87      -0.1217
     61  CA        41.2980   53.9730   29.2780 C.3    87  SER87       0.1889
     62  C         39.7930   54.2390   29.1670 C.2    87  SER87       0.2288
     63  O         39.0750   53.5450   28.4490 O.2    87  SER87      -0.2866
     64  CB        41.7280   52.7940   28.4280 C.3    87  SER87       0.2089
     65  OG        43.1300   52.6530   28.5070 O.3    87  SER87      -0.2183
     66  N         52.9510   52.8260   25.6440 N.3   123  MET123     -0.1245
     67  CA        52.5490   51.9820   24.5440 C.3   123  MET123      0.1570
     68  C         53.4260   52.2810   23.3190 C.2   123  MET123      0.2261
     69  O         54.0220   51.3740   22.7570 O.2   123  MET123     -0.2867
     70  CB        51.0270   52.0880   24.3170 C.3   123  MET123      0.0387
     71  CG        50.5110   51.2860   23.1480 C.3   123  MET123      0.0595
     72  SD        50.7920   52.2150   21.6430 S.3   123  MET123     -0.1393
     73  CE        49.2920   53.2170   21.6890 C.3   123  MET123      0.0692
     74  N         54.3560   48.1420   11.2690 N.3   238  CYS238     -0.1221
     75  CA        53.9210   48.6910   12.5250 C.3   238  CYS238      0.1808
     76  C         52.6680   49.5050   12.2710 C.2   238  CYS238      0.2601
     77  O         51.6930   49.3800   12.9870 O.2   238  CYS238     -0.2717
     78  CB        55.0330   49.5800   13.1290 C.3   238  CYS238      0.0970
     79  SG        54.5140   50.5410   14.5460 S.3   238  CYS238     -0.0800
     80  N         52.7010   50.3350   11.2410 N.am  239  GLY239     -0.1957
     81  CA        51.5390   51.1350   10.8590 C.3   239  GLY239      0.1869
     82  C         51.5650   51.4930    9.3940 C.2   239  GLY239      0.2309
     83  O         52.5080   51.1640    8.6810 O.2   239  GLY239     -0.2863
     84  N         45.4060   55.8330    6.4410 N.3   244  TYR244     -0.1241
     85  CA        44.3000   55.9120    7.4170 C.3   244  TYR244      0.1605
     86  C         43.2690   56.9900    7.0970 C.2   244  TYR244      0.2264
     87  O         42.1000   56.8410    7.4460 O.2   244  TYR244     -0.2867
     88  CB        44.7850   56.1960    8.8450 C.3   244  TYR244      0.0534
     89  CG        45.7720   55.2270    9.4480 C.ar  244  TYR244     -0.0201
     90  CD1       46.0690   54.0110    8.8430 C.ar  244  TYR244     -0.0009
     91  CD2       46.3870   55.5260   10.6570 C.ar  244  TYR244     -0.0009
     92  CE1       46.9690   53.1550    9.4040 C.ar  244  TYR244      0.0417
     93  CE2       47.2930   54.6630   11.2230 C.ar  244  TYR244      0.0417
     94  CZ        47.5950   53.4880   10.5750 C.ar  244  TYR244      0.1957
     95  OH        48.5260   52.6130   11.0960 O.3   244  TYR244     -0.2866
     96  N         52.4960   43.5640   13.5250 N.3   269  PHE269     -0.1227
     97  CA        52.3040   43.2390   14.9380 C.3   269  PHE269      0.1736
     98  C         51.4190   44.2650   15.6020 C.2   269  PHE269      0.2595
     99  O         51.2690   45.3850   15.0980 O.2   269  PHE269     -0.2718
    100  CB        53.6690   43.2110   15.6490 C.3   269  PHE269      0.0547
    101  CG        54.3820   44.5350   15.6310 C.ar  269  PHE269     -0.0202
    102  CD1       55.0230   44.9780   14.4780 C.ar  269  PHE269     -0.0042
    103  CD2       54.3730   45.3580   16.7540 C.ar  269  PHE269     -0.0042
    104  CE1       55.6680   46.2240   14.4590 C.ar  269  PHE269     -0.0003
    105  CE2       55.0440   46.5980   16.7570 C.ar  269  PHE269     -0.0003
    106  CZ        55.6900   47.0290   15.6210 C.ar  269  PHE269     -0.0000
    107  N         50.8470   43.8850   16.7340 N.am  270  VAL270     -0.1966
    108  CA        50.1570   44.8260   17.6060 C.3   270  VAL270      0.1727
    109  C         50.8460   44.7780   18.9740 C.2   270  VAL270      0.2616
    110  O         51.0800   43.7110   19.5130 O.2   270  VAL270     -0.2715
    111  CB        48.6580   44.5130   17.7420 C.3   270  VAL270      0.0290
    112  CG1       48.0090   45.5040   18.6930 C.3   270  VAL270      0.0023
    113  CG2       47.9640   44.5720   16.3830 C.3   270  VAL270      0.0023
    114  N         51.1590   45.9440   19.5300 N.am  271  VAL271     -0.1963
    115  CA        51.9610   46.0900   20.7610 C.3   271  VAL271      0.1727
    116  C         51.4050   45.2930   21.9430 C.2   271  VAL271      0.2616
    117  O         52.1530   44.7040   22.7350 O.2   271  VAL271     -0.2715
    118  CB        52.1350   47.5980   21.1180 C.3   271  VAL271      0.0290
    119  CG1       50.7750   48.2520   21.4370 C.3   271  VAL271      0.0023
    120  CG2       53.1320   47.7910   22.2740 C.3   271  VAL271      0.0023
    121  N         50.0890   45.2140   22.0340 N.am  272  TYR272     -0.1974
    122  CA        49.4340   44.5170   23.1330 C.3   272  TYR272      0.1639
    123  C         49.6820   43.0040   23.1450 C.2   272  TYR272      0.2290
    124  O         49.4010   42.3500   24.1370 O.2   272  TYR272     -0.2864
    125  CB        47.9430   44.8470   23.1530 C.3   272  TYR272      0.0560
    126  CG        47.6960   46.3320   23.1160 C.ar  272  TYR272     -0.0198
    127  CD1       47.8640   47.1080   24.2450 C.ar  272  TYR272     -0.0009
    128  CD2       47.2880   46.9580   21.9360 C.ar  272  TYR272     -0.0009
    129  CE1       47.6450   48.4950   24.2070 C.ar  272  TYR272      0.0417
    130  CE2       47.0590   48.3120   21.8790 C.ar  272  TYR272      0.0417
    131  CZ        47.2610   49.0890   23.0180 C.ar  272  TYR272      0.1957
    132  OH        47.0230   50.4370   22.9640 O.3   272  TYR272     -0.2866
@<TRIPOS>BOND
     1    84    85    1
     2    86    85    1
     3    86    87    2
     4    85    88    1
     5    83    82    2
     6    90    92   ar
     7    90    89   ar
     8    88    89    1
     9    82    81    1
    10    92    94   ar
    11    89    91   ar
    12    42    40    1
    13    41    40    1
    14    94    95    1
    15    94    93   ar
    16    91    93   ar
    17    81    80    1
    18    40    39    2
    19    80    76   am
    20    74    75    1
    21    26    24    1
    22    25    24    1
    23    24    21    1
    24    39    38    1
    25    76    75    1
    26    76    77    2
    27    21    20    1
    28    21    22    1
    29    75    78    1
    30    23    22    2
    31    78    79    1
    32    38    37    1
    33    22    27   am
    34    96    97    1
    35    32    33    1
    36     4     3    2
    37     5     6    1
    38     5     2    1
    39   104   102   ar
    40   104   106   ar
    41   102   101   ar
    42    37    36    1
    43    33    36    1
    44    33    34    1
    45    27    28    1
    46     6     7    1
    47    97    98    1
    48    97   100    1
    49     3     2    1
    50     3     8   am
    51     2     1    1
    52    99    98    2
    53    34    35    2
    54    11    10    2
    55    28    29    1
    56    28    31    1
    57    98   107   am
    58   106   105   ar
    59    29    30    2
    60   101   100    1
    61   101   103   ar
    62     9     8    1
    63     9    10    1
    64     9    12    1
    65     1     7    1
    66   113   111    1
    67   107   108    1
    68   103   105   ar
    69    12    13    1
    70   108   111    1
    71   108   109    1
    72   111   112    1
    73    13    14   ar
    74    13    15   ar
    75    14    16   ar
    76   109   110    2
    77   109   114   am
    78    50    49    1
    79    15    17   ar
    80   114   115    1
    81    49    48    1
    82    16    18   ar
    83    17    18   ar
    84   115   118    1
    85   115   116    1
    86    18    19    1
    87    48    47    1
    88   118   119    1
    89   118   120    1
    90    72    73    1
    91    72    71    1
    92   130   128   ar
    93   130   131   ar
    94    43    44    1
    95   128   126   ar
    96   116   121   am
    97   116   117    2
    98   121   122    1
    99    47    44    1
   100    46    45    2
   101    44    45    1
   102    69    68    2
   103   132   131    1
   104   131   129   ar
   105   126   125    1
   106   126   127   ar
   107   122   123    1
   108   122   125    1
   109   123   124    2
   110    71    70    1
   111    68    67    1
   112   129   127   ar
   113    70    67    1
   114    67    66    1
   115    51    52    1
   116    54    53    2
   117    55    52    1
   118    55    56    1
   119    52    53    1
   120    58    57    2
   121    57    56    1
   122    57    59   am
   123    64    65    1
   124    64    61    1
   125    63    62    2
   126    62    61    1
   127    61    60    1
