@<TRIPOS>MOLECULE
tmp/2y0aA00.pdb
 121 112 0 0 0
SMALL
GASTEIGER

@<TRIPOS>ATOM
      1  N          3.3660  -11.8830  -20.3990 N.3    17  LEU17      -0.1245
      2  CA         3.9890  -10.8700  -19.5570 C.3    17  LEU17       0.1561
      3  C          5.3390  -10.3810  -20.0970 C.2    17  LEU17       0.2260
      4  O          6.0260   -9.5990  -19.4340 O.2    17  LEU17      -0.2867
      5  CB         4.2340  -11.4210  -18.1460 C.3    17  LEU17       0.0270
      6  CG         3.1680  -12.0840  -17.2810 C.3    17  LEU17       0.0019
      7  CD1        3.8750  -12.7040  -16.0990 C.3    17  LEU17       0.0001
      8  CD2        2.1300  -11.0880  -16.7960 C.3    17  LEU17       0.0001
      9  N          6.8610  -15.6070  -21.4500 N.3    25  VAL25      -0.1245
     10  CA         6.3920  -15.6840  -20.0720 C.3    25  VAL25       0.1561
     11  C          4.8910  -15.4040  -20.0470 C.2    25  VAL25       0.2260
     12  O          4.4500  -14.3680  -20.5050 O.2    25  VAL25      -0.2867
     13  CB         7.1840  -14.7360  -19.1040 C.3    25  VAL25       0.0252
     14  CG1        6.7620  -14.9470  -17.6180 C.3    25  VAL25       0.0019
     15  CG2        8.6910  -14.9560  -19.2480 C.3    25  VAL25       0.0019
     16  N          3.9980  -17.7030  -12.6470 N.3    38  ALA38      -0.1245
     17  CA         4.3040  -17.2700  -14.0030 C.3    38  ALA38       0.1562
     18  C          5.0080  -18.4460  -14.6770 C.2    38  ALA38       0.2260
     19  O          5.8180  -19.1070  -14.0720 O.2    38  ALA38      -0.2867
     20  CB         5.1940  -16.0800  -13.9590 C.3    38  ALA38       0.0290
     21  N          7.5240  -19.5950  -17.4820 N.3    40  LYS40      -0.1245
     22  CA         8.5250  -19.2330  -18.4930 C.3    40  LYS40       0.1561
     23  C          8.7280  -20.3980  -19.4630 C.2    40  LYS40       0.2260
     24  O          9.2480  -21.4260  -19.0500 O.2    40  LYS40      -0.2867
     25  CB         9.8900  -18.8960  -17.8540 C.3    40  LYS40       0.0271
     26  CG        10.7960  -18.0390  -18.8020 C.3    40  LYS40       0.0035
     27  CD        12.2790  -18.2870  -18.6130 C.3    40  LYS40       0.0206
     28  CE        13.1440  -17.0180  -18.7060 C.3    40  LYS40       0.1093
     29  NZ        14.2040  -17.2740  -17.6590 N.3    40  LYS40      -0.1314
     30  N         20.7420  -23.1650  -15.4110 N.3    62  GLU62      -0.1245
     31  CA        19.7970  -22.2260  -14.8650 C.3    62  GLU62       0.1567
     32  C         18.8790  -22.8640  -13.7950 C.2    62  GLU62       0.2260
     33  O         18.7560  -22.3510  -12.6640 O.2    62  GLU62      -0.2867
     34  CB        18.9820  -21.6070  -15.9990 C.3    62  GLU62       0.0388
     35  CG        18.1770  -20.3920  -15.5520 C.3    62  GLU62       0.1160
     36  CD        17.2390  -19.7910  -16.6180 C.2    62  GLU62       0.3649
     37  OE1       17.4280  -19.9430  -17.8710 O.co2  62  GLU62      -0.2457
     38  OE2       16.2920  -19.1160  -16.1680 O.co2  62  GLU62      -0.2457
     39  N         18.5860  -22.1050   -9.8300 N.3    66  LEU66      -0.1245
     40  CA        17.2640  -21.7650   -9.3080 C.3    66  LEU66       0.1561
     41  C         16.7010  -22.7100   -8.2280 C.2    66  LEU66       0.2260
     42  O         16.1260  -22.2360   -7.2380 O.2    66  LEU66      -0.2867
     43  CB        16.2840  -21.6540  -10.4660 C.3    66  LEU66       0.0270
     44  CG        16.4340  -20.3980  -11.3230 C.3    66  LEU66       0.0019
     45  CD1       15.5570  -20.4600  -12.5410 C.3    66  LEU66       0.0001
     46  CD2       16.1380  -19.1390  -10.4900 C.3    66  LEU66       0.0001
     47  N         14.1910  -14.5240   -6.7800 N.3    75  ILE75      -0.1245
     48  CA        13.0080  -15.1970   -7.2890 C.3    75  ILE75       0.1561
     49  C         13.0460  -16.6770   -6.9570 C.2    75  ILE75       0.2260
     50  O         14.1040  -17.2450   -6.9010 O.2    75  ILE75      -0.2867
     51  CB        12.9050  -15.0030   -8.8390 C.3    75  ILE75       0.0252
     52  CG1       11.4870  -15.3250   -9.3320 C.3    75  ILE75       0.0019
     53  CG2       13.9740  -15.8610   -9.5940 C.3    75  ILE75       0.0019
     54  CD1       11.1520  -14.7430  -10.6610 C.3    75  ILE75       0.0001
     55  N          7.5320  -20.1160  -12.1510 N.3    91  LEU91      -0.1231
     56  CA         8.2840  -19.1900  -11.3200 C.3    91  LEU91       0.1693
     57  C          7.3530  -18.4060  -10.4250 C.2    91  LEU91       0.2592
     58  O          6.1750  -18.2330  -10.7550 O.2    91  LEU91      -0.2718
     59  CB         9.0690  -18.1990  -12.1760 C.3    91  LEU91       0.0284
     60  CG        10.1430  -18.8000  -13.0600 C.3    91  LEU91       0.0019
     61  CD1       10.4330  -17.8510  -14.2300 C.3    91  LEU91       0.0001
     62  CD2       11.3920  -19.0950  -12.2120 C.3    91  LEU91       0.0001
     63  N          7.8950  -17.8940   -9.3190 N.am   92  GLU92      -0.1966
     64  CA         7.1710  -16.9490   -8.5150 C.3    92  GLU92       0.1733
     65  C          6.7190  -15.7410   -9.3780 C.2    92  GLU92       0.2616
     66  O          7.4630  -15.2590  -10.2240 O.2    92  GLU92      -0.2715
     67  CB         8.0350  -16.5370   -7.3130 C.3    92  GLU92       0.0429
     68  CG         7.5740  -15.2950   -6.5860 C.3    92  GLU92       0.1163
     69  CD         8.4320  -14.9640   -5.3190 C.2    92  GLU92       0.3649
     70  OE1        9.7170  -14.9590   -5.3970 O.co2  92  GLU92      -0.2457
     71  OE2        7.8030  -14.6720   -4.2480 O.co2  92  GLU92      -0.2457
     72  N          5.5030  -15.2530   -9.1480 N.am   93  LEU93      -0.1963
     73  CA         5.0080  -14.0780   -9.8560 C.3    93  LEU93       0.1728
     74  C          5.4720  -12.7200   -9.2490 C.2    93  LEU93       0.2616
     75  O          5.0990  -12.3530   -8.1470 O.2    93  LEU93      -0.2715
     76  CB         3.4810  -14.1430  -10.0520 C.3    93  LEU93       0.0311
     77  CG         2.9450  -12.8920  -10.7850 C.3    93  LEU93       0.0022
     78  CD1        3.1970  -12.9430  -12.3000 C.3    93  LEU93       0.0001
     79  CD2        1.5060  -12.6230  -10.4830 C.3    93  LEU93       0.0001
     80  N          6.2770  -11.9890  -10.0060 N.am   94  VAL94      -0.1977
     81  CA         6.8210  -10.6980   -9.6110 C.3    94  VAL94       0.1596
     82  C          6.0360   -9.5890  -10.3340 C.2    94  VAL94       0.2287
     83  O          6.2710   -9.2560  -11.5090 O.2    94  VAL94      -0.2864
     84  CB         8.3640  -10.6670   -9.8520 C.3    94  VAL94       0.0276
     85  CG1        8.9620   -9.3500   -9.4950 C.3    94  VAL94       0.0022
     86  CG2        9.0570  -11.7370   -8.9990 C.3    94  VAL94       0.0022
     87  N         13.5100   -6.0030   -9.6100 N.3   144  MET144     -0.1245
     88  CA        12.0500   -5.8400   -9.6630 C.3   144  MET144      0.1570
     89  C         11.4320   -5.6570   -8.2780 C.2   144  MET144      0.2261
     90  O         12.1450   -5.6830   -7.2980 O.2   144  MET144     -0.2867
     91  CB        11.3940   -7.0340  -10.3350 C.3   144  MET144      0.0387
     92  CG        11.8660   -7.2900  -11.7240 C.3   144  MET144      0.0595
     93  SD        10.8680   -6.5630  -13.0250 S.3   144  MET144     -0.1393
     94  CE         9.8880   -8.0250  -13.5050 C.3   144  MET144      0.0692
     95  N         15.9410  -11.0220  -10.4960 N.3   158  ILE158     -0.1231
     96  CA        15.3990  -12.0050  -11.4040 C.3   158  ILE158      0.1692
     97  C         16.4540  -12.3720  -12.4120 C.2   158  ILE158      0.2592
     98  O         17.5570  -11.7910  -12.4240 O.2   158  ILE158     -0.2718
     99  CB        14.1280  -11.5120  -12.1100 C.3   158  ILE158      0.0266
    100  CG1       14.3990  -10.2900  -12.9990 C.3   158  ILE158      0.0019
    101  CG2       13.0240  -11.1800  -11.0700 C.3   158  ILE158      0.0020
    102  CD1       13.3420   -9.9960  -14.1030 C.3   158  ILE158      0.0001
    103  N         16.1420  -13.3990  -13.1970 N.am  159  ASP159     -0.1960
    104  CA        16.8270  -13.6800  -14.4440 C.3   159  ASP159      0.1840
    105  C         18.2460  -14.3280  -14.3500 C.2   159  ASP159      0.2622
    106  O         19.2820  -13.6430  -14.4820 O.2   159  ASP159     -0.2715
    107  CB        16.7910  -12.4350  -15.3240 C.3   159  ASP159      0.1450
    108  CG        16.9790  -12.7690  -16.7800 C.2   159  ASP159      0.3671
    109  OD1       17.7010  -13.7720  -17.0640 O.co2 159  ASP159     -0.2456
    110  OD2       16.3960  -12.0320  -17.6250 O.co2 159  ASP159     -0.2456
    111  N         18.2530  -15.6530  -14.1580 N.am  160  PHE160     -0.1974
    112  CA        19.4510  -16.4320  -13.9120 C.3   160  PHE160      0.1639
    113  C         20.0660  -17.1630  -15.1470 C.2   160  PHE160      0.2290
    114  O         21.0050  -17.9540  -15.0400 O.2   160  PHE160     -0.2864
    115  CB        19.2130  -17.3430  -12.6990 C.3   160  PHE160      0.0560
    116  CG        19.1410  -16.5750  -11.4240 C.ar  160  PHE160     -0.0200
    117  CD1       18.0470  -15.7290  -11.1540 C.ar  160  PHE160     -0.0042
    118  CD2       20.2000  -16.6010  -10.5130 C.ar  160  PHE160     -0.0042
    119  CE1       18.0130  -14.9500   -9.9980 C.ar  160  PHE160     -0.0003
    120  CE2       20.1540  -15.8370   -9.3280 C.ar  160  PHE160     -0.0003
    121  CZ        19.0660  -15.0140   -9.0860 C.ar  160  PHE160     -0.0000
@<TRIPOS>BOND
     1     9    10    1
     2    12    11    2
     3     1     2    1
     4     3     2    1
     5     3     4    2
     6    10    11    1
     7    10    13    1
     8     2     5    1
     9    23    24    2
    10    23    22    1
    11    15    13    1
    12    13    14    1
    13    26    27    1
    14    26    25    1
    15    28    27    1
    16    28    29    1
    17    22    25    1
    18    22    21    1
    19     5     6    1
    20    37    36   ar
    21   110   108   ar
    22     6     8    1
    23     6     7    1
    24   109   108   ar
    25   108   107    1
    26    36    38   ar
    27    36    35    1
    28    34    35    1
    29    34    31    1
    30    30    31    1
    31   107   104    1
    32   113   114    2
    33   113   112    1
    34    31    32    1
    35    18    19    2
    36    18    17    1
    37   106   105    2
    38   104   105    1
    39   104   103    1
    40   105   111   am
    41    61    60    1
    42   111   112    1
    43   102   100    1
    44    17    20    1
    45    17    16    1
    46   112   115    1
    47    32    33    2
    48    94    93    1
    49   103    97   am
    50    60    62    1
    51    60    59    1
    52    93    92    1
    53   100    99    1
    54   115   116    1
    55    45    44    1
    56    98    97    2
    57    97    96    1
    58    78    77    1
    59    59    56    1
    60    55    56    1
    61    99    96    1
    62    99   101    1
    63    92    91    1
    64    83    82    2
    65   116   117   ar
    66   116   118   ar
    67    96    95    1
    68    44    46    1
    69    44    43    1
    70    56    57    1
    71   117   119   ar
    72    77    79    1
    73    77    76    1
    74    58    57    2
    75    54    52    1
    76   118   120   ar
    77    43    40    1
    78    57    63   am
    79    91    88    1
    80    82    81    1
    81    66    65    2
    82    76    73    1
    83    80    81    1
    84    80    74   am
    85   119   121   ar
    86    73    74    1
    87    73    72    1
    88    84    81    1
    89    84    85    1
    90    84    86    1
    91    39    40    1
    92    88    87    1
    93    88    89    1
    94    53    51    1
    95    65    72   am
    96    65    64    1
    97    52    51    1
    98   120   121   ar
    99    63    64    1
   100    40    41    1
   101    74    75    2
   102    51    48    1
   103    64    67    1
   104    89    90    2
   105    41    42    2
   106    67    68    1
   107    48    49    1
   108    48    47    1
   109    49    50    2
   110    68    69    1
   111    70    69   ar
   112    69    71   ar
