@<TRIPOS>MOLECULE
tmp/2y0cA00.pdb
 219 210 0 0 0
SMALL
GASTEIGER

@<TRIPOS>ATOM
      1  N         58.0610   -3.2530   -0.8500 N.3   123  THR123     -0.1218
      2  CA        58.2290   -4.4790   -0.0630 C.3   123  THR123      0.1862
      3  C         57.6280   -5.6860   -0.7780 C.2   123  THR123      0.2287
      4  O         56.4180   -5.7830   -0.9410 O.2   123  THR123     -0.2866
      5  CB        57.6440   -4.2950    1.3300 C.3   123  THR123      0.1770
      6  OG1       58.3520   -3.2130    1.9840 O.3   123  THR123     -0.2211
      7  CG2       57.7490   -5.5900    2.1480 C.3   123  THR123      0.0375
      8  N         62.8630   -0.3520    1.4560 N.3   156  GLU156     -0.1231
      9  CA        62.7290    0.9200    2.1690 C.3   156  GLU156      0.1699
     10  C         62.5560    0.6700    3.6600 C.2   156  GLU156      0.2592
     11  O         61.8670   -0.2680    4.0600 O.2   156  GLU156     -0.2718
     12  CB        61.5090    1.6800    1.6420 C.3   156  GLU156      0.0402
     13  CG        60.2030    0.9160    1.7820 C.3   156  GLU156      0.1161
     14  CD        59.5040    1.1940    3.1160 C.2   156  GLU156      0.3649
     15  OE1       59.8660    2.1730    3.8080 O.co2 156  GLU156     -0.2457
     16  OE2       58.5740    0.4520    3.4600 O.co2 156  GLU156     -0.2457
     17  N         63.1960    1.5100    4.4690 N.am  157  PHE157     -0.1962
     18  CA        63.0850    1.4270    5.9240 C.3   157  PHE157      0.1771
     19  C         62.6990    2.8170    6.4400 C.2   157  PHE157      0.2619
     20  O         63.3740    3.4260    7.2700 O.2   157  PHE157     -0.2715
     21  CB        64.4140    0.9700    6.5570 C.3   157  PHE157      0.0574
     22  CG        64.9000   -0.3520    6.0380 C.ar  157  PHE157     -0.0200
     23  CD1       64.3400   -1.5450    6.4860 C.ar  157  PHE157     -0.0042
     24  CD2       65.9110   -0.4030    5.0930 C.ar  157  PHE157     -0.0042
     25  CE1       64.7740   -2.7770    5.9870 C.ar  157  PHE157     -0.0003
     26  CE2       66.3640   -1.6380    4.6030 C.ar  157  PHE157     -0.0003
     27  CZ        65.7900   -2.8260    5.0530 C.ar  157  PHE157     -0.0000
     28  N         61.6100    3.3280    5.9080 N.am  158  LEU158     -0.1963
     29  CA        61.1130    4.6280    6.3380 C.3   158  LEU158      0.1728
     30  C         59.9850    4.4300    7.3290 C.2   158  LEU158      0.2616
     31  O         59.2030    3.5070    7.1930 O.2   158  LEU158     -0.2715
     32  CB        60.5410    5.3530    5.1330 C.3   158  LEU158      0.0311
     33  CG        61.4490    6.1280    4.1730 C.3   158  LEU158      0.0022
     34  CD1       62.9530    5.9170    4.4000 C.3   158  LEU158      0.0001
     35  CD2       60.9860    5.9430    2.7400 C.3   158  LEU158      0.0001
     36  N         59.8510    5.3380    8.2900 N.am  159  LYS159     -0.1963
     37  CA        58.6780    5.3010    9.1540 C.3   159  LYS159      0.1728
     38  C         57.6970    6.3610    8.6780 C.2   159  LYS159      0.2616
     39  O         58.0760    7.4850    8.3410 O.2   159  LYS159     -0.2715
     40  CB        59.0330    5.5510   10.6140 C.3   159  LYS159      0.0311
     41  CG        59.9470    4.5460   11.2240 C.3   159  LYS159      0.0038
     42  CD        60.1570    4.8250   12.7250 C.3   159  LYS159      0.0206
     43  CE        60.5960    6.2570   13.0150 C.3   159  LYS159      0.1093
     44  NZ        61.8720    6.6190   12.3460 N.3   159  LYS159     -0.1314
     45  N         56.4230    6.0040    8.6540 N.am  160  GLU160     -0.1977
     46  CA        55.4190    6.9540    8.2360 C.3   160  GLU160      0.1602
     47  C         55.4240    8.1720    9.1640 C.2   160  GLU160      0.2287
     48  O         55.4380    8.0230   10.3800 O.2   160  GLU160     -0.2864
     49  CB        54.0470    6.2830    8.2870 C.3   160  GLU160      0.0415
     50  CG        52.9800    7.0810    7.5970 C.3   160  GLU160      0.1163
     51  CD        51.6990    6.2860    7.4040 C.2   160  GLU160      0.3649
     52  OE1       51.5510    5.1930    7.9980 O.co2 160  GLU160     -0.2457
     53  OE2       50.8280    6.7650    6.6520 O.co2 160  GLU160     -0.2457
     54  N         63.8930   -7.2030    4.5910 N.3   216  LYS216     -0.1245
     55  CA        62.8210   -6.2880    4.9020 C.3   216  LYS216      0.1561
     56  C         61.7190   -6.9700    5.7440 C.2   216  LYS216      0.2260
     57  O         61.2600   -6.4000    6.7300 O.2   216  LYS216     -0.2867
     58  CB        62.2500   -5.7100    3.6090 C.3   216  LYS216      0.0271
     59  CG        61.0670   -4.7940    3.8280 C.3   216  LYS216      0.0035
     60  CD        61.4220   -3.6360    4.7740 C.3   216  LYS216      0.0206
     61  CE        60.1890   -2.7780    5.0350 C.3   216  LYS216      0.1093
     62  NZ        60.5360   -1.6610    5.9490 N.3   216  LYS216     -0.1314
     63  N         60.7880   -6.1370    9.9450 N.3   220  ASN220     -0.1240
     64  CA        59.4600   -5.8390   10.4590 C.3   220  ASN220      0.1653
     65  C         58.9340   -6.9760   11.3400 C.2   220  ASN220      0.2266
     66  O         58.2620   -6.7270   12.3580 O.2   220  ASN220     -0.2867
     67  CB        58.4840   -5.5380    9.3070 C.3   220  ASN220      0.1155
     68  CG        58.6070   -4.0920    8.8100 C.2   220  ASN220      0.2627
     69  OD1       59.4700   -3.3380    9.2650 O.2   220  ASN220     -0.2716
     70  ND2       57.7290   -3.7010    7.9110 N.am  220  ASN220     -0.0877
     71  N         60.4820   -6.6200   14.7860 N.3   223  LEU223     -0.1245
     72  CA        59.9410   -5.4740   15.5340 C.3   223  LEU223      0.1561
     73  C         58.5840   -5.8540   16.1020 C.2   223  LEU223      0.2260
     74  O         58.2970   -5.5900   17.2650 O.2   223  LEU223     -0.2867
     75  CB        59.8350   -4.2250   14.6500 C.3   223  LEU223      0.0270
     76  CG        61.2010   -3.6840   14.1750 C.3   223  LEU223      0.0019
     77  CD1       61.0570   -2.6520   13.0330 C.3   223  LEU223      0.0001
     78  CD2       61.9650   -3.0540   15.3330 C.3   223  LEU223      0.0001
     79  N         57.2740   -6.3740   20.2360 N.3   227  ILE227     -0.1245
     80  CA        56.0250   -5.8110   20.7670 C.3   227  ILE227      0.1561
     81  C         55.0870   -6.8930   21.3470 C.2   227  ILE227      0.2260
     82  O         54.6170   -6.7720   22.4810 O.2   227  ILE227     -0.2867
     83  CB        55.3090   -4.9850   19.7110 C.3   227  ILE227      0.0252
     84  CG1       56.1700   -3.7930   19.3040 C.3   227  ILE227      0.0019
     85  CG2       53.9760   -4.4240   20.2910 C.3   227  ILE227      0.0019
     86  CD1       55.6880   -3.1440   18.0060 C.3   227  ILE227      0.0001
     87  N         53.8320   -7.5860   25.1730 N.3   231  ASN231     -0.1240
     88  CA        52.3970   -7.6260   25.4690 C.3   231  ASN231      0.1653
     89  C         51.9800   -8.9020   26.1890 C.2   231  ASN231      0.2266
     90  O         51.1310   -8.8730   27.0870 O.2   231  ASN231     -0.2867
     91  CB        51.5770   -7.3900   24.1960 C.3   231  ASN231      0.1155
     92  CG        51.5530   -5.9330   23.8000 C.2   231  ASN231      0.2627
     93  OD1       51.7090   -5.0520   24.6610 O.2   231  ASN231     -0.2716
     94  ND2       51.3670   -5.6600   22.4970 N.am  231  ASN231     -0.0877
     95  N         61.4240   -0.3370   21.2320 N.3   261  PHE261     -0.1241
     96  CA        60.3450   -1.2040   20.8130 C.3   261  PHE261      0.1605
     97  C         60.0010   -2.2830   21.8200 C.2   261  PHE261      0.2264
     98  O         59.7320   -3.4270   21.4430 O.2   261  PHE261     -0.2867
     99  CB        60.6510   -1.8410   19.4510 C.3   261  PHE261      0.0534
    100  CG        60.0170   -1.1030   18.3200 C.ar  261  PHE261     -0.0203
    101  CD1       60.2920    0.2540   18.1390 C.ar  261  PHE261     -0.0042
    102  CD2       59.0940   -1.7310   17.4900 C.ar  261  PHE261     -0.0042
    103  CE1       59.7060    0.9710   17.1210 C.ar  261  PHE261     -0.0003
    104  CE2       58.4830   -1.0020   16.4460 C.ar  261  PHE261     -0.0003
    105  CZ        58.7960    0.3400   16.2690 C.ar  261  PHE261     -0.0000
    106  N         57.7010   -1.2610   24.3400 N.3   263  TYR263     -0.1241
    107  CA        56.5370   -0.6390   25.0040 C.3   263  TYR263      0.1605
    108  C         55.2540   -1.4270   24.8400 C.2   263  TYR263      0.2264
    109  O         54.6160   -1.4030   23.7850 O.2   263  TYR263     -0.2867
    110  CB        56.3040    0.7970   24.5090 C.3   263  TYR263      0.0534
    111  CG        57.4010    1.7640   24.9290 C.ar  263  TYR263     -0.0201
    112  CD1       57.5500    2.1430   26.2530 C.ar  263  TYR263     -0.0009
    113  CD2       58.2560    2.3110   23.9860 C.ar  263  TYR263     -0.0009
    114  CE1       58.5420    3.0360   26.6380 C.ar  263  TYR263      0.0417
    115  CE2       59.2370    3.1960   24.3460 C.ar  263  TYR263      0.0417
    116  CZ        59.3740    3.5660   25.6700 C.ar  263  TYR263      0.1957
    117  OH        60.3640    4.4570   26.0240 O.3   263  TYR263     -0.2866
    118  N         51.3350   -2.3240   25.3450 N.3   265  GLY265     -0.1225
    119  CA        50.1720   -1.4570   25.2310 C.3   265  GLY265      0.1811
    120  C         49.0310   -2.1850   24.5390 C.2   265  GLY265      0.2280
    121  O         48.8760   -3.3890   24.7080 O.2   265  GLY265     -0.2866
    122  N         48.5570   -2.8510   21.4180 N.3   267  GLY267     -0.1210
    123  CA        48.8770   -3.5990   20.2080 C.3   267  GLY267      0.1956
    124  C         49.5050   -2.7550   19.1160 C.2   267  GLY267      0.2612
    125  O         49.5810   -1.5380   19.2600 O.2   267  GLY267     -0.2717
    126  N         49.9880   -3.4030   18.0440 N.am  268  TYR268     -0.1962
    127  CA        50.5130   -2.6560   16.8960 C.3   268  TYR268      0.1771
    128  C         49.5280   -2.6400   15.7450 C.2   268  TYR268      0.2620
    129  O         48.6710   -3.5360   15.5980 O.2   268  TYR268     -0.2715
    130  CB        51.8950   -3.1850   16.4270 C.3   268  TYR268      0.0574
    131  CG        51.9030   -4.6490   15.9620 C.ar  268  TYR268     -0.0198
    132  CD1       51.4460   -5.0050   14.6890 C.ar  268  TYR268     -0.0009
    133  CD2       52.3760   -5.6620   16.8070 C.ar  268  TYR268     -0.0009
    134  CE1       51.4680   -6.3670   14.2540 C.ar  268  TYR268      0.0417
    135  CE2       52.4180   -7.0100   16.3820 C.ar  268  TYR268      0.0417
    136  CZ        51.9690   -7.3440   15.1190 C.ar  268  TYR268      0.1957
    137  OH        52.0010   -8.6650   14.7470 O.3   268  TYR268     -0.2866
    138  N         49.6420   -1.6010   14.9290 N.am  269  GLY269     -0.1954
    139  CA        48.8280   -1.4870   13.7310 C.3   269  GLY269      0.1869
    140  C         49.6330   -0.8350   12.6400 C.2   269  GLY269      0.2309
    141  O         50.8630   -0.9580   12.6240 O.2   269  GLY269     -0.2863
    142  N         50.1920    0.3310    8.3010 N.3   271  SER271     -0.1202
    143  CA        50.0320   -0.1770    6.9400 C.3   271  SER271      0.2020
    144  C         51.1480   -1.1720    6.6420 C.2   271  SER271      0.2619
    145  O         51.2760   -1.6360    5.5050 O.2   271  SER271     -0.2717
    146  CB        50.0850    0.9920    5.9260 C.3   271  SER271      0.2103
    147  OG        48.9500    1.8630    6.0110 O.3   271  SER271     -0.2182
    148  N         51.9660   -1.4900    7.6520 N.am  272  CYS272     -0.1955
    149  CA        53.1680   -2.3120    7.4090 C.3   272  CYS272      0.1843
    150  C         53.3190   -3.5900    8.2260 C.2   272  CYS272      0.2625
    151  O         53.4100   -4.6820    7.6560 O.2   272  CYS272     -0.2714
    152  CB        54.4170   -1.4530    7.5890 C.3   272  CYS272      0.0997
    153  SG        54.4150   -0.0110    6.4660 S.3   272  CYS272     -0.0797
    154  N         53.3950   -3.4790    9.5520 N.am  273  PHE273     -0.1974
    155  CA        53.5920   -4.6840   10.3460 C.3   273  PHE273      0.1639
    156  C         52.5170   -5.7370   10.1080 C.2   273  PHE273      0.2290
    157  O         52.8390   -6.9170    9.9030 O.2   273  PHE273     -0.2864
    158  CB        53.6760   -4.3790   11.8680 C.3   273  PHE273      0.0560
    159  CG        54.9480   -3.7230   12.3010 C.ar  273  PHE273     -0.0200
    160  CD1       55.9070   -3.3700   11.3850 C.ar  273  PHE273     -0.0042
    161  CD2       55.1680   -3.4370   13.6560 C.ar  273  PHE273     -0.0042
    162  CE1       57.0750   -2.7550   11.7870 C.ar  273  PHE273     -0.0003
    163  CE2       56.3340   -2.8300   14.0630 C.ar  273  PHE273     -0.0003
    164  CZ        57.2880   -2.4730   13.1190 C.ar  273  PHE273     -0.0000
    165  N         52.9250   -7.1690    6.4770 N.3   276  ASP276     -0.1239
    166  CA        54.2160   -7.8270    6.2310 C.3   276  ASP276      0.1674
    167  C         54.3850   -9.1060    7.0590 C.2   276  ASP276      0.2266
    168  O         54.9070  -10.1120    6.5750 O.2   276  ASP276     -0.2867
    169  CB        55.3910   -6.8640    6.4750 C.3   276  ASP276      0.1410
    170  CG        55.4500   -5.7610    5.4450 C.2   276  ASP276      0.3668
    171  OD1       54.7200   -5.8370    4.4290 O.co2 276  ASP276     -0.2456
    172  OD2       56.2130   -4.7990    5.6450 O.co2 276  ASP276     -0.2456
    173  N         47.0260    4.9150   14.1170 N.3   332  PHE332     -0.1227
    174  CA        47.6880    3.7060   14.5980 C.3   332  PHE332      0.1736
    175  C         48.9020    3.9930   15.4880 C.2   332  PHE332      0.2595
    176  O         49.2390    3.1750   16.3100 O.2   332  PHE332     -0.2718
    177  CB        48.0490    2.7480   13.4550 C.3   332  PHE332      0.0547
    178  CG        49.3500    3.0400   12.7700 C.ar  332  PHE332     -0.0202
    179  CD1       49.3980    3.9290   11.7040 C.ar  332  PHE332     -0.0042
    180  CD2       50.5140    2.3870   13.1510 C.ar  332  PHE332     -0.0042
    181  CE1       50.5850    4.1820   11.0420 C.ar  332  PHE332     -0.0003
    182  CE2       51.7150    2.6290   12.4820 C.ar  332  PHE332     -0.0003
    183  CZ        51.7560    3.5130   11.4370 C.ar  332  PHE332     -0.0000
    184  N         49.5140    5.1640   15.3240 N.am  333  LYS333     -0.1966
    185  CA        50.6240    5.6160   16.1630 C.3   333  LYS333      0.1713
    186  C         50.6220    7.1490   16.0860 C.2   333  LYS333      0.2458
    187  O         49.9300    7.7160   15.2430 O.2   333  LYS333     -0.2730
    188  CB        51.9680    5.0760   15.6160 C.3   333  LYS333      0.0311
    189  CG        52.3070    5.6800   14.2430 C.3   333  LYS333      0.0038
    190  CD        53.7690    5.3620   13.8070 C.3   333  LYS333      0.0206
    191  CE        54.1030    6.0930   12.5120 C.3   333  LYS333      0.1093
    192  NZ        55.5200    5.8410   12.0570 N.3   333  LYS333     -0.1314
    193  N         51.3970    7.8250   16.9630 N.am  334  PRO334     -0.2727
    194  CA        51.4630    9.2990   16.9240 C.3   334  PRO334      0.1402
    195  C         52.0690    9.8190   15.6180 C.2   334  PRO334      0.2269
    196  O         52.8250    9.1110   14.9420 O.2   334  PRO334     -0.2865
    197  CB        52.3960    9.6490   18.0970 C.3   334  PRO334      0.0296
    198  CG        52.3150    8.4560   19.0290 C.3   334  PRO334      0.0237
    199  CD        52.0960    7.2560   18.1340 C.3   334  PRO334      0.0939
    200  N         49.7010    7.4420   21.8180 N.3   408  GLU408     -0.1245
    201  CA        50.4720    8.3210   22.7050 C.3   408  GLU408      0.1567
    202  C         50.9590    9.6690   22.0980 C.2   408  GLU408      0.2260
    203  O         52.1340   10.0530   22.2210 O.2   408  GLU408     -0.2867
    204  CB        51.6330    7.5360   23.3370 C.3   408  GLU408      0.0388
    205  CG        52.7240    7.0980   22.3830 C.3   408  GLU408      0.1160
    206  CD        52.4640    5.7680   21.7060 C.2   408  GLU408      0.3649
    207  OE1       51.3140    5.4470   21.3670 O.co2 408  GLU408     -0.2457
    208  OE2       53.4410    5.0250   21.5010 O.co2 408  GLU408     -0.2457
    209  N         48.5330    2.8700   26.5070 N.3   433  ARG433     -0.1245
    210  CA        49.9230    3.1900   26.1740 C.3   433  ARG433      0.1563
    211  C         50.7990    3.5510   27.3740 C.2   433  ARG433      0.2260
    212  O         51.9430    3.9730   27.1890 O.2   433  ARG433     -0.2867
    213  CB        49.9930    4.3050   25.1290 C.3   433  ARG433      0.0307
    214  CG        49.2910    3.9580   23.7940 C.3   433  ARG433      0.0489
    215  CD        50.0510    2.8530   23.0450 C.3   433  ARG433      0.2205
    216  NE        49.3680    2.5030   21.8020 N.pl3 433  ARG433     -0.0865
    217  CZ        49.6440    1.4150   21.0860 C.cat 433  ARG433      0.5346
    218  NH1       50.5670    0.5540   21.5210 N.pl3 433  ARG433      0.1354
    219  NH2       48.9690    1.1750   19.9680 N.pl3 433  ARG433      0.1354
@<TRIPOS>BOND
     1     4     3    2
     2     1     2    1
     3     3     2    1
     4     2     5    1
     5     5     6    1
     6     5     7    1
     7     8     9    1
     8    12    13    1
     9    12     9    1
    10    13    14    1
    11     9    10    1
    12    35    33    1
    13    14    16   ar
    14    14    15   ar
    15    58    59    1
    16    58    55    1
    17    10    11    2
    18    10    17   am
    19    59    60    1
    20    33    34    1
    21    33    32    1
    22   171   170   ar
    23    17    18    1
    24    54    55    1
    25    26    27   ar
    26    26    24   ar
    27    60    61    1
    28    55    56    1
    29    61    62    1
    30    27    25   ar
    31    24    22   ar
    32    32    29    1
    33   170   172   ar
    34   170   169    1
    35   145   144    2
    36    56    57    2
    37    28    29    1
    38    28    19   am
    39    18    19    1
    40    18    21    1
    41   146   147    1
    42   146   143    1
    43    25    23   ar
    44    22    23   ar
    45    22    21    1
    46   166   169    1
    47   166   165    1
    48   166   167    1
    49    29    30    1
    50    19    20    2
    51   153   152    1
    52   168   167    2
    53   144   143    1
    54   144   148   am
    55    53    51   ar
    56   143   142    1
    57    31    30    2
    58    30    36   am
    59    51    50    1
    60    51    52   ar
    61   149   152    1
    62   149   148    1
    63   149   150    1
    64    50    49    1
    65   151   150    2
    66    70    68   am
    67   150   154   am
    68    46    49    1
    69    46    45    1
    70    46    47    1
    71    36    37    1
    72    39    38    2
    73    45    38   am
    74    38    37    1
    75    68    69    2
    76    68    67    1
    77    37    40    1
    78    47    48    2
    79    67    64    1
    80   154   155    1
    81   157   156    2
    82    63    64    1
    83   156   155    1
    84   155   158    1
    85    64    65    1
    86    40    41    1
    87   181   183   ar
    88   181   179   ar
    89    41    42    1
    90    65    66    2
    91   160   162   ar
    92   160   159   ar
    93   183   182   ar
    94   179   178   ar
    95   162   164   ar
    96   158   159    1
    97   192   191    1
    98   159   161   ar
    99    44    43    1
   100   182   180   ar
   101   191   190    1
   102   141   140    2
   103   140   139    1
   104    42    43    1
   105   178   180   ar
   106   178   177    1
   107    77    76    1
   108   164   163   ar
   109   177   174    1
   110   161   163   ar
   111   139   138    1
   112   190   189    1
   113   173   174    1
   114    76    75    1
   115    76    78    1
   116   189   188    1
   117   134   132   ar
   118   134   136   ar
   119   174   175    1
   120    75    72    1
   121   132   131   ar
   122   137   136    1
   123    71    72    1
   124   138   128   am
   125   196   195    2
   126   136   135   ar
   127   187   186    2
   128   184   175   am
   129   184   185    1
   130   175   176    2
   131    72    73    1
   132   129   128    2
   133   188   185    1
   134   195   194    1
   135   128   127    1
   136   131   130    1
   137   131   133   ar
   138   186   185    1
   139   186   193   am
   140    73    74    2
   141   105   104   ar
   142   105   103   ar
   143   135   133   ar
   144   130   127    1
   145   104   102   ar
   146   127   126    1
   147   194   193    1
   148   194   197    1
   149   193   199    1
   150   103   101   ar
   151   102   100   ar
   152    86    84    1
   153   126   124   am
   154   197   198    1
   155   199   198    1
   156   101   100   ar
   157   100    99    1
   158   124   125    2
   159   124   123    1
   160    84    83    1
   161    99    96    1
   162    83    85    1
   163    83    80    1
   164   219   217    1
   165   123   122    1
   166    79    80    1
   167    80    81    1
   168    96    95    1
   169    96    97    1
   170   217   218    1
   171   217   216    2
   172    81    82    2
   173   207   206   ar
   174    98    97    2
   175   208   206   ar
   176   206   205    1
   177   216   215    1
   178   200   201    1
   179   202   203    2
   180   202   201    1
   181   205   204    1
   182    94    92   am
   183   201   204    1
   184   215   214    1
   185   109   108    2
   186   214   213    1
   187    92    91    1
   188    92    93    2
   189   113   115   ar
   190   113   111   ar
   191    91    88    1
   192   106   107    1
   193   115   116   ar
   194   110   111    1
   195   110   107    1
   196   120   121    2
   197   120   119    1
   198   108   107    1
   199   111   112   ar
   200   213   210    1
   201    87    88    1
   202   119   118    1
   203    88    89    1
   204   116   117    1
   205   116   114   ar
   206   210   209    1
   207   210   211    1
   208    89    90    2
   209   112   114   ar
   210   212   211    2
