@<TRIPOS>MOLECULE
tmp/2y0jB00.pdb
 180 173 0 0 0
SMALL
GASTEIGER

@<TRIPOS>ATOM
      1  N        -20.2540  -48.3590   15.0100 N.3    69  TYR69      -0.1227
      2  CA       -19.3150  -47.2820   14.6480 C.3    69  TYR69       0.1736
      3  C        -17.8330  -47.6860   14.5870 C.2    69  TYR69       0.2595
      4  O        -17.2010  -47.4820   13.5570 O.2    69  TYR69      -0.2718
      5  CB       -19.4820  -46.0860   15.5850 C.3    69  TYR69       0.0548
      6  CG       -18.5810  -44.9320   15.2210 C.ar   69  TYR69      -0.0200
      7  CD1      -18.8510  -44.1380   14.1130 C.ar   69  TYR69      -0.0009
      8  CD2      -17.4440  -44.6540   15.9730 C.ar   69  TYR69      -0.0009
      9  CE1      -18.0080  -43.0890   13.7620 C.ar   69  TYR69       0.0417
     10  CE2      -16.6050  -43.6100   15.6420 C.ar   69  TYR69       0.0417
     11  CZ       -16.8890  -42.8250   14.5370 C.ar   69  TYR69       0.1957
     12  OH       -16.0450  -41.7880   14.2210 O.3    69  TYR69      -0.2866
     13  N        -17.2780  -48.2320   15.6700 N.am   70  HIS70      -0.1975
     14  CA       -15.8680  -48.6540   15.6800 C.3    70  HIS70       0.1656
     15  C        -15.6270  -49.9520   14.8890 C.2    70  HIS70       0.2291
     16  O        -15.2480  -50.9790   15.4350 O.2    70  HIS70      -0.2864
     17  CB       -15.3740  -48.7810   17.1080 C.3    70  HIS70       0.0771
     18  CG       -15.3010  -47.4690   17.8200 C.ar   70  HIS70       0.0820
     19  ND1      -16.2810  -47.0350   18.6880 N.ar   70  HIS70      -0.2267
     20  CD2      -14.3760  -46.4810   17.7720 C.ar   70  HIS70       0.1154
     21  CE1      -15.9540  -45.8430   19.1570 C.ar   70  HIS70       0.1986
     22  NE2      -14.8020  -45.4860   18.6170 N.ar   70  HIS70      -0.2212
     23  N         -4.8300  -42.0860   19.7840 N.3   178  THR178     -0.1218
     24  CA        -6.2600  -42.0640   19.4890 C.3   178  THR178      0.1862
     25  C         -7.1280  -42.1350   20.7520 C.2   178  THR178      0.2287
     26  O         -8.3460  -42.0060   20.6800 O.2   178  THR178     -0.2866
     27  CB        -6.6440  -43.1860   18.4990 C.3   178  THR178      0.1770
     28  OG1       -6.3240  -44.4680   19.0590 O.3   178  THR178     -0.2211
     29  CG2       -5.9010  -42.9990   17.1740 C.3   178  THR178      0.0375
     30  N         -8.7060  -40.2020   23.1580 N.3   180  LEU180     -0.1245
     31  CA        -9.0550  -38.7800   23.1060 C.3   180  LEU180      0.1561
     32  C         -8.7560  -38.1050   24.4340 C.2   180  LEU180      0.2260
     33  O         -8.4980  -36.8990   24.4800 O.2   180  LEU180     -0.2867
     34  CB       -10.5300  -38.5740   22.7330 C.3   180  LEU180      0.0270
     35  CG       -10.9480  -37.1210   22.4650 C.3   180  LEU180      0.0019
     36  CD1      -10.1780  -36.5510   21.2840 C.3   180  LEU180      0.0001
     37  CD2      -12.4410  -37.0050   22.2190 C.3   180  LEU180      0.0001
     38  N         -6.3160  -33.7840   24.5430 N.3   184  PHE184     -0.1241
     39  CA        -6.4680  -32.4370   25.0730 C.3   184  PHE184      0.1605
     40  C         -5.1280  -31.8600   25.5330 C.2   184  PHE184      0.2264
     41  O         -4.7430  -30.7780   25.1160 O.2   184  PHE184     -0.2867
     42  CB        -7.4850  -32.4210   26.2120 C.3   184  PHE184      0.0534
     43  CG        -8.8900  -32.7750   25.7810 C.ar  184  PHE184     -0.0203
     44  CD1       -9.7140  -31.8210   25.2080 C.ar  184  PHE184     -0.0042
     45  CD2       -9.3880  -34.0490   25.9790 C.ar  184  PHE184     -0.0042
     46  CE1      -10.9990  -32.1350   24.8230 C.ar  184  PHE184     -0.0003
     47  CE2      -10.6750  -34.3690   25.5960 C.ar  184  PHE184     -0.0003
     48  CZ       -11.4810  -33.4120   25.0070 C.ar  184  PHE184     -0.0000
     49  N         -9.0990  -39.6400   13.1420 N.3   219  ASP219     -0.1225
     50  CA       -10.1070  -40.3600   13.9250 C.3   219  ASP219      0.1805
     51  C        -11.4700  -39.6580   13.9250 C.2   219  ASP219      0.2597
     52  O        -12.5040  -40.3170   13.9040 O.2   219  ASP219     -0.2718
     53  CB        -9.6180  -40.5570   15.3650 C.3   219  ASP219      0.1424
     54  CG       -10.3040  -41.7130   16.0740 C.2   219  ASP219      0.3668
     55  OD1      -10.9450  -42.5470   15.3970 O.co2 219  ASP219     -0.2456
     56  OD2      -10.1870  -41.7910   17.3240 O.co2 219  ASP219     -0.2456
     57  N        -11.4570  -38.3240   13.9460 N.am  220  LEU220     -0.1979
     58  CA       -12.6710  -37.5090   13.9910 C.3   220  LEU220      0.1596
     59  C        -13.0990  -37.0040   12.6230 C.2   220  LEU220      0.2287
     60  O        -13.9560  -36.1220   12.5480 O.2   220  LEU220     -0.2864
     61  CB       -12.4460  -36.2750   14.8630 C.3   220  LEU220      0.0297
     62  CG       -11.9600  -36.4580   16.2940 C.3   220  LEU220      0.0022
     63  CD1      -11.9580  -35.1060   17.0090 C.3   220  LEU220      0.0001
     64  CD2      -12.8300  -37.4380   17.0090 C.3   220  LEU220      0.0001
     65  N        -15.0310  -37.7500   10.2720 N.3   222  SER222     -0.1202
     66  CA       -16.4550  -37.7040    9.8900 C.3   222  SER222      0.2020
     67  C        -16.9910  -36.2680    9.8780 C.2   222  SER222      0.2618
     68  O        -17.8550  -35.9290    9.0700 O.2   222  SER222     -0.2717
     69  CB       -17.3080  -38.5370   10.8380 C.3   222  SER222      0.2103
     70  OG       -17.5690  -37.8360   12.0400 O.3   222  SER222     -0.2182
     71  N        -16.4680  -35.4270   10.7750 N.am  223  VAL223     -0.1979
     72  CA       -16.8820  -34.0210   10.8520 C.3   223  VAL223      0.1595
     73  C        -16.3460  -33.1850    9.6970 C.2   223  VAL223      0.2287
     74  O        -16.7620  -32.0420    9.5230 O.2   223  VAL223     -0.2864
     75  CB       -16.4550  -33.3570   12.1820 C.3   223  VAL223      0.0276
     76  CG1      -16.9350  -34.1810   13.3710 C.3   223  VAL223      0.0022
     77  CG2      -14.9590  -33.1690   12.2300 C.3   223  VAL223      0.0022
     78  N        -21.8460  -36.6350    6.9090 N.3   230  THR230     -0.1218
     79  CA       -21.5810  -36.2860    8.3030 C.3   230  THR230      0.1862
     80  C        -22.7780  -36.5920    9.1780 C.2   230  THR230      0.2287
     81  O        -22.6530  -37.3000   10.1700 O.2   230  THR230     -0.2866
     82  CB       -21.2650  -34.7940    8.4160 C.3   230  THR230      0.1770
     83  OG1      -20.0410  -34.5290    7.7270 O.3   230  THR230     -0.2211
     84  CG2      -21.1690  -34.3420    9.8810 C.3   230  THR230      0.0375
     85  N        -22.8850  -39.5800   12.0720 N.3   234  ALA234     -0.1245
     86  CA       -23.2660  -39.2260   13.4380 C.3   234  ALA234      0.1562
     87  C        -24.2820  -40.2170   14.0330 C.2   234  ALA234      0.2260
     88  O        -24.2960  -40.4470   15.2460 O.2   234  ALA234     -0.2867
     89  CB       -23.8340  -37.8160   13.4770 C.3   234  ALA234      0.0290
     90  N        -22.4600  -43.2180   15.5120 N.3   237  ILE237     -0.1231
     91  CA       -21.7530  -42.9400   16.7550 C.3   237  ILE237      0.1692
     92  C        -22.7030  -43.0950   17.9410 C.2   237  ILE237      0.2592
     93  O        -22.4500  -43.8840   18.8530 O.2   237  ILE237     -0.2718
     94  CB       -21.1170  -41.5340   16.7270 C.3   237  ILE237      0.0266
     95  CG1      -20.0970  -41.4590   15.5900 C.3   237  ILE237      0.0019
     96  CG2      -20.4030  -41.2330   18.0330 C.3   237  ILE237      0.0020
     97  CD1      -19.6090  -40.0680   15.2640 C.3   237  ILE237      0.0001
     98  N        -23.8210  -42.3760   17.8910 N.am  238  TYR238     -0.1976
     99  CA       -24.8200  -42.4290   18.9580 C.3   238  TYR238      0.1639
    100  C        -25.4440  -43.8060   19.1580 C.2   238  TYR238      0.2290
    101  O        -25.6760  -44.2150   20.2960 O.2   238  TYR238     -0.2864
    102  CB       -25.9140  -41.3830   18.7180 C.3   238  TYR238      0.0560
    103  CG       -25.4390  -39.9910   19.0320 C.ar  238  TYR238     -0.0198
    104  CD1      -25.2080  -39.6120   20.3410 C.ar  238  TYR238     -0.0009
    105  CD2      -25.2040  -39.0590   18.0180 C.ar  238  TYR238     -0.0009
    106  CE1      -24.7590  -38.3530   20.6470 C.ar  238  TYR238      0.0417
    107  CE2      -24.7470  -37.7900   18.3100 C.ar  238  TYR238      0.0417
    108  CZ       -24.5280  -37.4430   19.6320 C.ar  238  TYR238      0.1957
    109  OH       -24.0830  -36.1860   19.9570 O.3   238  TYR238     -0.2866
    110  N        -22.9900  -45.2650   21.3420 N.3   241  PHE241     -0.1241
    111  CA       -23.0700  -44.6090   22.6540 C.3   241  PHE241      0.1605
    112  C        -24.3150  -45.0420   23.4190 C.2   241  PHE241      0.2264
    113  O        -24.2420  -45.2910   24.6250 O.2   241  PHE241     -0.2867
    114  CB       -23.1140  -43.0760   22.5530 C.3   241  PHE241      0.0534
    115  CG       -21.8250  -42.4260   22.1150 C.ar  241  PHE241     -0.0203
    116  CD1      -20.6030  -43.0750   22.2000 C.ar  241  PHE241     -0.0042
    117  CD2      -21.8470  -41.1180   21.6470 C.ar  241  PHE241     -0.0042
    118  CE1      -19.4390  -42.4370   21.7960 C.ar  241  PHE241     -0.0003
    119  CE2      -20.6850  -40.4820   21.2480 C.ar  241  PHE241     -0.0003
    120  CZ       -19.4860  -41.1370   21.3220 C.ar  241  PHE241     -0.0000
    121  N        -25.0160  -38.2460   26.8580 N.3   258  MET258     -0.1245
    122  CA       -24.4160  -38.6700   25.5960 C.3   258  MET258      0.1570
    123  C        -24.7010  -40.1390   25.2510 C.2   258  MET258      0.2261
    124  O        -24.7590  -40.5110   24.0770 O.2   258  MET258     -0.2867
    125  CB       -22.9090  -38.4690   25.7070 C.3   258  MET258      0.0387
    126  CG       -22.1320  -38.7100   24.4580 C.3   258  MET258      0.0595
    127  SD       -20.3940  -38.5390   24.8530 S.3   258  MET258     -0.1393
    128  CE       -20.0870  -40.1360   25.6170 C.3   258  MET258      0.0692
    129  N        -25.5280  -31.2570   21.4470 N.3   270  GLY270     -0.1210
    130  CA       -24.3210  -32.0010   21.8310 C.3   270  GLY270      0.1956
    131  C        -23.2250  -31.9560   20.7810 C.2   270  GLY270      0.2611
    132  O        -22.0460  -31.8010   21.1100 O.2   270  GLY270     -0.2717
    133  N        -23.6250  -32.0940   19.5160 N.am  271  GLN271     -0.1979
    134  CA       -22.7270  -31.9330   18.3790 C.3   271  GLN271      0.1601
    135  C        -22.1260  -30.5470   18.3370 C.2   271  GLN271      0.2287
    136  O        -20.9170  -30.4030   18.2390 O.2   271  GLN271     -0.2864
    137  CB       -23.4520  -32.2390   17.0620 C.3   271  GLN271      0.0394
    138  CG       -23.6210  -33.7350   16.8120 C.3   271  GLN271      0.0908
    139  CD       -22.2850  -34.4180   16.6410 C.2   271  GLN271      0.2608
    140  OE1      -21.6690  -34.3400   15.5820 O.2   271  GLN271     -0.2717
    141  NE2      -21.8210  -35.0770   17.6870 N.am  271  GLN271     -0.0878
    142  N        -21.6900  -28.6160   20.7470 N.3   273  GLY273     -0.1210
    143  CA       -20.7570  -28.6140   21.8700 C.3   273  GLY273      0.1956
    144  C        -19.4680  -29.3610   21.5530 C.2   273  GLY273      0.2612
    145  O        -18.3720  -28.8750   21.8340 O.2   273  GLY273     -0.2717
    146  N        -19.5950  -30.5390   20.9480 N.am  274  PHE274     -0.1962
    147  CA       -18.4240  -31.3230   20.5620 C.3   274  PHE274      0.1771
    148  C        -17.5560  -30.6220   19.4980 C.2   274  PHE274      0.2619
    149  O        -16.3330  -30.7500   19.5120 O.2   274  PHE274     -0.2715
    150  CB       -18.8460  -32.7190   20.0790 C.3   274  PHE274      0.0574
    151  CG       -17.6890  -33.5880   19.6290 C.ar  274  PHE274     -0.0200
    152  CD1      -16.8780  -34.2230   20.5560 C.ar  274  PHE274     -0.0042
    153  CD2      -17.4110  -33.7590   18.2780 C.ar  274  PHE274     -0.0042
    154  CE1      -15.8100  -35.0230   20.1410 C.ar  274  PHE274     -0.0003
    155  CE2      -16.3570  -34.5530   17.8540 C.ar  274  PHE274     -0.0003
    156  CZ       -15.5530  -35.1850   18.7790 C.ar  274  PHE274     -0.0000
    157  N        -18.1700  -29.8980   18.5700 N.am  275  TYR275     -0.1974
    158  CA       -17.3870  -29.2060   17.5360 C.3   275  TYR275      0.1639
    159  C        -16.5850  -28.0600   18.1460 C.2   275  TYR275      0.2290
    160  O        -15.4040  -27.8760   17.8330 O.2   275  TYR275     -0.2864
    161  CB       -18.2760  -28.6680   16.4230 C.3   275  TYR275      0.0560
    162  CG       -18.6040  -29.6670   15.3430 C.ar  275  TYR275     -0.0198
    163  CD1      -19.2480  -30.8610   15.6430 C.ar  275  TYR275     -0.0009
    164  CD2      -18.2920  -29.4110   14.0160 C.ar  275  TYR275     -0.0009
    165  CE1      -19.5630  -31.7680   14.6610 C.ar  275  TYR275      0.0417
    166  CE2      -18.6150  -30.3240   13.0160 C.ar  275  TYR275      0.0417
    167  CZ       -19.2580  -31.4970   13.3510 C.ar  275  TYR275      0.1957
    168  OH       -19.5760  -32.4090   12.3770 O.3   275  TYR275     -0.2866
    169  N        -15.7110  -27.6170   21.4090 N.3   277  ALA277     -0.1231
    170  CA       -14.7930  -28.0280   22.4680 C.3   277  ALA277      0.1694
    171  C        -13.6870  -28.9700   21.9740 C.2   277  ALA277      0.2591
    172  O        -12.5560  -28.9340   22.4960 O.2   277  ALA277     -0.2718
    173  CB       -15.5660  -28.6780   23.6170 C.3   277  ALA277      0.0304
    174  N        -14.0050  -29.8040   20.9830 N.am  278  VAL278     -0.1980
    175  CA       -13.0680  -30.8120   20.5130 C.3   278  VAL278      0.1595
    176  C        -12.6390  -30.5990   19.0560 C.2   278  VAL278      0.2287
    177  O        -11.4520  -30.4450   18.7910 O.2   278  VAL278     -0.2864
    178  CB       -13.6430  -32.2370   20.6810 C.3   278  VAL278      0.0276
    179  CG1      -12.6260  -33.2880   20.2010 C.3   278  VAL278      0.0022
    180  CG2      -14.0380  -32.4870   22.1320 C.3   278  VAL278      0.0022
@<TRIPOS>BOND
     1    78    79    1
     2    83    82    1
     3    79    82    1
     4    79    80    1
     5    82    84    1
     6    68    67    2
     7    80    81    2
     8    74    73    2
     9    73    72    1
    10    67    66    1
    11    67    71   am
    12    66    65    1
    13    66    69    1
    14    71    72    1
    15    69    70    1
    16    72    75    1
    17    85    86    1
    18    75    77    1
    19    75    76    1
    20   168   167    1
    21    60    59    2
    22    59    58    1
    23   166   167   ar
    24   166   164   ar
    25    49    50    1
    26   167   165   ar
    27    86    89    1
    28    86    87    1
    29     4     3    2
    30     9     7   ar
    31     9    11   ar
    32    52    51    2
    33    50    51    1
    34    50    53    1
    35    51    57   am
    36    57    58    1
    37    58    61    1
    38   164   162   ar
    39    87    88    2
    40     7     6   ar
    41    12    11    1
    42    11    10   ar
    43     3     2    1
    44     3    13   am
    45     2     1    1
    46     2     5    1
    47   165   163   ar
    48    61    62    1
    49    15    16    2
    50    15    14    1
    51     6     5    1
    52     6     8   ar
    53    97    95    1
    54   162   163   ar
    55   162   161    1
    56    53    54    1
    57    55    54   ar
    58    90    91    1
    59   140   139    2
    60    95    94    1
    61    10     8   ar
    62    13    14    1
    63    14    17    1
    64    54    56   ar
    65    62    64    1
    66    62    63    1
    67   161   158    1
    68   139   138    1
    69   139   141   am
    70    94    91    1
    71    94    96    1
    72    91    92    1
    73   138   137    1
    74   137   134    1
    75    17    18    1
    76    29    27    1
    77   158   159    1
    78   158   157    1
    79    20    18   ar
    80    20    22   ar
    81    18    19   ar
    82   160   159    2
    83   155   153   ar
    84   155   156   ar
    85    98    92   am
    86    98    99    1
    87    92    93    2
    88   105   107   ar
    89   105   103   ar
    90   136   135    2
    91   153   151   ar
    92   107   108   ar
    93   135   134    1
    94   134   133    1
    95    27    28    1
    96    27    24    1
    97   157   148   am
    98    22    21   ar
    99    19    21   ar
   100   102    99    1
   101   102   103    1
   102   156   154   ar
   103   177   176    2
   104    99   100    1
   105   103   104   ar
   106   176   175    1
   107   100   101    2
   108    24    23    1
   109    24    25    1
   110   148   149    2
   111   148   147    1
   112   133   131   am
   113   151   150    1
   114   151   152   ar
   115   108   109    1
   116   108   106   ar
   117   150   147    1
   118   154   152   ar
   119   179   178    1
   120   104   106   ar
   121   175   178    1
   122   175   174    1
   123   147   146    1
   124    26    25    2
   125   178   180    1
   126   142   143    1
   127   131   132    2
   128   131   130    1
   129   146   144   am
   130   174   171   am
   131   119   120   ar
   132   119   117   ar
   133    36    35    1
   134   120   118   ar
   135   110   111    1
   136   169   170    1
   137   129   130    1
   138   144   145    2
   139   144   143    1
   140   117   115   ar
   141   118   116   ar
   142   171   170    1
   143   171   172    2
   144   115   116   ar
   145   115   114    1
   146    37    35    1
   147    35    34    1
   148   170   173    1
   149   114   111    1
   150   111   112    1
   151    34    31    1
   152    31    30    1
   153    31    32    1
   154   112   113    2
   155   124   123    2
   156    32    33    2
   157   126   127    1
   158   126   125    1
   159    38    39    1
   160    46    48   ar
   161    46    44   ar
   162   127   128    1
   163    48    47   ar
   164    39    40    1
   165    39    42    1
   166    41    40    2
   167    44    43   ar
   168   123   122    1
   169   122   125    1
   170   122   121    1
   171    47    45   ar
   172    43    45   ar
   173    43    42    1
