@<TRIPOS>MOLECULE
tmp/2y0pC01.pdb
 228 221 0 0 0
SMALL
GASTEIGER

@<TRIPOS>ATOM
      1  N         10.5800   38.4010  -99.3620 N.3   451  GLU451     -0.1245
      2  CA        10.8470   37.1900 -100.1510 C.3   451  GLU451      0.1567
      3  C         11.8530   37.4240 -101.2900 C.2   451  GLU451      0.2260
      4  O         12.8550   36.7020 -101.3610 O.2   451  GLU451     -0.2867
      5  CB         9.5400   36.5660 -100.6960 C.3   451  GLU451      0.0388
      6  CG         9.7270   35.1700 -101.3010 C.3   451  GLU451      0.1160
      7  CD         8.5750   34.1740 -101.2700 C.2   451  GLU451      0.3649
      8  OE1        7.4160   34.5860 -101.0340 O.co2 451  GLU451     -0.2457
      9  OE2        8.8400   32.9680 -101.4900 O.co2 451  GLU451     -0.2457
     10  N         16.2630   38.0580 -101.3470 N.3   454  GLN454     -0.1245
     11  CA        17.2430   36.9970 -101.5430 C.3   454  GLN454      0.1566
     12  C         16.7580   36.1140 -102.6780 C.2   454  GLN454      0.2260
     13  O         15.7050   35.4820 -102.5690 O.2   454  GLN454     -0.2867
     14  CB        17.4750   36.2010 -100.2460 C.3   454  GLN454      0.0367
     15  CG        17.6910   37.0950  -99.0260 C.3   454  GLN454      0.0905
     16  CD        18.8040   36.6380  -98.1340 C.2   454  GLN454      0.2608
     17  OE1       19.9150   36.3360  -98.5870 O.2   454  GLN454     -0.2717
     18  NE2       18.5410   36.6420  -96.8340 N.am  454  GLN454     -0.0878
     19  N         17.1350   32.9740 -105.4170 N.3   456  ILE456     -0.1231
     20  CA        17.6600   31.6150 -105.5980 C.3   456  ILE456      0.1678
     21  C         18.6430   31.6410 -106.7820 C.2   456  ILE456      0.2434
     22  O         18.2760   32.1420 -107.8420 O.2   456  ILE456     -0.2733
     23  CB        16.5100   30.5780 -105.7940 C.3   456  ILE456      0.0265
     24  CG1       15.7340   30.3540 -104.4750 C.3   456  ILE456      0.0019
     25  CG2       17.0250   29.2470 -106.3650 C.3   456  ILE456      0.0020
     26  CD1       14.3430   29.7650 -104.6450 C.3   456  ILE456      0.0001
     27  N         19.9020   31.1710 -106.6220 N.am  457  PRO457     -0.2718
     28  CA        20.8320   31.1870 -107.7660 C.3   457  PRO457      0.1535
     29  C         20.4230   30.1590 -108.8330 C.2   457  PRO457      0.2599
     30  O         19.8610   29.1130 -108.5010 O.2   457  PRO457     -0.2715
     31  CB        22.1830   30.8600 -107.1270 C.3   457  PRO457      0.0310
     32  CG        21.8490   30.0590 -105.9280 C.3   457  PRO457      0.0237
     33  CD        20.5160   30.5460 -105.4310 C.3   457  PRO457      0.0939
     34  N         20.6680   30.4850 -110.1100 N.am  458  SER458     -0.1936
     35  CA        20.3200   29.6310 -111.2430 C.3   458  SER458      0.2055
     36  C         21.3840   28.5670 -111.4850 C.2   458  SER458      0.2643
     37  O         22.5810   28.8680 -111.4470 O.2   458  SER458     -0.2714
     38  CB        20.1250   30.4680 -112.5080 C.3   458  SER458      0.2130
     39  OG        19.8470   29.7500 -113.6030 O.3   458  SER458     -0.2179
     40  N         20.9300   27.3230 -111.7440 N.am  459  LYS459     -0.1963
     41  CA        21.7250   26.1300 -112.0700 C.3   459  LYS459      0.1728
     42  C         22.9280   25.9320 -111.1110 C.2   459  LYS459      0.2616
     43  O         24.0830   25.9070 -111.5540 O.2   459  LYS459     -0.2715
     44  CB        22.2000   26.1830 -113.5420 C.3   459  LYS459      0.0311
     45  CG        21.0870   26.0400 -114.5810 C.3   459  LYS459      0.0038
     46  CD        20.8040   24.5890 -114.9290 C.3   459  LYS459      0.0206
     47  CE        19.4800   24.4610 -115.6250 C.3   459  LYS459      0.1093
     48  NZ        19.0680   23.0420 -115.7570 N.3   459  LYS459     -0.1314
     49  N         22.6460   25.7960 -109.8020 N.am  460  LEU460     -0.1977
     50  CA        23.6870   25.5920 -108.7930 C.3   460  LEU460      0.1596
     51  C         23.9660   24.0880 -108.6330 C.2   460  LEU460      0.2287
     52  O         23.0710   23.3180 -108.2710 O.2   460  LEU460     -0.2864
     53  CB        23.2910   26.2420 -107.4520 C.3   460  LEU460      0.0297
     54  CG        24.2220   26.0210 -106.2630 C.3   460  LEU460      0.0022
     55  CD1       25.2640   27.1070 -106.1670 C.3   460  LEU460      0.0001
     56  CD2       23.4340   25.9410 -104.9820 C.3   460  LEU460      0.0001
     57  N          6.0870   30.1970  -91.1860 N.3   661  TRP661     -0.1241
     58  CA         6.5960   30.4650  -92.5330 C.3   661  TRP661      0.1605
     59  C          5.7470   31.5060  -93.2590 C.2   661  TRP661      0.2264
     60  O          4.5170   31.4080  -93.3050 O.2   661  TRP661     -0.2867
     61  CB         6.6740   29.1820  -93.3920 C.3   661  TRP661      0.0550
     62  CG         7.4830   29.3620  -94.6520 C.ar  661  TRP661      0.0003
     63  CD1        8.8030   29.0690  -94.8200 C.ar  661  TRP661      0.0946
     64  CD2        7.0340   29.9250  -95.9040 C.ar  661  TRP661      0.0152
     65  NE1        9.2010   29.3870  -96.1020 N.ar  661  TRP661     -0.2442
     66  CE2        8.1380   29.9200  -96.7860 C.ar  661  TRP661      0.0810
     67  CE3        5.8010   30.4210  -96.3700 C.ar  661  TRP661      0.0012
     68  CZ2        8.0470   30.3790  -98.1070 C.ar  661  TRP661      0.0191
     69  CZ3        5.7290   30.9390  -97.6570 C.ar  661  TRP661      0.0001
     70  CH2        6.8390   30.9070  -98.5140 C.ar  661  TRP661      0.0015
     71  N          9.0500   33.8630  -97.7100 N.3   664  GLY664     -0.1225
     72  CA        10.1900   33.0030  -98.0150 C.3   664  GLY664      0.1811
     73  C         11.3290   33.1170  -97.0220 C.2   664  GLY664      0.2280
     74  O         12.4910   33.1220  -97.4240 O.2   664  GLY664     -0.2866
     75  N         12.2810   31.0260  -94.5010 N.3   666  MET666     -0.1230
     76  CA        13.0220   29.7940  -94.2440 C.3   666  MET666      0.1702
     77  C         12.7290   28.7180  -95.2740 C.2   666  MET666      0.2593
     78  O         11.7530   28.8060  -96.0170 O.2   666  MET666     -0.2718
     79  CB        12.6700   29.2140  -92.8430 C.3   666  MET666      0.0401
     80  CG        12.5330   30.2300  -91.7150 C.3   666  MET666      0.0596
     81  SD        11.7340   29.4880  -90.2690 S.3   666  MET666     -0.1393
     82  CE        10.0250   29.6060  -90.7120 C.3   666  MET666      0.0692
     83  N         13.5670   27.6720  -95.2770 N.am  667  THR667     -0.1953
     84  CA        13.3860   26.4440  -96.0420 C.3   667  THR667      0.1897
     85  C         12.9880   25.4010  -95.0120 C.2   667  THR667      0.2313
     86  O         13.6580   25.2800  -93.9800 O.2   667  THR667     -0.2863
     87  CB        14.6410   26.0610  -96.8600 C.3   667  THR667      0.1794
     88  OG1       14.9220   27.0970  -97.7960 O.3   667  THR667     -0.2208
     89  CG2       14.4790   24.7430  -97.6120 C.3   667  THR667      0.0378
     90  N         23.2970   22.3910 -100.8310 N.3   683  ARG683     -0.1245
     91  CA        22.6600   23.5530 -101.4610 C.3   683  ARG683      0.1563
     92  C         22.6540   24.7140 -100.4720 C.2   683  ARG683      0.2260
     93  O         23.1170   25.8020 -100.8120 O.2   683  ARG683     -0.2867
     94  CB        21.2400   23.2320 -101.9620 C.3   683  ARG683      0.0307
     95  CG        20.6310   24.3090 -102.8680 C.3   683  ARG683      0.0489
     96  CD        19.2230   23.9520 -103.3060 C.3   683  ARG683      0.2205
     97  NE        18.3250   23.7700 -102.1630 N.pl3 683  ARG683     -0.0865
     98  CZ        17.0270   23.5110 -102.2620 C.cat 683  ARG683      0.5346
     99  NH1       16.4530   23.4040 -103.4540 N.pl3 683  ARG683      0.1354
    100  NH2       16.2890   23.3690 -101.1690 N.pl3 683  ARG683      0.1354
    101  N         24.3780   27.9600 -101.9110 N.3   687  ASP687     -0.1239
    102  CA        23.4570   28.8460 -102.6520 C.3   687  ASP687      0.1674
    103  C         23.5960   30.3510 -102.3200 C.2   687  ASP687      0.2266
    104  O         23.1630   31.1840 -103.1190 O.2   687  ASP687     -0.2867
    105  CB        21.9830   28.4040 -102.4860 C.3   687  ASP687      0.1410
    106  CG        21.4410   28.2650 -101.0670 C.2   687  ASP687      0.3668
    107  OD1       22.1370   28.6850 -100.1140 O.co2 687  ASP687     -0.2456
    108  OD2       20.3280   27.7240 -100.9120 O.co2 687  ASP687     -0.2456
    109  N         22.0000   32.0070 -100.0160 N.3   689  ILE689     -0.1245
    110  CA        20.7600   32.5180  -99.4190 C.3   689  ILE689      0.1561
    111  C         20.9730   32.5010  -97.9190 C.2   689  ILE689      0.2260
    112  O         21.1980   31.4340  -97.3390 O.2   689  ILE689     -0.2867
    113  CB        19.5230   31.6980  -99.8840 C.3   689  ILE689      0.0252
    114  CG1       19.1850   31.9990 -101.3660 C.3   689  ILE689      0.0019
    115  CG2       18.3040   31.9230  -98.9820 C.3   689  ILE689      0.0019
    116  CD1       18.5780   30.8390 -102.0960 C.3   689  ILE689      0.0001
    117  N         19.2120   32.5970  -95.1780 N.3   691  ARG691     -0.1245
    118  CA        17.9140   32.2960  -94.5660 C.3   691  ARG691      0.1563
    119  C         17.9670   30.9310  -93.8600 C.2   691  ARG691      0.2260
    120  O         18.6870   30.0430  -94.3230 O.2   691  ARG691     -0.2867
    121  CB        16.8000   32.3330  -95.6100 C.3   691  ARG691      0.0307
    122  CG        16.5360   33.7370  -96.0590 C.3   691  ARG691      0.0489
    123  CD        15.4860   33.8320  -97.1080 C.3   691  ARG691      0.2205
    124  NE        15.1280   35.2330  -97.3180 N.pl3 691  ARG691     -0.0865
    125  CZ        14.4620   35.6850  -98.3700 C.cat 691  ARG691      0.5346
    126  NH1       14.0710   34.8510  -99.3260 N.pl3 691  ARG691      0.1354
    127  NH2       14.1920   36.9780  -98.4830 N.pl3 691  ARG691      0.1354
    128  N         21.0070   16.1700 -108.0940 N.3   718  LYS718     -0.1231
    129  CA        20.8120   17.4160 -107.3470 C.3   718  LYS718      0.1693
    130  C         19.5990   17.2370 -106.4380 C.2   718  LYS718      0.2592
    131  O         18.9620   16.1810 -106.4880 O.2   718  LYS718     -0.2718
    132  CB        20.6040   18.5890 -108.3280 C.3   718  LYS718      0.0285
    133  CG        21.8390   18.9930 -109.0830 C.3   718  LYS718      0.0035
    134  CD        21.4620   20.1940 -109.9550 C.3   718  LYS718      0.0206
    135  CE        22.6690   20.6990 -110.6870 C.3   718  LYS718      0.1093
    136  NZ        22.2780   21.7940 -111.6130 N.3   718  LYS718     -0.1314
    137  N         19.2630   18.2470 -105.6200 N.am  719  PHE719     -0.1962
    138  CA        18.1040   18.1600 -104.7350 C.3   719  PHE719      0.1771
    139  C         16.8230   18.0110 -105.5440 C.2   719  PHE719      0.2619
    140  O         16.6670   18.6520 -106.5750 O.2   719  PHE719     -0.2715
    141  CB        18.0030   19.3860 -103.7980 C.3   719  PHE719      0.0574
    142  CG        16.8260   19.3190 -102.8460 C.ar  719  PHE719     -0.0200
    143  CD1       16.8300   18.4380 -101.7700 C.ar  719  PHE719     -0.0042
    144  CD2       15.6900   20.0890 -103.0640 C.ar  719  PHE719     -0.0042
    145  CE1       15.7230   18.3370 -100.9240 C.ar  719  PHE719     -0.0003
    146  CE2       14.5930   20.0030 -102.2020 C.ar  719  PHE719     -0.0003
    147  CZ        14.6130   19.1220 -101.1430 C.ar  719  PHE719     -0.0000
    148  N         15.9360   17.1350 -105.0960 N.am  720  ARG720     -0.1963
    149  CA        14.6460   16.9230 -105.7410 C.3   720  ARG720      0.1729
    150  C         13.5760   17.1560 -104.6910 C.2   720  ARG720      0.2616
    151  O         13.4830   16.3980 -103.7190 O.2   720  ARG720     -0.2715
    152  CB        14.5500   15.5270 -106.3850 C.3   720  ARG720      0.0348
    153  CG        15.5120   15.3860 -107.5690 C.3   720  ARG720      0.0492
    154  CD        14.8100   15.9640 -108.8010 C.3   720  ARG720      0.2205
    155  NE        15.6640   15.6610 -109.9980 N.pl3 720  ARG720     -0.0865
    156  CZ        16.7150   16.4200 -110.3090 C.cat 720  ARG720      0.5346
    157  NH1       17.0410   17.5380 -109.6640 N.pl3 720  ARG720      0.1354
    158  NH2       17.5910   15.9560 -111.2210 N.pl3 720  ARG720      0.1354
    159  N         12.8340   18.2590 -104.8400 N.am  721  SER721     -0.1950
    160  CA        11.7920   18.6980 -103.9120 C.3   721  SER721      0.1924
    161  C         10.5580   17.8080 -103.9780 C.2   721  SER721      0.2314
    162  O          9.8470   17.6750 -102.9820 O.2   721  SER721     -0.2863
    163  CB        11.4100   20.1430 -104.2020 C.3   721  SER721      0.2116
    164  OG        11.0690   20.2960 -105.5700 O.3   721  SER721     -0.2180
    165  N         10.4730   19.1420  -99.9500 N.3   771  GLN771     -0.1245
    166  CA        10.5600   20.5320  -99.5120 C.3   771  GLN771      0.1566
    167  C          9.1420   21.0220  -99.2420 C.2   771  GLN771      0.2260
    168  O          8.3540   21.1720 -100.1700 O.2   771  GLN771     -0.2867
    169  CB        11.2860   21.3940 -100.5590 C.3   771  GLN771      0.0367
    170  CG        11.5830   22.8240 -100.1020 C.3   771  GLN771      0.0905
    171  CD        12.3460   23.5820 -101.1530 C.2   771  GLN771      0.2608
    172  OE1       13.5140   23.2860 -101.4410 O.2   771  GLN771     -0.2717
    173  NE2       11.6960   24.5700 -101.7610 N.am  771  GLN771     -0.0878
    174  N          9.7130   26.7850  -99.1340 N.3   774  PRO774     -0.2102
    175  CA         8.6510   27.2360 -100.0570 C.3   774  PRO774      0.1504
    176  C          8.1110   26.0400 -100.8610 C.2   774  PRO774      0.2576
    177  O          8.8590   25.0920 -101.1260 O.2   774  PRO774     -0.2718
    178  CB         9.3660   28.2840 -100.9220 C.3   774  PRO774      0.0282
    179  CG        10.8010   27.8640 -100.9250 C.3   774  PRO774      0.0208
    180  CD        11.0410   27.2850  -99.5510 C.3   774  PRO774      0.0893
    181  N          6.7960   26.0420 -101.1530 N.am  775  LEU775     -0.1967
    182  CA         6.1370   24.9490 -101.8580 C.3   775  LEU775      0.1713
    183  C          6.6060   24.8560 -103.3170 C.2   775  LEU775      0.2458
    184  O          6.5150   25.8410 -104.0580 O.2   775  LEU775     -0.2730
    185  CB         4.6020   25.0810 -101.8090 C.3   775  LEU775      0.0310
    186  CG         3.8350   24.1520 -100.8470 C.3   775  LEU775      0.0022
    187  CD1        2.3920   24.6160 -100.6920 C.3   775  LEU775      0.0001
    188  CD2        3.8400   22.7050 -101.3220 C.3   775  LEU775      0.0001
    189  N          7.1110   23.6750 -103.7440 N.am  776  PRO776     -0.2716
    190  CA         7.5330   23.5260 -105.1430 C.3   776  PRO776      0.1536
    191  C          6.3040   23.3230 -106.0360 C.2   776  PRO776      0.2598
    192  O          6.0300   22.2130 -106.4880 O.2   776  PRO776     -0.2715
    193  CB         8.4620   22.3080 -105.0980 C.3   776  PRO776      0.0310
    194  CG         7.9950   21.5040 -103.9340 C.3   776  PRO776      0.0237
    195  CD         7.2650   22.4100 -102.9920 C.3   776  PRO776      0.0939
    196  N          5.5530   24.4140 -106.2650 N.am  777  ARG777     -0.1964
    197  CA         4.3020   24.4350 -107.0260 C.3   777  ARG777      0.1729
    198  C          4.4760   23.9060 -108.4600 C.2   777  ARG777      0.2616
    199  O          3.6920   23.0540 -108.8800 O.2   777  ARG777     -0.2715
    200  CB         3.7070   25.8520 -107.0450 C.3   777  ARG777      0.0348
    201  CG         2.2390   25.8950 -107.4690 C.3   777  ARG777      0.0492
    202  CD         1.6390   27.2850 -107.3860 C.3   777  ARG777      0.2205
    203  NE         1.9870   28.1000 -108.5480 N.pl3 777  ARG777     -0.0865
    204  CZ         1.1770   28.3290 -109.5750 C.cat 777  ARG777      0.5346
    205  NH1       -0.0450   27.8100 -109.5950 N.pl3 777  ARG777      0.1354
    206  NH2        1.5780   29.0840 -110.5860 N.pl3 777  ARG777      0.1354
    207  N          5.5010   24.4020 -109.1870 N.am  778  ARG778     -0.1963
    208  CA         5.8100   24.0410 -110.5740 C.3   778  ARG778      0.1729
    209  C          6.1800   22.5540 -110.6920 C.2   778  ARG778      0.2616
    210  O          5.5950   21.8550 -111.5220 O.2   778  ARG778     -0.2715
    211  CB         6.9480   24.9380 -111.1040 C.3   778  ARG778      0.0348
    212  CG         7.1700   24.8920 -112.5960 C.3   778  ARG778      0.0492
    213  CD         8.6440   24.7740 -112.9170 C.3   778  ARG778      0.2205
    214  NE         9.0030   23.3600 -112.9990 N.pl3 778  ARG778     -0.0865
    215  CZ         9.9060   22.7590 -112.2360 C.cat 778  ARG778      0.5346
    216  NH1       10.5720   23.4440 -111.3200 N.pl3 778  ARG778      0.1354
    217  NH2       10.1360   21.4620 -112.3720 N.pl3 778  ARG778      0.1354
    218  N          7.1300   22.0720 -109.8600 N.am  779  ARG779     -0.1977
    219  CA         7.5670   20.6770 -109.8880 C.3   779  ARG779      0.1597
    220  C          6.4230   19.7240 -109.4970 C.2   779  ARG779      0.2287
    221  O          6.2570   18.6950 -110.1480 O.2   779  ARG779     -0.2864
    222  CB         8.8030   20.4330 -109.0030 C.3   779  ARG779      0.0334
    223  CG         9.4920   19.1000 -109.3620 C.3   779  ARG779      0.0492
    224  CD        10.7520   18.8160 -108.5770 C.3   779  ARG779      0.2205
    225  NE        11.8460   19.7250 -108.9230 N.pl3 779  ARG779     -0.0865
    226  CZ        12.7890   19.4700 -109.8260 C.cat 779  ARG779      0.5346
    227  NH1       12.7840   18.3250 -110.4950 N.pl3 779  ARG779      0.1354
    228  NH2       13.7310   20.3690 -110.0840 N.pl3 779  ARG779      0.1354
@<TRIPOS>BOND
     1    48    47    1
     2    47    46    1
     3    46    45    1
     4    45    44    1
     5    39    38    1
     6    44    41    1
     7   214   213    1
     8   214   215    2
     9   213   212    1
    10   212   211    1
    11    38    35    1
    12   217   215    1
    13   215   216    1
    14    41    40    1
    15    41    42    1
    16    40    36   am
    17   136   135    1
    18    43    42    2
    19   210   209    2
    20    36    37    2
    21    36    35    1
    22    35    34    1
    23   158   156    1
    24    42    49   am
    25   211   208    1
    26   209   208    1
    27   209   218   am
    28   135   134    1
    29   206   204    1
    30   208   207    1
    31   227   226    1
    32   156   155    2
    33   156   157    1
    34   221   220    2
    35    34    29   am
    36   228   226    1
    37   155   154    1
    38   134   133    1
    39   219   218    1
    40   219   220    1
    41   219   222    1
    42   226   225    2
    43    49    50    1
    44   205   204    1
    45   204   203    2
    46   223   222    1
    47   223   224    1
    48   207   198   am
    49   133   132    1
    50   225   224    1
    51   199   198    2
    52    29    30    2
    53    29    28    1
    54   154   153    1
    55    50    51    1
    56    50    53    1
    57    51    52    2
    58   203   202    1
    59   198   197    1
    60   132   129    1
    61   128   129    1
    62    22    21    2
    63    28    31    1
    64    28    27    1
    65   153   152    1
    66   201   202    1
    67   201   200    1
    68    53    54    1
    69   129   130    1
    70    31    32    1
    71   200   197    1
    72   197   196    1
    73    21    27   am
    74    21    20    1
    75    27    33    1
    76   140   139    2
    77   131   130    2
    78   192   191    2
    79   130   137   am
    80   152   149    1
    81    25    23    1
    82   196   191   am
    83    54    55    1
    84    54    56    1
    85   191   190    1
    86    32    33    1
    87    23    20    1
    88    23    24    1
    89   149   148    1
    90   149   150    1
    91   137   138    1
    92    20    19    1
    93   164   163    1
    94   139   148   am
    95   139   138    1
    96   190   193    1
    97   190   189    1
    98   193   194    1
    99   159   150   am
   100   159   160    1
   101   138   141    1
   102   150   151    2
   103    26    24    1
   104   163   160    1
   105   184   183    2
   106   161   160    1
   107   161   162    2
   108   194   195    1
   109   141   142    1
   110   189   183   am
   111   189   195    1
   112    99    98    1
   113   183   182    1
   114    96    95    1
   115    96    97    1
   116   104   103    2
   117   144   142   ar
   118   144   146   ar
   119    95    94    1
   120   142   143   ar
   121    12    13    2
   122    12    11    1
   123   102   105    1
   124   102   103    1
   125   102   101    1
   126   105   106    1
   127    98    97    2
   128    98   100    1
   129   146   147   ar
   130   116   114    1
   131    94    91    1
   132   182   185    1
   133   182   181    1
   134   185   186    1
   135   143   145   ar
   136   173   171   am
   137    11    10    1
   138    11    14    1
   139     9     7   ar
   140    91    90    1
   141    91    92    1
   142   172   171    2
   143   114   113    1
   144     4     3    2
   145   188   186    1
   146     6     7    1
   147     6     5    1
   148     3     2    1
   149     7     8   ar
   150   171   170    1
   151   181   176   am
   152   147   145   ar
   153   177   176    2
   154   106   108   ar
   155   106   107   ar
   156   179   178    1
   157   179   180    1
   158   178   175    1
   159   176   175    1
   160   186   187    1
   161    93    92    2
   162     5     2    1
   163   169   170    1
   164   169   166    1
   165    14    15    1
   166   168   167    2
   167     2     1    1
   168   175   174    1
   169   109   110    1
   170   165   166    1
   171   113   110    1
   172   113   115    1
   173   180   174    1
   174   166   167    1
   175   110   111    1
   176   126   125    1
   177    15    16    1
   178    17    16    2
   179    70    68   ar
   180    70    69   ar
   181   127   125    1
   182   125   124    2
   183    16    18   am
   184    68    66   ar
   185    72    71    1
   186    72    73    1
   187   111   112    2
   188    88    87    1
   189    69    67   ar
   190    89    87    1
   191    74    73    2
   192   124   123    1
   193   123   122    1
   194    87    84    1
   195    66    65   ar
   196    66    64   ar
   197    67    64   ar
   198    65    63   ar
   199   122   121    1
   200    84    83    1
   201    84    85    1
   202    78    77    2
   203    64    62   ar
   204   121   118    1
   205    83    77   am
   206    77    76    1
   207   117   118    1
   208    85    86    2
   209    63    62   ar
   210    62    61    1
   211   118   119    1
   212    75    76    1
   213   120   119    2
   214    76    79    1
   215    61    58    1
   216    60    59    2
   217    59    58    1
   218    79    80    1
   219    58    57    1
   220    80    81    1
   221    82    81    1
