@<TRIPOS>MOLECULE
tmp/2y0pC00.pdb
 182 178 0 0 0
SMALL
GASTEIGER

@<TRIPOS>ATOM
      1  N         12.0160   54.9270  -73.2950 N.3   135  PHE135     -0.1241
      2  CA        12.6140   54.2060  -72.1530 C.3   135  PHE135      0.1605
      3  C         13.8820   54.9160  -71.6620 C.2   135  PHE135      0.2264
      4  O         15.0100   54.4520  -71.8720 O.2   135  PHE135     -0.2867
      5  CB        12.8620   52.7260  -72.4850 C.3   135  PHE135      0.0534
      6  CG        11.5520   51.9950  -72.6160 C.ar  135  PHE135     -0.0203
      7  CD1       10.7670   51.7340  -71.4930 C.ar  135  PHE135     -0.0042
      8  CD2       11.0640   51.6320  -73.8660 C.ar  135  PHE135     -0.0042
      9  CE1        9.5360   51.0910  -71.6180 C.ar  135  PHE135     -0.0003
     10  CE2        9.8340   50.9920  -73.9890 C.ar  135  PHE135     -0.0003
     11  CZ         9.0780   50.7230  -72.8650 C.ar  135  PHE135     -0.0000
     12  N         18.7720   45.6820  -73.1410 N.3   167  PRO167     -0.2102
     13  CA        17.3260   45.8520  -73.3060 C.3   167  PRO167      0.1504
     14  C         17.0030   47.2990  -73.7390 C.2   167  PRO167      0.2576
     15  O         17.8330   47.9740  -74.3640 O.2   167  PRO167     -0.2718
     16  CB        16.7760   45.4860  -71.9220 C.3   167  PRO167      0.0282
     17  CG        17.9040   45.7300  -70.9700 C.3   167  PRO167      0.0208
     18  CD        19.1750   45.9250  -71.7390 C.3   167  PRO167      0.0893
     19  N         15.7880   47.7590  -73.4090 N.am  168  HIS168     -0.1962
     20  CA        15.1960   49.0560  -73.7480 C.3   168  HIS168      0.1787
     21  C         15.7820   50.2530  -72.9540 C.2   168  HIS168      0.2620
     22  O         15.8050   51.3640  -73.4900 O.2   168  HIS168     -0.2715
     23  CB        13.6760   48.9790  -73.4860 C.3   168  HIS168      0.0785
     24  CG        13.3530   48.5210  -72.0900 C.ar  168  HIS168      0.0821
     25  ND1       13.3750   47.1760  -71.7460 N.ar  168  HIS168     -0.2267
     26  CD2       13.1100   49.2490  -70.9760 C.ar  168  HIS168      0.1154
     27  CE1       13.1160   47.1310  -70.4510 C.ar  168  HIS168      0.1986
     28  NE2       12.9370   48.3530  -69.9460 N.ar  168  HIS168     -0.2212
     29  N         16.1970   50.0410  -71.6780 N.am  169  ARG169     -0.1977
     30  CA        16.6770   51.0880  -70.7700 C.3   169  ARG169      0.1597
     31  C         17.9330   51.8080  -71.2870 C.2   169  ARG169      0.2287
     32  O         19.0270   51.2380  -71.2740 O.2   169  ARG169     -0.2864
     33  CB        16.9220   50.5200  -69.3580 C.3   169  ARG169      0.0334
     34  CG        17.0060   51.5650  -68.2270 C.3   169  ARG169      0.0492
     35  CD        15.7920   52.4830  -68.1220 C.3   169  ARG169      0.2205
     36  NE        14.5490   51.7460  -67.8740 N.pl3 169  ARG169     -0.0865
     37  CZ        13.3300   52.2400  -68.0680 C.cat 169  ARG169      0.5346
     38  NH1       13.1700   53.4770  -68.5250 N.pl3 169  ARG169      0.1354
     39  NH2       12.2610   51.4990  -67.8160 N.pl3 169  ARG169      0.1354
     40  N         10.4420   48.5210  -83.5370 N.3   205  VAL205     -0.1245
     41  CA        10.5180   49.7410  -82.7270 C.3   205  VAL205      0.1561
     42  C         11.9950   50.1850  -82.5750 C.2   205  VAL205      0.2260
     43  O         12.9050   49.3440  -82.6140 O.2   205  VAL205     -0.2867
     44  CB         9.7990   49.5890  -81.3560 C.3   205  VAL205      0.0252
     45  CG1        8.2940   49.4010  -81.5400 C.3   205  VAL205      0.0019
     46  CG2       10.3870   48.4460  -80.5310 C.3   205  VAL205      0.0019
     47  N         13.8820   51.2560  -80.1060 N.3   207  TYR207     -0.1227
     48  CA        14.6830   50.7510  -78.9760 C.3   207  TYR207      0.1736
     49  C         14.9650   49.2140  -79.0780 C.2   207  TYR207      0.2595
     50  O         15.2360   48.5730  -78.0690 O.2   207  TYR207     -0.2718
     51  CB        14.0330   51.1160  -77.6180 C.3   207  TYR207      0.0548
     52  CG        12.5390   50.8460  -77.5440 C.ar  207  TYR207     -0.0200
     53  CD1       12.0530   49.5850  -77.2050 C.ar  207  TYR207     -0.0009
     54  CD2       11.6130   51.8540  -77.8130 C.ar  207  TYR207     -0.0009
     55  CE1       10.6850   49.3310  -77.1380 C.ar  207  TYR207      0.0417
     56  CE2       10.2410   51.6090  -77.7560 C.ar  207  TYR207      0.0417
     57  CZ         9.7810   50.3410  -77.4310 C.ar  207  TYR207      0.1957
     58  OH         8.4320   50.0830  -77.3620 O.3   207  TYR207     -0.2866
     59  N         14.9450   48.6550  -80.2980 N.am  208  HIS208     -0.1975
     60  CA        15.2410   47.2440  -80.6020 C.3   208  HIS208      0.1656
     61  C         16.2960   47.1410  -81.6930 C.2   208  HIS208      0.2291
     62  O         16.7320   46.0510  -82.0490 O.2   208  HIS208     -0.2864
     63  CB        13.9740   46.5280  -81.0950 C.3   208  HIS208      0.0771
     64  CG        13.0070   46.1210  -80.0370 C.ar  208  HIS208      0.0820
     65  ND1       11.9180   45.3360  -80.3440 N.ar  208  HIS208     -0.2267
     66  CD2       12.9570   46.4460  -78.7270 C.ar  208  HIS208      0.1154
     67  CE1       11.2550   45.1870  -79.2150 C.ar  208  HIS208      0.1986
     68  NE2       11.8390   45.8420  -78.2160 N.ar  208  HIS208     -0.2212
     69  N         11.3450   42.2680  -77.8140 N.3   233  SER233     -0.1202
     70  CA        10.9280   42.8140  -76.5170 C.3   233  SER233      0.2020
     71  C         11.2950   41.8480  -75.4110 C.2   233  SER233      0.2619
     72  O         11.6330   42.2870  -74.3110 O.2   233  SER233     -0.2717
     73  CB         9.4290   43.0980  -76.4880 C.3   233  SER233      0.2103
     74  OG         9.0740   44.2690  -77.2060 O.3   233  SER233     -0.2182
     75  N         11.2510   40.5340  -75.7270 N.am  234  HIS234     -0.1961
     76  CA        11.5770   39.4020  -74.8540 C.3   234  HIS234      0.1787
     77  C         12.9220   39.6560  -74.1900 C.2   234  HIS234      0.2620
     78  O         13.9830   39.5020  -74.7980 O.2   234  HIS234     -0.2715
     79  CB        11.5530   38.0790  -75.6480 C.3   234  HIS234      0.0785
     80  CG        10.1960   37.7500  -76.1940 C.ar  234  HIS234      0.0821
     81  ND1        9.5360   38.6080  -77.0650 N.ar  234  HIS234     -0.2267
     82  CD2        9.4170   36.6650  -75.9760 C.ar  234  HIS234      0.1154
     83  CE1        8.3730   38.0360  -77.3180 C.ar  234  HIS234      0.1986
     84  NE2        8.2640   36.8550  -76.7000 N.ar  234  HIS234     -0.2212
     85  N         12.8410   40.2070  -72.9850 N.am  235  LEU235     -0.1977
     86  CA        13.9830   40.6000  -72.1710 C.3   235  LEU235      0.1596
     87  C         14.8320   39.4010  -71.8670 C.2   235  LEU235      0.2287
     88  O         14.2940   38.3500  -71.5150 O.2   235  LEU235     -0.2864
     89  CB        13.5170   41.2640  -70.8620 C.3   235  LEU235      0.0297
     90  CG        12.7250   42.5670  -70.9600 C.3   235  LEU235      0.0022
     91  CD1       12.2200   42.9810  -69.5920 C.3   235  LEU235      0.0001
     92  CD2       13.5600   43.6800  -71.5550 C.3   235  LEU235      0.0001
     93  N         18.3860   44.5450  -67.0710 N.3   273  GLY273     -0.1210
     94  CA        17.5350   45.1940  -66.0880 C.3   273  GLY273      0.1956
     95  C         17.5160   44.3070  -64.8590 C.2   273  GLY273      0.2612
     96  O         17.7310   43.0950  -64.9750 O.2   273  GLY273     -0.2717
     97  N         17.2650   44.8840  -63.6770 N.am  274  ASP274     -0.1959
     98  CA        17.2900   44.1420  -62.4100 C.3   274  ASP274      0.1840
     99  C         16.1850   43.0750  -62.2760 C.2   274  ASP274      0.2622
    100  O         16.4530   42.0120  -61.7120 O.2   274  ASP274     -0.2715
    101  CB        17.2390   45.0940  -61.2110 C.3   274  ASP274      0.1450
    102  CG        16.0650   46.0550  -61.1930 C.2   274  ASP274      0.3671
    103  OD1       15.8810   46.7970  -62.1950 O.co2 274  ASP274     -0.2456
    104  OD2       15.3620   46.1070  -60.1650 O.co2 274  ASP274     -0.2456
    105  N         14.9650   43.3420  -62.7630 N.am  275  ALA275     -0.1963
    106  CA        13.8810   42.3580  -62.6520 C.3   275  ALA275      0.1728
    107  C         14.0550   41.2170  -63.6680 C.2   275  ALA275      0.2616
    108  O         13.7970   40.0550  -63.3370 O.2   275  ALA275     -0.2715
    109  CB        12.5320   43.0280  -62.8350 C.3   275  ALA275      0.0334
    110  N         14.5060   41.5490  -64.8960 N.am  276  ALA276     -0.1977
    111  CA        14.7100   40.5730  -65.9590 C.3   276  ALA276      0.1597
    112  C         15.8930   39.6570  -65.6720 C.2   276  ALA276      0.2287
    113  O         15.8010   38.4730  -65.9770 O.2   276  ALA276     -0.2864
    114  CB        14.8960   41.2780  -67.2840 C.3   276  ALA276      0.0319
    115  N         14.4000   35.8440  -65.5750 N.3   280  GLN280     -0.1245
    116  CA        14.4910   35.0840  -66.8180 C.3   280  GLN280      0.1566
    117  C         15.5090   33.9430  -66.7250 C.2   280  GLN280      0.2260
    118  O         16.6790   34.1830  -66.4300 O.2   280  GLN280     -0.2867
    119  CB        14.8160   36.0090  -68.0040 C.3   280  GLN280      0.0367
    120  CG        13.6410   36.8810  -68.4280 C.3   280  GLN280      0.0905
    121  CD        12.5250   36.0660  -69.0520 C.2   280  GLN280      0.2608
    122  OE1       12.7030   35.4120  -70.0810 O.2   280  GLN280     -0.2717
    123  NE2       11.3500   36.0640  -68.4300 N.am  280  GLN280     -0.0878
    124  N         21.5960   47.4920  -64.9670 N.3   305  VAL305     -0.1245
    125  CA        21.0370   48.8160  -64.7110 C.3   305  VAL305      0.1561
    126  C         19.9590   48.5570  -63.6570 C.2   305  VAL305      0.2260
    127  O         18.7990   48.2830  -63.9910 O.2   305  VAL305     -0.2867
    128  CB        20.5230   49.5320  -65.9910 C.3   305  VAL305      0.0252
    129  CG1       20.0130   50.9370  -65.6730 C.3   305  VAL305      0.0019
    130  CG2       21.6070   49.6000  -67.0650 C.3   305  VAL305      0.0019
    131  N         17.7280   49.8180  -61.2950 N.3   307  ASN307     -0.1240
    132  CA        16.9520   50.9920  -60.9000 C.3   307  ASN307      0.1653
    133  C         15.9450   50.6310  -59.7940 C.2   307  ASN307      0.2266
    134  O         15.0400   51.4180  -59.5020 O.2   307  ASN307     -0.2867
    135  CB        16.2600   51.6440  -62.1030 C.3   307  ASN307      0.1155
    136  CG        15.5160   50.7200  -63.0370 C.2   307  ASN307      0.2627
    137  OD1       15.0920   49.6240  -62.6820 O.2   307  ASN307     -0.2716
    138  ND2       15.3170   51.1750  -64.2570 N.am  307  ASN307     -0.0877
    139  N         13.4780   48.5930  -59.5250 N.3   309  ILE309     -0.1231
    140  CA        12.0840   48.5590  -59.9810 C.3   309  ILE309      0.1692
    141  C         11.9680   47.7610  -61.2850 C.2   309  ILE309      0.2593
    142  O         12.9080   47.7170  -62.0740 O.2   309  ILE309     -0.2718
    143  CB        11.5120   50.0340  -60.1310 C.3   309  ILE309      0.0266
    144  CG1        9.9790   50.0870  -60.2550 C.3   309  ILE309      0.0019
    145  CG2       12.1980   50.8670  -61.2270 C.3   309  ILE309      0.0020
    146  CD1        9.2590   49.8700  -59.0210 C.3   309  ILE309      0.0001
    147  N         10.8040   47.1590  -61.4820 N.am  310  GLY310     -0.1942
    148  CA        10.4200   46.4220  -62.6840 C.3   310  GLY310      0.2014
    149  C          9.0090   46.8490  -63.0290 C.2   310  GLY310      0.2638
    150  O          8.0470   46.2450  -62.5500 O.2   310  GLY310     -0.2714
    151  N          8.8810   47.9580  -63.7910 N.am  311  PHE311     -0.1973
    152  CA         7.6210   48.6140  -64.1630 C.3   311  PHE311      0.1639
    153  C          6.9160   49.0790  -62.8440 C.2   311  PHE311      0.2290
    154  O          7.3230   50.0950  -62.2890 O.2   311  PHE311     -0.2864
    155  CB         6.7460   47.7010  -65.0680 C.3   311  PHE311      0.0560
    156  CG         5.6210   48.3300  -65.8650 C.ar  311  PHE311     -0.0200
    157  CD1        5.1120   49.5820  -65.5220 C.ar  311  PHE311     -0.0042
    158  CD2        5.0270   47.6430  -66.9180 C.ar  311  PHE311     -0.0042
    159  CE1        4.0740   50.1560  -66.2530 C.ar  311  PHE311     -0.0003
    160  CE2        3.9730   48.2080  -67.6360 C.ar  311  PHE311     -0.0003
    161  CZ         3.5100   49.4660  -67.3050 C.ar  311  PHE311     -0.0000
    162  N         15.0510   55.1120  -61.5270 N.3   372  ARG372     -0.1245
    163  CA        14.3590   55.4630  -62.7620 C.3   372  ARG372      0.1563
    164  C         13.6110   56.7700  -62.4810 C.2   372  ARG372      0.2260
    165  O         12.6080   56.7520  -61.7660 O.2   372  ARG372     -0.2867
    166  CB        13.4350   54.2980  -63.1540 C.3   372  ARG372      0.0307
    167  CG        12.8050   54.3830  -64.5430 C.3   372  ARG372      0.0489
    168  CD        11.6030   53.4660  -64.6130 C.3   372  ARG372      0.2205
    169  NE        10.5540   53.8780  -63.6750 N.pl3 372  ARG372     -0.0865
    170  CZ         9.6220   53.0670  -63.1870 C.cat 372  ARG372      0.5346
    171  NH1        9.5980   51.7890  -63.5330 N.pl3 372  ARG372      0.1354
    172  NH2        8.7120   53.5270  -62.3400 N.pl3 372  ARG372      0.1354
    173  N          7.8550   53.9020  -65.8550 N.3   376  HIS376     -0.1241
    174  CA         8.4300   52.7920  -66.6250 C.3   376  HIS376      0.1621
    175  C          8.6780   53.2270  -68.0710 C.2   376  HIS376      0.2264
    176  O          9.7770   53.0380  -68.6000 O.2   376  HIS376     -0.2867
    177  CB         7.5230   51.5680  -66.5580 C.3   376  HIS376      0.0745
    178  CG         8.0170   50.4120  -67.3640 C.ar  376  HIS376      0.0817
    179  ND1        9.2100   49.7900  -67.0680 N.ar  376  HIS376     -0.2268
    180  CD2        7.4650   49.8180  -68.4450 C.ar  376  HIS376      0.1154
    181  CE1        9.3420   48.8350  -67.9710 C.ar  376  HIS376      0.1986
    182  NE2        8.3140   48.8120  -68.8170 N.ar  376  HIS376     -0.2212
@<TRIPOS>BOND
     1    40    41    1
     2    41    42    1
     3    41    44    1
     4    43    42    2
     5    62    61    2
     6    61    60    1
     7    45    44    1
     8    44    46    1
     9    63    60    1
    10    63    64    1
    11    60    59    1
    12    65    64   ar
    13    65    67   ar
    14    59    49   am
    15    47    48    1
    16    64    66   ar
    17    67    68   ar
    18    49    48    1
    19    49    50    2
    20    48    51    1
    21    66    68   ar
    22    69    70    1
    23    54    56   ar
    24    54    52   ar
    25    56    57   ar
    26    51    52    1
    27    52    53   ar
    28    57    58    1
    29    57    55   ar
    30    83    81   ar
    31    83    84   ar
    32    74    73    1
    33    53    55   ar
    34    81    80   ar
    35    84    82   ar
    36    70    73    1
    37    70    71    1
    38    80    82   ar
    39    80    79    1
    40    75    71   am
    41    75    76    1
    42    79    76    1
    43    71    72    2
    44    76    77    1
    45    78    77    2
    46    15    14    2
    47    77    85   am
    48    10     8   ar
    49    10    11   ar
    50     8     6   ar
    51    20    23    1
    52    20    19    1
    53    20    21    1
    54    14    19   am
    55    14    13    1
    56    22    21    2
    57    23    24    1
    58    13    12    1
    59    13    16    1
    60     1     2    1
    61    12    18    1
    62    85    86    1
    63    21    29   am
    64    11     9   ar
    65     6     5    1
    66     6     7   ar
    67     5     2    1
    68    86    87    1
    69    86    89    1
    70     2     3    1
    71    24    25   ar
    72    24    26   ar
    73    16    17    1
    74     4     3    2
    75    87    88    2
    76    25    27   ar
    77    18    17    1
    78    29    30    1
    79     9     7   ar
    80    92    90    1
    81    31    32    2
    82    31    30    1
    83    26    28   ar
    84    90    89    1
    85    90    91    1
    86    30    33    1
    87    27    28   ar
    88   122   121    2
    89    33    34    1
    90   121   123   am
    91   121   120    1
    92   182   180   ar
    93   182   181   ar
    94   176   175    2
    95    38    37    1
    96   180   178   ar
    97   120   119    1
    98    34    35    1
    99    35    36    1
   100   175   174    1
   101    37    36    2
   102    37    39    1
   103   119   116    1
   104   181   179   ar
   105   160   161   ar
   106   160   158   ar
   107   178   179   ar
   108   178   177    1
   109   161   159   ar
   110   114   111    1
   111    93    94    1
   112   130   128    1
   113   158   156   ar
   114   116   117    1
   115   116   115    1
   116   117   118    2
   117   174   177    1
   118   174   173    1
   119   159   157   ar
   120    94    95    1
   121   128   129    1
   122   128   125    1
   123   113   112    2
   124   111   112    1
   125   111   110    1
   126   156   157   ar
   127   156   155    1
   128   155   152    1
   129    96    95    2
   130   124   125    1
   131   110   107   am
   132    95    97   am
   133   125   126    1
   134   168   167    1
   135   168   169    1
   136   167   166    1
   137   138   136   am
   138   152   151    1
   139   152   153    1
   140   127   126    2
   141   151   149   am
   142    97    98    1
   143   169   170    2
   144   107   108    2
   145   107   106    1
   146   171   170    1
   147   170   172    1
   148   166   163    1
   149   136   137    2
   150   136   135    1
   151   149   148    1
   152   149   150    2
   153   153   154    2
   154   109   106    1
   155   105   106    1
   156   105    99   am
   157   163   164    1
   158   163   162    1
   159   148   147    1
   160   164   165    2
   161    98    99    1
   162    98   101    1
   163    99   100    2
   164   103   102   ar
   165   135   132    1
   166   142   141    2
   167   147   141   am
   168   131   132    1
   169   141   140    1
   170   145   143    1
   171   101   102    1
   172   102   104   ar
   173   132   133    1
   174   144   143    1
   175   144   146    1
   176   143   140    1
   177   140   139    1
   178   133   134    2
