@<TRIPOS>MOLECULE
tmp/2y0pD02.pdb
 171 165 0 0 0
SMALL
GASTEIGER

@<TRIPOS>ATOM
      1  N        -12.9190   14.3080  -75.1050 N.3   432  GLU432     -0.1245
      2  CA       -13.9110   15.3930  -75.1400 C.3   432  GLU432      0.1567
      3  C        -15.1730   15.1150  -74.2980 C.2   432  GLU432      0.2260
      4  O        -15.5530   15.9650  -73.4870 O.2   432  GLU432     -0.2867
      5  CB       -14.3230   15.7180  -76.5870 C.3   432  GLU432      0.0388
      6  CG       -15.3210   16.8280  -76.7100 C.3   432  GLU432      0.1160
      7  CD       -15.6600   17.2580  -78.1040 C.2   432  GLU432      0.3649
      8  OE1      -15.1980   16.6580  -79.0510 O.co2 432  GLU432     -0.2457
      9  OE2      -16.5260   18.1150  -78.3390 O.co2 432  GLU432     -0.2457
     10  N        -20.9510   19.4180  -70.5510 N.3   437  ILE437     -0.1231
     11  CA       -21.4490   20.7830  -70.3670 C.3   437  ILE437      0.1678
     12  C        -22.7340   20.7290  -69.5140 C.2   437  ILE437      0.2434
     13  O        -23.6450   19.9570  -69.8450 O.2   437  ILE437     -0.2733
     14  CB       -21.6790   21.4800  -71.7420 C.3   437  ILE437      0.0265
     15  CG1      -20.3320   21.7850  -72.4420 C.3   437  ILE437      0.0019
     16  CG2      -22.5340   22.7550  -71.6050 C.3   437  ILE437      0.0020
     17  CD1      -20.4190   21.9750  -73.9510 C.3   437  ILE437      0.0001
     18  N        -22.8170   21.4980  -68.4030 N.am  438  PRO438     -0.2718
     19  CA       -24.0430   21.4500  -67.5920 C.3   438  PRO438      0.1535
     20  C        -25.2180   22.1390  -68.2910 C.2   438  PRO438      0.2599
     21  O        -25.0220   23.0990  -69.0420 O.2   438  PRO438     -0.2715
     22  CB       -23.6430   22.1610  -66.3000 C.3   438  PRO438      0.0310
     23  CG       -22.5570   23.0960  -66.7090 C.3   438  PRO438      0.0237
     24  CD       -21.8310   22.4560  -67.8510 C.3   438  PRO438      0.0939
     25  N        -26.4370   21.6190  -68.0640 N.am  439  SER439     -0.1936
     26  CA       -27.6620   22.1520  -68.6540 C.3   439  SER439      0.2055
     27  C        -28.2020   23.3300  -67.8420 C.2   439  SER439      0.2643
     28  O        -28.2240   23.2700  -66.6100 O.2   439  SER439     -0.2714
     29  CB       -28.7250   21.0610  -68.7600 C.3   439  SER439      0.2130
     30  OG       -29.2060   20.6420  -67.5290 O.3   439  SER439     -0.2179
     31  N        -28.6360   24.3960  -68.5500 N.am  440  LYS440     -0.1963
     32  CA       -29.2390   25.6280  -68.0220 C.3   440  LYS440      0.1728
     33  C        -28.4550   26.2160  -66.8160 C.2   440  LYS440      0.2616
     34  O        -29.0050   26.3550  -65.7160 O.2   440  LYS440     -0.2715
     35  CB       -30.7160   25.3840  -67.6540 C.3   440  LYS440      0.0311
     36  CG       -31.5920   24.9590  -68.8120 C.3   440  LYS440      0.0038
     37  CD       -31.5980   26.0160  -69.8980 C.3   440  LYS440      0.0206
     38  CE       -32.7470   25.7960  -70.8660 C.3   440  LYS440      0.1093
     39  NZ       -32.7440   24.3850  -71.3420 N.3   440  LYS440     -0.1314
     40  N        -27.1720   26.5580  -67.0370 N.am  441  LEU441     -0.1977
     41  CA       -26.3290   27.1480  -66.0010 C.3   441  LEU441      0.1596
     42  C        -26.4880   28.6810  -66.0060 C.2   441  LEU441      0.2287
     43  O        -26.1970   29.3410  -67.0130 O.2   441  LEU441     -0.2864
     44  CB       -24.8570   26.7330  -66.1850 C.3   441  LEU441      0.0297
     45  CG       -23.8530   27.3220  -65.1840 C.3   441  LEU441      0.0022
     46  CD1      -23.7400   26.4670  -63.9390 C.3   441  LEU441      0.0001
     47  CD2      -22.5000   27.4910  -65.8150 C.3   441  LEU441      0.0001
     48  N        -11.0680   25.8980  -73.7600 N.3   648  THR648     -0.1218
     49  CA       -11.9840   26.9130  -74.2680 C.3   648  THR648      0.1862
     50  C        -11.0850   28.0560  -74.7150 C.2   648  THR648      0.2287
     51  O        -10.2090   28.4690  -73.9540 O.2   648  THR648     -0.2866
     52  CB       -13.0540   27.3270  -73.2290 C.3   648  THR648      0.1770
     53  OG1      -13.8500   26.1890  -72.8890 O.3   648  THR648     -0.2211
     54  CG2      -13.9760   28.4370  -73.7400 C.3   648  THR648      0.0375
     55  N        -18.9510   31.6370  -66.0780 N.3   664  ARG664     -0.1245
     56  CA       -19.2940   30.2910  -66.5480 C.3   664  ARG664      0.1563
     57  C        -18.1510   29.3410  -66.1970 C.2   664  ARG664      0.2260
     58  O        -18.3980   28.3100  -65.5770 O.2   664  ARG664     -0.2867
     59  CB       -19.5970   30.2740  -68.0570 C.3   664  ARG664      0.0307
     60  CG       -20.2070   28.9640  -68.5620 C.3   664  ARG664      0.0489
     61  CD       -20.4480   28.9920  -70.0620 C.3   664  ARG664      0.2205
     62  NE       -19.2080   29.2030  -70.8110 N.pl3 664  ARG664     -0.0865
     63  CZ       -19.1230   29.2160  -72.1350 C.cat 664  ARG664      0.5346
     64  NH1      -20.2030   29.0140  -72.8780 N.pl3 664  ARG664      0.1354
     65  NH2      -17.9550   29.4210  -72.7280 N.pl3 664  ARG664      0.1354
     66  N        -19.3440   26.2190  -64.0930 N.3   668  ASP668     -0.1239
     67  CA       -19.7870   25.0810  -64.9170 C.3   668  ASP668      0.1674
     68  C        -19.2700   23.7030  -64.4520 C.2   668  ASP668      0.2266
     69  O        -19.8720   22.6880  -64.8090 O.2   668  ASP668     -0.2867
     70  CB       -19.4460   25.2880  -66.4140 C.3   668  ASP668      0.1410
     71  CG       -17.9920   25.5830  -66.7770 C.2   668  ASP668      0.3668
     72  OD1      -17.1100   25.4700  -65.8860 O.co2 668  ASP668     -0.2456
     73  OD2      -17.7360   25.9400  -67.9470 O.co2 668  ASP668     -0.2456
     74  N        -16.4410   22.2590  -65.3240 N.3   670  ILE670     -0.1245
     75  CA       -15.6060   21.6560  -66.3660 C.3   670  ILE670      0.1561
     76  C        -14.1500   21.9910  -66.0280 C.2   670  ILE670      0.2260
     77  O        -13.7300   23.1420  -66.1740 O.2   670  ILE670     -0.2867
     78  CB       -16.0330   22.1240  -67.7960 C.3   670  ILE670      0.0252
     79  CG1      -17.5160   21.7730  -68.0870 C.3   670  ILE670      0.0019
     80  CG2      -15.1030   21.5460  -68.8780 C.3   670  ILE670      0.0019
     81  CD1      -18.2160   22.7030  -69.0550 C.3   670  ILE670      0.0001
     82  N        -26.6870   35.9730  -70.3910 N.3   699  LYS699     -0.1231
     83  CA       -25.8020   34.8060  -70.3100 C.3   699  LYS699      0.1693
     84  C        -24.6870   34.9860  -71.3790 C.2   699  LYS699      0.2592
     85  O        -24.8110   35.8870  -72.2180 O.2   699  LYS699     -0.2718
     86  CB       -26.6770   33.5490  -70.5460 C.3   699  LYS699      0.0285
     87  CG       -25.9890   32.2090  -70.7860 C.3   699  LYS699      0.0035
     88  CD       -27.0060   31.1460  -71.2150 C.3   699  LYS699      0.0206
     89  CE       -27.3740   31.1750  -72.6880 C.3   699  LYS699      0.1093
     90  NZ       -28.5510   30.3150  -72.9830 N.3   699  LYS699     -0.1314
     91  N        -23.6050   34.1710  -71.3430 N.am  700  PHE700     -0.1976
     92  CA       -22.5210   34.2390  -72.3330 C.3   700  PHE700      0.1639
     93  C        -23.0440   33.8820  -73.7260 C.2   700  PHE700      0.2290
     94  O        -23.7170   32.8600  -73.8920 O.2   700  PHE700     -0.2864
     95  CB       -21.3360   33.3170  -71.9540 C.3   700  PHE700      0.0560
     96  CG       -20.2400   33.2900  -72.9970 C.ar  700  PHE700     -0.0200
     97  CD1      -19.3390   34.3420  -73.1120 C.ar  700  PHE700     -0.0042
     98  CD2      -20.1380   32.2340  -73.8960 C.ar  700  PHE700     -0.0042
     99  CE1      -18.3630   34.3440  -74.1130 C.ar  700  PHE700     -0.0003
    100  CE2      -19.1510   32.2310  -74.8890 C.ar  700  PHE700     -0.0003
    101  CZ       -18.2740   33.2870  -74.9930 C.ar  700  PHE700     -0.0000
    102  N        -21.7670   33.0680  -77.4960 N.3   702  SER702     -0.1217
    103  CA       -20.6280   32.6380  -78.3090 C.3   702  SER702      0.1889
    104  C        -20.6380   33.2780  -79.6910 C.2   702  SER702      0.2288
    105  O        -19.5760   33.4790  -80.2790 O.2   702  SER702     -0.2866
    106  CB       -20.6200   31.1220  -78.4440 C.3   702  SER702      0.2089
    107  OG       -21.8680   30.6590  -78.9330 O.3   702  SER702     -0.2183
    108  N        -16.4890   32.7630  -78.9900 N.3   752  GLN752     -0.1245
    109  CA       -15.8470   31.5160  -78.5870 C.3   752  GLN752      0.1566
    110  C        -15.2710   30.8680  -79.8390 C.2   752  GLN752      0.2260
    111  O        -16.0250   30.4100  -80.7000 O.2   752  GLN752     -0.2867
    112  CB       -16.8490   30.5960  -77.8660 C.3   752  GLN752      0.0367
    113  CG       -16.2160   29.3580  -77.2340 C.3   752  GLN752      0.0905
    114  CD       -17.2440   28.5420  -76.4980 C.2   752  GLN752      0.2608
    115  OE1      -17.7600   28.9480  -75.4540 O.2   752  GLN752     -0.2717
    116  NE2      -17.5670   27.3740  -77.0260 N.am  752  GLN752     -0.0878
    117  N        -14.3290   25.4020  -78.1780 N.3   755  PRO755     -0.2102
    118  CA       -14.9770   24.6200  -79.2500 C.3   755  PRO755      0.1504
    119  C        -15.8490   25.5350  -80.1110 C.2   755  PRO755      0.2576
    120  O        -16.3810   26.5320  -79.6020 O.2   755  PRO755     -0.2718
    121  CB       -15.7790   23.5630  -78.4750 C.3   755  PRO755      0.0282
    122  CG       -16.0830   24.2080  -77.1600 C.3   755  PRO755      0.0208
    123  CD       -14.8720   25.0490  -76.8490 C.3   755  PRO755      0.0893
    124  N        -15.9170   25.2500  -81.4270 N.am  756  LEU756     -0.1967
    125  CA       -16.6720   26.0670  -82.3780 C.3   756  LEU756      0.1713
    126  C        -18.1780   25.9490  -82.1340 C.2   756  LEU756      0.2458
    127  O        -18.7110   24.8370  -82.1280 O.2   756  LEU756     -0.2730
    128  CB       -16.3440   25.6980  -83.8310 C.3   756  LEU756      0.0310
    129  CG       -15.4310   26.6590  -84.6130 C.3   756  LEU756      0.0022
    130  CD1      -14.9510   26.0120  -85.9000 C.3   756  LEU756      0.0001
    131  CD2      -16.1370   27.9750  -84.9480 C.3   756  LEU756      0.0001
    132  N        -18.8790   27.0850  -81.9110 N.am  757  PRO757     -0.2716
    133  CA       -20.3330   27.0170  -81.7010 C.3   757  PRO757      0.1536
    134  C        -21.0340   26.8290  -83.0490 C.2   757  PRO757      0.2598
    135  O        -21.6170   27.7680  -83.5890 O.2   757  PRO757     -0.2715
    136  CB       -20.6520   28.3560  -81.0250 C.3   757  PRO757      0.0310
    137  CG       -19.5750   29.2910  -81.4780 C.3   757  PRO757      0.0237
    138  CD       -18.3870   28.4820  -81.8960 C.3   757  PRO757      0.0939
    139  N        -20.9510   25.5990  -83.5950 N.am  758  ARG758     -0.1964
    140  CA       -21.4820   25.2140  -84.9040 C.3   758  ARG758      0.1729
    141  C        -22.9940   25.4700  -85.0270 C.2   758  ARG758      0.2616
    142  O        -23.4240   26.0770  -86.0130 O.2   758  ARG758     -0.2715
    143  CB       -21.1600   23.7360  -85.2050 C.3   758  ARG758      0.0348
    144  CG       -21.3050   23.3760  -86.6860 C.3   758  ARG758      0.0492
    145  CD       -20.8900   21.9520  -86.9980 C.3   758  ARG758      0.2205
    146  NE       -21.9540   21.0030  -86.6730 N.pl3 758  ARG758     -0.0865
    147  CZ       -22.7560   20.4250  -87.5620 C.cat 758  ARG758      0.5346
    148  NH1      -22.6050   20.6620  -88.8610 N.pl3 758  ARG758      0.1354
    149  NH2      -23.7040   19.5910  -87.1620 N.pl3 758  ARG758      0.1354
    150  N        -23.7810   25.0200  -84.0280 N.am  759  ARG759     -0.1963
    151  CA       -25.2410   25.1490  -83.9900 C.3   759  ARG759      0.1729
    152  C        -25.6740   26.6270  -83.9210 C.2   759  ARG759      0.2616
    153  O        -26.5010   27.0420  -84.7350 O.2   759  ARG759     -0.2715
    154  CB       -25.8050   24.3440  -82.8030 C.3   759  ARG759      0.0348
    155  CG       -27.3170   24.2910  -82.7100 C.3   759  ARG759      0.0492
    156  CD       -27.7200   24.3310  -81.2580 C.3   759  ARG759      0.2205
    157  NE       -29.1710   24.3040  -81.0870 N.pl3 759  ARG759     -0.0865
    158  CZ       -29.8950   25.3400  -80.6770 C.cat 759  ARG759      0.5346
    159  NH1      -29.3070   26.4960  -80.3850 N.pl3 759  ARG759      0.1354
    160  NH2      -31.2100   25.2270  -80.5450 N.pl3 759  ARG759      0.1354
    161  N        -25.0990   27.4160  -82.9800 N.am  760  ARG760     -0.1977
    162  CA       -25.4290   28.8370  -82.8210 C.3   760  ARG760      0.1597
    163  C        -25.0260   29.6400  -84.0680 C.2   760  ARG760      0.2287
    164  O        -25.8090   30.4790  -84.5150 O.2   760  ARG760     -0.2864
    165  CB       -24.7880   29.4370  -81.5570 C.3   760  ARG760      0.0334
    166  CG       -25.3200   28.8120  -80.2710 C.3   760  ARG760      0.0492
    167  CD       -26.8130   29.0130  -80.0280 C.3   760  ARG760      0.2205
    168  NE       -27.1450   30.4450  -80.0690 N.pl3 760  ARG760     -0.0865
    169  CZ       -27.0290   31.2650  -79.0590 C.cat 760  ARG760      0.5346
    170  NH1      -26.6590   30.8350  -77.8570 N.pl3 760  ARG760      0.1354
    171  NH2      -27.2780   32.5480  -79.1860 N.pl3 760  ARG760      0.1354
@<TRIPOS>BOND
     1   148   147    1
     2   147   149    1
     3   147   146    2
     4   145   144    1
     5   145   146    1
     6   144   143    1
     7   142   141    2
     8   130   129    1
     9   143   140    1
    10   141   140    1
    11   141   150   am
    12   131   129    1
    13   140   139    1
    14   153   152    2
    15   129   128    1
    16   164   163    2
    17   163   162    1
    18   150   151    1
    19   151   152    1
    20   151   154    1
    21   152   161   am
    22   128   125    1
    23   139   134   am
    24   135   134    2
    25   134   133    1
    26   161   162    1
    27   162   165    1
    28   154   155    1
    29   155   156    1
    30   125   126    1
    31   125   124    1
    32   126   127    2
    33   126   132   am
    34   132   138    1
    35   132   133    1
    36   138   137    1
    37   133   136    1
    38   165   166    1
    39   137   136    1
    40   124   119   am
    41   156   157    1
    42   157   158    2
    43   111   110    2
    44   158   160    1
    45   158   159    1
    46   105   104    2
    47   166   167    1
    48   119   120    2
    49   119   118    1
    50   168   167    1
    51   168   169    2
    52   110   109    1
    53   104   103    1
    54   118   121    1
    55   118   117    1
    56   171   169    1
    57   169   170    1
    58     8     7   ar
    59   108   109    1
    60   107   106    1
    61   109   112    1
    62   121   122    1
    63   106   103    1
    64     9     7   ar
    65   103   102    1
    66   117   123    1
    67     7     6    1
    68   112   113    1
    69   113   114    1
    70   122   123    1
    71   116   114   am
    72     6     5    1
    73     5     2    1
    74   114   115    2
    75     2     1    1
    76     2     3    1
    77   101   100   ar
    78   101    99   ar
    79   100    98   ar
    80    50    49    1
    81    50    51    2
    82     3     4    2
    83    49    48    1
    84    49    52    1
    85    99    97   ar
    86    17    15    1
    87    98    96   ar
    88    94    93    2
    89    54    52    1
    90    93    92    1
    91    52    53    1
    92    97    96   ar
    93    96    95    1
    94    90    89    1
    95    64    63    1
    96    65    63    1
    97    89    88    1
    98    15    14    1
    99    92    95    1
   100    92    91    1
   101    85    84    2
   102    63    62    2
   103    14    16    1
   104    14    11    1
   105    84    91   am
   106    84    83    1
   107    39    38    1
   108    88    87    1
   109    38    37    1
   110    62    61    1
   111    87    86    1
   112    10    11    1
   113    86    83    1
   114    82    83    1
   115    11    12    1
   116    61    60    1
   117    37    36    1
   118    13    12    2
   119    12    18   am
   120    81    79    1
   121    21    20    2
   122    80    78    1
   123    36    35    1
   124    29    26    1
   125    29    30    1
   126    26    25    1
   127    26    27    1
   128    60    59    1
   129    31    32    1
   130    31    27   am
   131    18    24    1
   132    18    19    1
   133    20    25   am
   134    20    19    1
   135    79    78    1
   136    59    56    1
   137    32    35    1
   138    32    33    1
   139    73    71   ar
   140    24    23    1
   141    27    28    2
   142    78    75    1
   143    19    22    1
   144    40    33   am
   145    40    41    1
   146    43    42    2
   147    33    34    2
   148    71    70    1
   149    71    72   ar
   150    23    22    1
   151    56    57    1
   152    56    55    1
   153    70    67    1
   154    75    76    1
   155    75    74    1
   156    57    58    2
   157    44    41    1
   158    44    45    1
   159    77    76    2
   160    42    41    1
   161    47    45    1
   162    45    46    1
   163    67    68    1
   164    67    66    1
   165    69    68    2
