@<TRIPOS>MOLECULE
tmp/2y1lB00.pdb
 105 105 0 0 0
SMALL
GASTEIGER

@<TRIPOS>ATOM
      1  N        -11.9740   30.4730  -32.7500 N.3    19  VAL19      -0.1231
      2  CA       -12.8540   30.6140  -31.6250 C.3    19  VAL19       0.1692
      3  C        -13.5510   29.2890  -31.3950 C.2    19  VAL19       0.2593
      4  O        -13.6600   28.4440  -32.2860 O.2    19  VAL19      -0.2718
      5  CB       -13.9120   31.6950  -31.8760 C.3    19  VAL19       0.0266
      6  CG1      -13.2410   33.0460  -32.0790 C.3    19  VAL19       0.0020
      7  CG2      -14.7610   31.3300  -33.0710 C.3    19  VAL19       0.0020
      8  N        -13.9890   29.0920  -30.1710 N.am   20  SER20      -0.1938
      9  CA       -14.9610   28.0640  -29.9260 C.3    20  SER20       0.2055
     10  C        -16.1290   28.8510  -29.4090 C.2    20  SER20       0.2643
     11  O        -15.9750   29.9930  -28.9510 O.2    20  SER20      -0.2714
     12  CB       -14.4640   27.0550  -28.9040 C.3    20  SER20       0.2130
     13  OG       -14.2200   27.6900  -27.6800 O.3    20  SER20      -0.2179
     14  N        -17.3020   28.2590  -29.4980 N.am   21  TYR21      -0.1959
     15  CA       -18.5110   28.9980  -29.2530 C.3    21  TYR21       0.1771
     16  C        -19.1390   28.6330  -27.9540 C.2    21  TYR21       0.2619
     17  O        -19.1740   27.4750  -27.5510 O.2    21  TYR21      -0.2715
     18  CB       -19.4940   28.7780  -30.3820 C.3    21  TYR21       0.0574
     19  CG       -19.0590   29.5120  -31.6020 C.ar   21  TYR21      -0.0198
     20  CD1      -19.3030   30.8710  -31.7240 C.ar   21  TYR21      -0.0009
     21  CD2      -18.3710   28.8660  -32.6140 C.ar   21  TYR21      -0.0009
     22  CE1      -18.8980   31.5620  -32.8350 C.ar   21  TYR21       0.0417
     23  CE2      -17.9660   29.5500  -33.7360 C.ar   21  TYR21       0.0417
     24  CZ       -18.2300   30.8990  -33.8350 C.ar   21  TYR21       0.1957
     25  OH       -17.8330   31.5960  -34.9400 O.3    21  TYR21      -0.2866
     26  N        -19.6420   29.6600  -27.3000 N.am   22  ARG22      -0.1963
     27  CA       -20.3240   29.4820  -26.0570 C.3    22  ARG22       0.1729
     28  C        -21.6480   30.1680  -26.2210 C.2    22  ARG22       0.2616
     29  O        -21.7220   31.3310  -26.6090 O.2    22  ARG22      -0.2715
     30  CB       -19.5320   30.1160  -24.9230 C.3    22  ARG22       0.0348
     31  CG       -20.2050   30.0060  -23.5610 C.3    22  ARG22       0.0492
     32  CD       -19.2590   30.5050  -22.5020 C.3    22  ARG22       0.2205
     33  NE       -18.3820   31.4930  -23.1060 N.pl3  22  ARG22      -0.0865
     34  CZ       -18.7580   32.7240  -23.4430 C.cat  22  ARG22       0.5346
     35  NH1      -19.9980   33.1420  -23.2010 N.pl3  22  ARG22       0.1354
     36  NH2      -17.8830   33.5400  -24.0160 N.pl3  22  ARG22       0.1354
     37  N        -22.7010   29.4160  -25.9680 N.am   23  ASN23      -0.1959
     38  CA       -24.0240   29.9680  -25.9270 C.3    23  ASN23       0.1804
     39  C        -24.3220   30.2430  -24.4710 C.2    23  ASN23       0.2463
     40  O        -24.4100   29.3120  -23.6730 O.2    23  ASN23      -0.2730
     41  CB       -25.0200   28.9640  -26.4870 C.3    23  ASN23       0.1195
     42  CG       -26.4320   29.4990  -26.4970 C.2    23  ASN23       0.2630
     43  OD1      -26.7610   30.4310  -25.7600 O.2    23  ASN23      -0.2716
     44  ND2      -27.2760   28.9170  -27.3390 N.am   23  ASN23      -0.0877
     45  N        -24.4660   31.5260  -24.1140 N.am   24  PRO24      -0.2727
     46  CA       -24.6800   31.8760  -22.7090 C.3    24  PRO24       0.1402
     47  C        -25.8780   31.1370  -22.1400 C.2    24  PRO24       0.2269
     48  O        -25.9500   30.9250  -20.9360 O.2    24  PRO24      -0.2865
     49  CB       -24.9560   33.3820  -22.7610 C.3    24  PRO24       0.0296
     50  CG       -24.2840   33.8350  -24.0180 C.3    24  PRO24       0.0237
     51  CD       -24.4850   32.7090  -24.9870 C.3    24  PRO24       0.0939
     52  N        -21.2590   25.7230  -23.9950 N.3    28  THR28      -0.1203
     53  CA       -20.4530   25.7720  -25.1940 C.3    28  THR28       0.1994
     54  C        -20.8040   24.6400  -26.1320 C.2    28  THR28       0.2617
     55  O        -21.2110   23.5620  -25.7130 O.2    28  THR28      -0.2717
     56  CB       -18.9810   25.7000  -24.8680 C.3    28  THR28       0.1784
     57  OG1      -18.7160   24.4680  -24.1880 O.3    28  THR28      -0.2211
     58  CG2      -18.5960   26.8790  -23.9800 C.3    28  THR28       0.0376
     59  N        -20.6530   24.9040  -27.4170 N.am   29  TRP29      -0.1975
     60  CA       -20.9260   23.8950  -28.4100 C.3    29  TRP29       0.1640
     61  C        -20.1990   22.6330  -28.0250 C.2    29  TRP29       0.2290
     62  O        -20.7570   21.5470  -28.0110 O.2    29  TRP29      -0.2864
     63  CB       -20.3960   24.3630  -29.7430 C.3    29  TRP29       0.0576
     64  CG       -21.2010   25.4310  -30.3270 C.ar   29  TRP29       0.0006
     65  CD1      -22.2680   26.0590  -29.7640 C.ar   29  TRP29       0.0946
     66  CD2      -21.0280   25.9980  -31.6170 C.ar   29  TRP29       0.0152
     67  NE1      -22.7750   26.9960  -30.6330 N.ar   29  TRP29      -0.2442
     68  CE2      -22.0230   26.9800  -31.7790 C.ar   29  TRP29       0.0810
     69  CE3      -20.1220   25.7760  -32.6540 C.ar   29  TRP29       0.0012
     70  CZ2      -22.1380   27.7340  -32.9330 C.ar   29  TRP29       0.0191
     71  CZ3      -20.2360   26.5260  -33.7950 C.ar   29  TRP29       0.0001
     72  CH2      -21.2370   27.4920  -33.9290 C.ar   29  TRP29       0.0015
     73  N        -23.3980   26.2610  -36.4250 N.3    63  ASP63      -0.1225
     74  CA       -23.0210   27.4130  -37.2230 C.3    63  ASP63       0.1805
     75  C        -23.1440   28.6870  -36.4220 C.2    63  ASP63       0.2597
     76  O        -24.1070   28.8800  -35.6870 O.2    63  ASP63      -0.2718
     77  CB       -23.9030   27.5080  -38.4690 C.3    63  ASP63       0.1424
     78  CG       -23.8090   26.2710  -39.3390 C.2    63  ASP63       0.3668
     79  OD1      -22.9170   26.2270  -40.2130 O.co2  63  ASP63      -0.2456
     80  OD2      -24.6220   25.3420  -39.1420 O.co2  63  ASP63      -0.2456
     81  N        -22.1400   29.5400  -36.5570 N.am   64  ASP64      -0.1974
     82  CA       -22.2260   30.9110  -36.0970 C.3    64  ASP64       0.1709
     83  C        -22.5900   31.7110  -37.3330 C.2    64  ASP64       0.2293
     84  O        -21.7260   32.2350  -38.0230 O.2    64  ASP64      -0.2864
     85  CB       -20.8820   31.3680  -35.5540 C.3    64  ASP64       0.1436
     86  CG       -20.8460   32.8510  -35.2660 C.2    64  ASP64       0.3671
     87  OD1      -21.9300   33.4500  -35.1080 O.co2  64  ASP64      -0.2456
     88  OD2      -19.7330   33.4120  -35.1930 O.co2  64  ASP64      -0.2456
     89  N        -23.8390   34.5500  -37.9710 N.3    66  LYS66      -0.1231
     90  CA       -23.3670   35.9320  -38.0000 C.3    66  LYS66       0.1693
     91  C        -22.0260   36.0470  -38.7150 C.2    66  LYS66       0.2592
     92  O        -21.8300   36.9040  -39.5760 O.2    66  LYS66      -0.2718
     93  CB       -23.2180   36.4650  -36.5760 C.3    66  LYS66       0.0285
     94  CG       -22.6660   37.8790  -36.4920 C.3    66  LYS66       0.0035
     95  CD       -22.2280   38.2080  -35.0720 C.3    66  LYS66       0.0206
     96  CE       -22.0290   39.7030  -34.8830 C.3    66  LYS66       0.1093
     97  NZ       -23.3050   40.4520  -35.0620 N.3    66  LYS66      -0.1314
     98  N        -21.1010   35.1720  -38.3460 N.am   67  ASN67      -0.1974
     99  CA       -19.7470   35.2310  -38.8680 C.3    67  ASN67       0.1688
    100  C        -19.4790   34.1220  -39.8630 C.2    67  ASN67       0.2292
    101  O        -18.3320   33.8670  -40.2210 O.2    67  ASN67      -0.2864
    102  CB       -18.7520   35.1550  -37.7170 C.3    67  ASN67       0.1181
    103  CG       -18.9640   36.2530  -36.7080 C.2    67  ASN67       0.2629
    104  OD1      -19.2400   35.9940  -35.5370 O.2    67  ASN67      -0.2716
    105  ND2      -18.8470   37.4960  -37.1600 N.am   67  ASN67      -0.0877
@<TRIPOS>BOND
     1   101   100    2
     2    79    78   ar
     3   100    99    1
     4    92    91    2
     5    78    80   ar
     6    78    77    1
     7    99    98    1
     8    99   102    1
     9    91    98   am
    10    91    90    1
    11    77    74    1
    12    84    83    2
    13    90    89    1
    14    90    93    1
    15   102   103    1
    16    83    82    1
    17    74    73    1
    18    74    75    1
    19   105   103   am
    20   103   104    2
    21    93    94    1
    22    81    75   am
    23    81    82    1
    24    94    95    1
    25    75    76    2
    26    82    85    1
    27    85    86    1
    28    86    88   ar
    29    86    87   ar
    30    95    96    1
    31    97    96    1
    32    25    24    1
    33    72    71   ar
    34    72    70   ar
    35    24    23   ar
    36    24    22   ar
    37    71    69   ar
    38    23    21   ar
    39     7     5    1
    40    70    68   ar
    41    22    20   ar
    42     1     2    1
    43    69    66   ar
    44    21    19   ar
    45     4     3    2
    46     6     5    1
    47     5     2    1
    48    68    66   ar
    49    68    67   ar
    50    20    19   ar
    51     2     3    1
    52    66    64   ar
    53    19    18    1
    54     3     8   am
    55    67    65   ar
    56    18    15    1
    57    64    65   ar
    58    64    63    1
    59     8     9    1
    60     9    10    1
    61     9    12    1
    62    63    60    1
    63    14    10   am
    64    14    15    1
    65    10    11    2
    66    15    16    1
    67    12    13    1
    68    60    61    1
    69    60    59    1
    70    61    62    2
    71    16    17    2
    72    16    26   am
    73    59    54   am
    74    44    42   am
    75    26    27    1
    76    29    28    2
    77    42    41    1
    78    42    43    2
    79    41    38    1
    80    28    27    1
    81    28    37   am
    82    54    55    2
    83    54    53    1
    84    27    30    1
    85    37    38    1
    86    38    39    1
    87    53    56    1
    88    53    52    1
    89    51    45    1
    90    51    50    1
    91    30    31    1
    92    56    57    1
    93    56    58    1
    94    39    45   am
    95    39    40    2
    96    45    46    1
    97    50    49    1
    98    36    34    1
    99    31    32    1
   100    34    35    1
   101    34    33    2
   102    33    32    1
   103    49    46    1
   104    46    47    1
   105    47    48    2
