@<TRIPOS>MOLECULE
tmp/2y1oA00.pdb
 198 188 0 0 0
SMALL
GASTEIGER

@<TRIPOS>ATOM
      1  N        -25.0350   34.8180   50.3520 N.3    11  ILE11      -0.1231
      2  CA       -24.4800   34.7760   51.6970 C.3    11  ILE11       0.1692
      3  C        -22.9720   34.8600   51.5900 C.2    11  ILE11       0.2593
      4  O        -22.3350   33.9720   51.0140 O.2    11  ILE11      -0.2718
      5  CB       -24.8010   33.4630   52.3870 C.3    11  ILE11       0.0266
      6  CG1      -26.2550   33.0750   52.1040 C.3    11  ILE11       0.0019
      7  CG2      -24.5220   33.5680   53.9040 C.3    11  ILE11       0.0020
      8  CD1      -27.1830   33.9380   52.8670 C.3    11  ILE11       0.0001
      9  N        -22.4100   35.9140   52.1690 N.am   12  GLY12      -0.1942
     10  CA       -20.9550   36.1450   52.1900 C.3    12  GLY12       0.2014
     11  C        -20.5430   37.1560   51.1360 C.2    12  GLY12       0.2638
     12  O        -20.8260   36.9800   49.9450 O.2    12  GLY12      -0.2714
     13  N        -19.8470   38.2020   51.5570 N.am   13  LEU13      -0.1977
     14  CA       -19.4760   39.2440   50.6110 C.3    13  LEU13       0.1596
     15  C        -18.0210   38.9780   50.1980 C.2    13  LEU13       0.2287
     16  O        -17.7340   37.9040   49.6360 O.2    13  LEU13      -0.2864
     17  CB       -19.7230   40.6400   51.2270 C.3    13  LEU13       0.0297
     18  CG       -19.7380   41.7990   50.2280 C.3    13  LEU13       0.0022
     19  CD1      -20.7040   41.4980   49.0600 C.3    13  LEU13       0.0001
     20  CD2      -20.0900   43.1210   50.9480 C.3    13  LEU13       0.0001
     21  N        -15.3780   37.6790   46.0520 N.3    16  THR16      -0.1218
     22  CA       -16.2580   36.6840   45.4260 C.3    16  THR16       0.1862
     23  C        -17.7550   37.0150   45.5510 C.2    16  THR16       0.2287
     24  O        -18.5240   36.8840   44.5900 O.2    16  THR16      -0.2866
     25  CB       -15.8850   35.2820   45.9520 C.3    16  THR16       0.1770
     26  OG1      -14.5020   35.0760   45.6250 O.3    16  THR16      -0.2211
     27  CG2      -16.7050   34.2180   45.2400 C.3    16  THR16       0.0375
     28  N        -24.3560   38.6260   55.5510 N.3    35  ASP35      -0.1225
     29  CA       -23.0370   38.1630   55.9960 C.3    35  ASP35       0.1805
     30  C        -23.0550   38.1720   57.5390 C.2    35  ASP35       0.2598
     31  O        -23.5820   39.1180   58.1520 O.2    35  ASP35      -0.2718
     32  CB       -21.9620   39.0950   55.4090 C.3    35  ASP35       0.1424
     33  CG       -20.5430   38.5320   55.5170 C.2    35  ASP35       0.3668
     34  OD1      -20.0760   38.1810   56.6250 O.co2  35  ASP35      -0.2456
     35  OD2      -19.8810   38.3980   54.4610 O.co2  35  ASP35      -0.2456
     36  N        -22.5390   37.1230   58.1710 N.am   36  THR36      -0.1939
     37  CA       -22.5520   37.0770   59.6420 C.3    36  THR36       0.2028
     38  C        -21.5610   38.0730   60.2640 C.2    36  THR36       0.2642
     39  O        -21.6730   38.4040   61.4490 O.2    36  THR36      -0.2714
     40  CB       -22.1890   35.6550   60.1950 C.3    36  THR36       0.1808
     41  OG1      -20.8620   35.3420   59.7880 O.3    36  THR36      -0.2208
     42  CG2      -23.1280   34.5600   59.6640 C.3    36  THR36       0.0379
     43  N        -20.6070   38.5590   59.4670 N.am   37  ARG37      -0.1977
     44  CA       -19.6910   39.6190   59.9170 C.3    37  ARG37       0.1597
     45  C        -20.3810   40.9890   59.8740 C.2    37  ARG37       0.2287
     46  O        -21.1120   41.2810   58.9240 O.2    37  ARG37      -0.2864
     47  CB       -18.4260   39.6180   59.0490 C.3    37  ARG37       0.0334
     48  CG       -17.6440   38.2830   59.1490 C.3    37  ARG37       0.0492
     49  CD       -16.5620   38.1480   58.0620 C.3    37  ARG37       0.2205
     50  NE       -17.1370   38.0500   56.7220 N.pl3  37  ARG37      -0.0865
     51  CZ       -16.4440   37.8820   55.5950 C.cat  37  ARG37       0.5346
     52  NH1      -15.1100   37.7350   55.6380 N.pl3  37  ARG37       0.1354
     53  NH2      -17.0840   37.8090   54.4300 N.pl3  37  ARG37       0.1354
     54  N        -21.3260   31.5350   49.8880 N.3    71  SER71      -0.1203
     55  CA       -19.8650   31.6110   49.8970 C.3    71  SER71       0.2005
     56  C        -19.3060   30.2610   50.3440 C.2    71  SER71       0.2461
     57  O        -19.8740   29.6110   51.2220 O.2    71  SER71      -0.2732
     58  CB       -19.4110   32.6370   50.9460 C.3    71  SER71       0.2103
     59  OG       -18.0020   32.5310   51.1790 O.3    71  SER71      -0.2182
     60  N        -18.1600   29.8580   49.8030 N.am   72  PRO72      -0.2717
     61  CA       -17.5470   28.6940   50.4100 C.3    72  PRO72       0.1536
     62  C        -17.1190   28.8660   51.8730 C.2    72  PRO72       0.2599
     63  O        -16.7750   27.8800   52.5290 O.2    72  PRO72      -0.2715
     64  CB       -16.3270   28.4300   49.4970 C.3    72  PRO72       0.0310
     65  CG       -15.9910   29.7620   48.8970 C.3    72  PRO72       0.0237
     66  CD       -17.3740   30.4190   48.6930 C.3    72  PRO72       0.0939
     67  N        -17.1200   30.0870   52.4000 N.am   73  GLY73      -0.1941
     68  CA       -16.7490   30.3070   53.7940 C.3    73  GLY73       0.2014
     69  C        -17.8960   30.0870   54.7830 C.2    73  GLY73       0.2638
     70  O        -17.6730   30.1920   55.9970 O.2    73  GLY73      -0.2714
     71  N        -19.1030   29.7820   54.3040 N.am   74  ILE74      -0.1977
     72  CA       -20.2100   29.4020   55.2160 C.3    74  ILE74       0.1596
     73  C        -20.5490   27.9170   55.0830 C.2    74  ILE74       0.2287
     74  O        -20.7970   27.4030   53.9750 O.2    74  ILE74      -0.2864
     75  CB       -21.4730   30.2990   55.0540 C.3    74  ILE74       0.0276
     76  CG1      -22.5270   29.8610   56.0840 C.3    74  ILE74       0.0022
     77  CG2      -22.0780   30.1290   53.6750 C.3    74  ILE74       0.0022
     78  CD1      -23.2040   30.9860   56.7920 C.3    74  ILE74       0.0001
     79  N         -2.5110   22.5960   44.5260 N.3   115  LYS115     -0.1245
     80  CA        -3.5180   22.8930   43.5270 C.3   115  LYS115      0.1561
     81  C         -3.3180   24.2730   42.8680 C.2   115  LYS115      0.2260
     82  O         -3.5650   24.3950   41.6660 O.2   115  LYS115     -0.2867
     83  CB        -4.9410   22.6910   44.0600 C.3   115  LYS115      0.0271
     84  CG        -5.3080   23.5210   45.2300 C.3   115  LYS115      0.0035
     85  CD        -6.7720   23.1850   45.6680 C.3   115  LYS115      0.0206
     86  CE        -7.2430   24.0890   46.7950 C.3   115  LYS115      0.1093
     87  NZ        -6.4560   23.8790   48.0260 N.3   115  LYS115     -0.1314
     88  N         -9.0630   32.6340   46.1070 N.3   139  ILE139     -0.1245
     89  CA        -9.4730   33.8570   46.7970 C.3   139  ILE139      0.1561
     90  C         -9.3030   35.1600   45.9940 C.2   139  ILE139      0.2260
     91  O        -10.2040   35.9970   45.9810 O.2   139  ILE139     -0.2867
     92  CB        -8.7650   33.9900   48.1800 C.3   139  ILE139      0.0252
     93  CG1       -9.2180   32.8580   49.1140 C.3   139  ILE139      0.0019
     94  CG2       -9.0540   35.3440   48.8200 C.3   139  ILE139      0.0019
     95  CD1      -10.6890   32.4610   48.9500 C.3   139  ILE139      0.0001
     96  N        -14.7460   23.0800   49.5970 N.3   161  PHE161     -0.1241
     97  CA       -15.9410   23.8540   49.9520 C.3   161  PHE161      0.1605
     98  C        -16.7220   24.2570   48.6880 C.2   161  PHE161      0.2264
     99  O        -17.9630   24.1570   48.6330 O.2   161  PHE161     -0.2867
    100  CB       -15.5250   25.1120   50.7500 C.3   161  PHE161      0.0534
    101  CG       -14.7950   24.7930   52.0230 C.ar  161  PHE161     -0.0203
    102  CD1      -15.2430   23.8070   52.8730 C.ar  161  PHE161     -0.0042
    103  CD2      -13.6380   25.4720   52.3410 C.ar  161  PHE161     -0.0042
    104  CE1      -14.5800   23.5050   54.0540 C.ar  161  PHE161     -0.0003
    105  CE2      -12.9390   25.1580   53.5190 C.ar  161  PHE161     -0.0003
    106  CZ       -13.4270   24.1660   54.3680 C.ar  161  PHE161     -0.0000
    107  N         -7.0850   18.1490   56.4220 N.3   182  ASP182     -0.1225
    108  CA        -7.2390   19.6160   56.4900 C.3   182  ASP182      0.1805
    109  C         -8.7170   19.9530   56.6730 C.2   182  ASP182      0.2597
    110  O         -9.6050   19.1040   56.4390 O.2   182  ASP182     -0.2718
    111  CB        -6.7000   20.2430   55.1840 C.3   182  ASP182      0.1424
    112  CG        -6.4560   21.7400   55.2710 C.2   182  ASP182      0.3668
    113  OD1       -6.5670   22.3120   56.3670 O.co2 182  ASP182     -0.2456
    114  OD2       -6.1380   22.3430   54.2020 O.co2 182  ASP182     -0.2456
    115  N         -8.9720   21.1910   57.0760 N.am  183  HIS183     -0.1975
    116  CA       -10.3480   21.6930   57.1990 C.3   183  HIS183      0.1656
    117  C        -11.2240   20.8430   58.1160 C.2   183  HIS183      0.2291
    118  O        -12.4300   20.7750   57.9090 O.2   183  HIS183     -0.2864
    119  CB       -11.0060   21.8000   55.8160 C.3   183  HIS183      0.0771
    120  CG       -10.2210   22.6270   54.8340 C.ar  183  HIS183      0.0820
    121  ND1       -9.9140   23.9520   55.0670 N.ar  183  HIS183     -0.2267
    122  CD2       -9.7370   22.3310   53.6070 C.ar  183  HIS183      0.1154
    123  CE1       -9.2730   24.4370   54.0150 C.ar  183  HIS183      0.1986
    124  NE2       -9.1560   23.4800   53.1100 N.ar  183  HIS183     -0.2212
    125  N        -14.4730   22.0600   59.5530 N.3   186  ARG186     -0.1245
    126  CA       -15.6430   22.0840   58.6500 C.3   186  ARG186      0.1563
    127  C        -16.1420   20.7040   58.2480 C.2   186  ARG186      0.2260
    128  O        -17.1570   20.5880   57.5660 O.2   186  ARG186     -0.2867
    129  CB       -15.3560   22.8490   57.3340 C.3   186  ARG186      0.0307
    130  CG       -15.3730   24.3570   57.5090 C.3   186  ARG186      0.0489
    131  CD       -16.7640   24.9460   57.3240 C.3   186  ARG186      0.2205
    132  NE       -17.3820   24.7780   56.0030 N.pl3 186  ARG186     -0.0865
    133  CZ       -17.2730   25.6830   55.0250 C.cat 186  ARG186      0.5346
    134  NH1      -16.4890   26.7380   55.2150 N.pl3 186  ARG186      0.1354
    135  NH2      -17.8760   25.4830   53.8560 N.pl3 186  ARG186      0.1354
    136  N          2.1340   29.7120   52.4320 N.3   314  LYS314     -0.1245
    137  CA         0.9990   28.9540   51.8620 C.3   314  LYS314      0.1561
    138  C          0.8750   27.5300   52.4500 C.2   314  LYS314      0.2260
    139  O         -0.1060   26.8210   52.1800 O.2   314  LYS314     -0.2867
    140  CB         1.1070   28.9450   50.3370 C.3   314  LYS314      0.0271
    141  CG        -0.0780   28.2840   49.5830 C.3   314  LYS314      0.0035
    142  CD        -1.4730   28.7630   49.9660 C.3   314  LYS314      0.0206
    143  CE        -2.5550   27.9460   49.2240 C.3   314  LYS314      0.1093
    144  NZ        -3.9660   28.2250   49.6570 N.3   314  LYS314     -0.1314
    145  N         -0.6290   25.8290   54.8790 N.3   316  THR316     -0.1218
    146  CA        -1.7110   26.0780   55.8360 C.3   316  THR316      0.1862
    147  C         -2.2540   24.7600   56.4040 C.2   316  THR316      0.2287
    148  O         -3.2780   24.7430   57.0840 O.2   316  THR316     -0.2866
    149  CB        -2.8560   26.8540   55.1530 C.3   316  THR316      0.1770
    150  OG1       -3.2680   26.1320   53.9870 O.3   316  THR316     -0.2211
    151  CG2       -2.3510   28.2480   54.6960 C.3   316  THR316      0.0375
    152  N         -6.9270   24.2750   62.9820 N.3   343  LYS343     -0.1245
    153  CA        -8.1870   23.6880   62.5130 C.3   343  LYS343      0.1561
    154  C         -8.3890   22.2800   63.0440 C.2   343  LYS343      0.2260
    155  O         -8.9320   21.4490   62.3180 O.2   343  LYS343     -0.2867
    156  CB        -8.1880   23.6090   60.9850 C.3   343  LYS343      0.0271
    157  CG        -8.4020   24.9490   60.3080 C.3   343  LYS343      0.0035
    158  CD        -8.0280   24.8500   58.8470 C.3   343  LYS343      0.0206
    159  CE        -6.5040   25.0480   58.6520 C.3   343  LYS343      0.1093
    160  NZ        -6.2560   25.0330   57.1920 N.3   343  LYS343     -0.1314
    161  N         -3.8450   27.6310   59.2590 N.3   409  ALA409     -0.1231
    162  CA        -4.4040   28.8140   58.6370 C.3   409  ALA409      0.1694
    163  C         -3.9360   30.0760   59.3860 C.2   409  ALA409      0.2593
    164  O         -3.5770   30.0310   60.5690 O.2   409  ALA409     -0.2718
    165  CB        -5.9450   28.7540   58.6420 C.3   409  ALA409      0.0304
    166  N         -3.9820   31.1990   58.6810 N.am  410  SER410     -0.1938
    167  CA        -3.5130   32.4690   59.2270 C.3   410  SER410      0.2055
    168  C         -4.6650   33.2860   59.7660 C.2   410  SER410      0.2642
    169  O         -4.4630   34.3930   60.2610 O.2   410  SER410     -0.2714
    170  CB        -2.8180   33.2980   58.1450 C.3   410  SER410      0.2130
    171  OG        -3.7680   33.7830   57.1980 O.3   410  SER410     -0.2179
    172  N         -5.8870   32.7520   59.6590 N.am  411  LEU411     -0.1977
    173  CA        -7.0790   33.5730   59.7940 C.3   411  LEU411      0.1596
    174  C         -7.3160   34.0680   61.2320 C.2   411  LEU411      0.2287
    175  O         -8.1430   34.9490   61.4660 O.2   411  LEU411     -0.2864
    176  CB        -8.3050   32.8330   59.2490 C.3   411  LEU411      0.0297
    177  CG        -8.1180   32.3930   57.7900 C.3   411  LEU411      0.0022
    178  CD1       -9.3520   31.7220   57.2220 C.3   411  LEU411      0.0001
    179  CD2       -7.7160   33.5640   56.9150 C.3   411  LEU411      0.0001
    180  N         -5.3460   36.7380   55.5410 N.3   416  ASN416     -0.1225
    181  CA        -5.0780   35.5490   54.7410 C.3   416  ASN416      0.1785
    182  C         -3.5680   35.2730   54.7090 C.2   416  ASN416      0.2597
    183  O         -2.7580   36.0870   55.2110 O.2   416  ASN416     -0.2718
    184  CB        -5.6480   35.6900   53.3220 C.3   416  ASN416      0.1169
    185  CG        -5.1020   36.8990   52.6050 C.2   416  ASN416      0.2627
    186  OD1       -3.8890   37.0540   52.4950 O.2   416  ASN416     -0.2716
    187  ND2       -5.9840   37.7900   52.1420 N.am  416  ASN416     -0.0877
    188  N         -3.1960   34.1240   54.1300 N.am  417  PHE417     -0.1976
    189  CA        -1.8190   33.6520   54.1780 C.3   417  PHE417      0.1639
    190  C         -0.9050   34.5790   53.3820 C.2   417  PHE417      0.2290
    191  O          0.3120   34.5980   53.6350 O.2   417  PHE417     -0.2864
    192  CB        -1.7110   32.2020   53.6450 C.3   417  PHE417      0.0560
    193  CG        -1.9130   32.1090   52.1410 C.ar  417  PHE417     -0.0200
    194  CD1       -3.1990   31.9570   51.6170 C.ar  417  PHE417     -0.0042
    195  CD2       -0.8390   32.2510   51.2690 C.ar  417  PHE417     -0.0042
    196  CE1       -3.4190   31.9290   50.2200 C.ar  417  PHE417     -0.0003
    197  CE2       -1.0350   32.2050   49.8740 C.ar  417  PHE417     -0.0003
    198  CZ        -2.3320   32.0520   49.3540 C.ar  417  PHE417     -0.0000
@<TRIPOS>BOND
     1    82    81    2
     2    81    80    1
     3    80    83    1
     4    80    79    1
     5    83    84    1
     6    24    23    2
     7    84    85    1
     8    27    25    1
     9    22    23    1
    10    22    25    1
    11    22    21    1
    12    26    25    1
    13    85    86    1
    14    91    90    2
    15    90    89    1
    16    88    89    1
    17    86    87    1
    18    89    92    1
    19    92    94    1
    20    92    93    1
    21    99    98    2
    22    98    97    1
    23    66    65    1
    24    66    60    1
    25    65    64    1
    26    95    93    1
    27    19    18    1
    28   143   144    1
    29   143   142    1
    30   198   197   ar
    31   198   196   ar
    32    64    61    1
    33   141   142    1
    34   141   140    1
    35    96    97    1
    36    16    15    2
    37    60    56   am
    38    60    61    1
    39   197   195   ar
    40    54    55    1
    41    55    56    1
    42    55    58    1
    43    12    11    2
    44    97   100    1
    45    15    14    1
    46   196   194   ar
    47    18    20    1
    48    18    17    1
    49   140   137    1
    50    56    57    2
    51     1     2    1
    52    61    62    1
    53    14    17    1
    54    14    13    1
    55   100   101    1
    56    58    59    1
    57     4     3    2
    58    11    13   am
    59    11    10    1
    60   195   193   ar
    61     3     2    1
    62     3     9   am
    63   194   193   ar
    64     2     5    1
    65   137   136    1
    66   137   138    1
    67    62    67   am
    68    62    63    2
    69   101   103   ar
    70   101   102   ar
    71     6     5    1
    72     6     8    1
    73   193   192    1
    74   187   185   am
    75     9    10    1
    76   139   138    2
    77   103   105   ar
    78     5     7    1
    79    67    68    1
    80   186   185    2
    81   185   184    1
    82   102   104   ar
    83   124   122   ar
    84   124   123   ar
    85   184   181    1
    86   190   191    2
    87   190   189    1
    88   105   106   ar
    89   122   120   ar
    90   192   189    1
    91    77    75    1
    92    68    69    1
    93   135   133    1
    94    74    73    2
    95   150   149    1
    96   123   121   ar
    97   104   106   ar
    98   188   189    1
    99   188   182   am
   100   114   112   ar
   101    71    69   am
   102    71    72    1
   103    53    51    1
   104    35    33   ar
   105   151   149    1
   106   182   181    1
   107   182   183    2
   108   181   180    1
   109    69    70    2
   110   120   121   ar
   111   120   119    1
   112   145   146    1
   113   133   134    1
   114   133   132    2
   115    75    72    1
   116    75    76    1
   117    73    72    1
   118   149   146    1
   119   111   112    1
   120   111   108    1
   121   112   113   ar
   122    32    33    1
   123    32    29    1
   124    33    34   ar
   125    28    29    1
   126    51    52    1
   127    51    50    2
   128   119   116    1
   129   146   147    1
   130    29    30    1
   131   132   131    1
   132    76    78    1
   133   147   148    2
   134   107   108    1
   135   110   109    2
   136   108   109    1
   137   109   115   am
   138    50    49    1
   139   179   177    1
   140   115   116    1
   141   160   159    1
   142   171   170    1
   143   116   117    1
   144   178   177    1
   145   131   130    1
   146   129   130    1
   147   129   126    1
   148    30    31    2
   149    30    36   am
   150   128   127    2
   151   177   176    1
   152   118   117    2
   153    49    48    1
   154   170   167    1
   155    36    37    1
   156   127   126    1
   157   162   165    1
   158   162   161    1
   159   162   163    1
   160   126   125    1
   161   159   158    1
   162   166   167    1
   163   166   163   am
   164   158   157    1
   165    46    45    2
   166    47    48    1
   167    47    44    1
   168   167   168    1
   169   176   173    1
   170   163   164    2
   171    43    44    1
   172    43    38   am
   173    37    40    1
   174    37    38    1
   175   172   168   am
   176   172   173    1
   177    42    40    1
   178   168   169    2
   179    41    40    1
   180   173   174    1
   181    45    44    1
   182    38    39    2
   183   157   156    1
   184   156   153    1
   185   174   175    2
   186   155   154    2
   187   153   152    1
   188   153   154    1
