@<TRIPOS>MOLECULE
tmp/2y1pA00.pdb
 90 87 0 0 0
SMALL
GASTEIGER

@<TRIPOS>ATOM
      1  N          9.7210    3.1950   -5.1820 N.3     7  LEU7       -0.1231
      2  CA         9.9590    1.8770   -4.6160 C.3     7  LEU7        0.1693
      3  C          9.6140    1.8870   -3.1210 C.2     7  LEU7        0.2592
      4  O          8.9000    1.0090   -2.6070 O.2     7  LEU7       -0.2718
      5  CB        11.4190    1.4850   -4.8020 C.3     7  LEU7        0.0284
      6  CG        11.6590    0.0680   -4.2950 C.3     7  LEU7        0.0019
      7  CD1       10.8270   -0.9620   -5.1170 C.3     7  LEU7        0.0001
      8  CD2       13.1490   -0.2370   -4.3420 C.3     7  LEU7        0.0001
      9  N         10.1300    2.8880   -2.4150 N.am    8  TYR8       -0.1976
     10  CA         9.6970    3.1490   -1.0380 C.3     8  TYR8        0.1639
     11  C          9.9110    4.5970   -0.6330 C.2     8  TYR8        0.2290
     12  O         10.7090    5.3070   -1.2580 O.2     8  TYR8       -0.2864
     13  CB        10.4160    2.2420   -0.0270 C.3     8  TYR8        0.0560
     14  CG        11.9230    2.2930   -0.0760 C.ar    8  TYR8       -0.0198
     15  CD1       12.6460    1.4290   -0.8920 C.ar    8  TYR8       -0.0009
     16  CD2       12.6260    3.1710    0.7400 C.ar    8  TYR8       -0.0009
     17  CE1       14.0580    1.4720   -0.9150 C.ar    8  TYR8        0.0417
     18  CE2       14.0040    3.2220    0.7220 C.ar    8  TYR8        0.0417
     19  CZ        14.7160    2.3640   -0.1000 C.ar    8  TYR8        0.1957
     20  OH        16.0990    2.4250   -0.0890 O.3     8  TYR8       -0.2866
     21  N         19.4070    4.7870    5.3220 N.3    70  HIS70      -0.1241
     22  CA        18.0480    5.3140    5.2900 C.3    70  HIS70       0.1621
     23  C         17.1830    4.5830    6.3210 C.2    70  HIS70       0.2264
     24  O         17.5490    3.5250    6.8320 O.2    70  HIS70      -0.2867
     25  CB        17.4350    5.1720    3.8780 C.3    70  HIS70       0.0745
     26  CG        17.1370    3.7550    3.4830 C.ar   70  HIS70       0.0817
     27  ND1       18.0340    2.9660    2.7860 N.ar   70  HIS70      -0.2268
     28  CD2       16.0390    2.9810    3.6830 C.ar   70  HIS70       0.1154
     29  CE1       17.5110    1.7660    2.5930 C.ar   70  HIS70       0.1986
     30  NE2       16.3030    1.7480    3.1300 N.ar   70  HIS70      -0.2212
     31  N         13.2800    3.4150    6.3120 N.3    72  THR72      -0.1218
     32  CA        12.1150    3.3200    5.4410 C.3    72  THR72       0.1862
     33  C         10.8450    3.5930    6.2380 C.2    72  THR72       0.2287
     34  O         10.7460    3.1610    7.3850 O.2    72  THR72      -0.2866
     35  CB        12.0130    1.9250    4.8350 C.3    72  THR72       0.1770
     36  OG1       13.1400    1.7290    3.9810 O.3    72  THR72      -0.2211
     37  CG2       10.7050    1.7830    4.0160 C.3    72  THR72       0.0375
     38  N          7.1280    0.8240    2.2680 N.3    75  PHE75      -0.1241
     39  CA         7.5700    0.1750    1.0560 C.3    75  PHE75       0.1605
     40  C          6.3750    0.1180    0.1090 C.2    75  PHE75       0.2264
     41  O          5.3280   -0.4080    0.4830 O.2    75  PHE75      -0.2867
     42  CB         8.0600   -1.2470    1.3720 C.3    75  PHE75       0.0534
     43  CG         8.4940   -2.0010    0.1570 C.ar   75  PHE75      -0.0203
     44  CD1        9.6780   -1.6890   -0.4710 C.ar   75  PHE75      -0.0042
     45  CD2        7.6990   -3.0040   -0.3810 C.ar   75  PHE75      -0.0042
     46  CE1       10.0840   -2.3930   -1.6270 C.ar   75  PHE75      -0.0003
     47  CE2        8.0960   -3.6970   -1.5240 C.ar   75  PHE75      -0.0003
     48  CZ         9.2890   -3.3830   -2.1410 C.ar   75  PHE75      -0.0000
     49  N          8.9430   -0.5490   14.5640 N.3   147  ARG147     -0.1245
     50  CA         9.7610   -1.2070   13.5330 C.3   147  ARG147      0.1563
     51  C         10.8420   -0.2710   12.9270 C.2   147  ARG147      0.2260
     52  O         11.8000   -0.7320   12.3080 O.2   147  ARG147     -0.2867
     53  CB         8.8320   -1.7500   12.4340 C.3   147  ARG147      0.0307
     54  CG         9.4980   -2.5080   11.3100 C.3   147  ARG147      0.0489
     55  CD         8.4120   -3.1470   10.4650 C.3   147  ARG147      0.2205
     56  NE         8.9240   -3.8540    9.3000 N.pl3 147  ARG147     -0.0865
     57  CZ         8.3030   -4.8820    8.7300 C.cat 147  ARG147      0.5346
     58  NH1        7.1570   -5.3180    9.2380 N.pl3 147  ARG147      0.1354
     59  NH2        8.8280   -5.4770    7.6610 N.pl3 147  ARG147      0.1354
     60  N         13.8750    1.5320   11.7670 N.3   149  HIS149     -0.1241
     61  CA        15.2730    1.1310   11.9330 C.3   149  HIS149      0.1621
     62  C         16.1170    1.6460   10.7800 C.2   149  HIS149      0.2264
     63  O         15.5780    2.0660    9.7540 O.2   149  HIS149     -0.2867
     64  CB        15.3720   -0.3970   11.9210 C.3   149  HIS149      0.0745
     65  CG        14.9750   -1.0050   10.6120 C.ar  149  HIS149      0.0817
     66  ND1       13.6640   -1.2860   10.2850 N.ar  149  HIS149     -0.2268
     67  CD2       15.7160   -1.3670    9.5350 C.ar  149  HIS149      0.1154
     68  CE1       13.6110   -1.7920    9.0690 C.ar  149  HIS149      0.1986
     69  NE2       14.8400   -1.8470    8.5890 N.ar  149  HIS149     -0.2212
     70  N         19.1000   -0.2240    8.5480 N.3   151  THR151     -0.1218
     71  CA        19.8830   -1.4410    8.2870 C.3   151  THR151      0.1862
     72  C         21.3620   -1.1060    8.1110 C.2   151  THR151      0.2287
     73  O         21.7080   -0.1940    7.3540 O.2   151  THR151     -0.2866
     74  CB        19.3670   -2.1130    7.0320 C.3   151  THR151      0.1770
     75  OG1       18.0080   -2.5060    7.2680 O.3   151  THR151     -0.2211
     76  CG2       20.2410   -3.3330    6.6780 C.3   151  THR151      0.0375
     77  N         17.3690   -7.1710    3.3850 N.3   160  PRO160     -0.2102
     78  CA        17.3740   -6.0410    4.3350 C.3   160  PRO160      0.1504
     79  C         16.0540   -5.8700    5.0830 C.2   160  PRO160      0.2575
     80  O         16.0390   -5.3550    6.2010 O.2   160  PRO160     -0.2718
     81  CB        17.6440   -4.8230    3.4400 C.3   160  PRO160      0.0282
     82  CG        18.3580   -5.3810    2.2370 C.3   160  PRO160      0.0208
     83  CD        17.7660   -6.7490    2.0260 C.3   160  PRO160      0.0893
     84  N         14.9530   -6.3100    4.4900 N.am  161  VAL161     -0.1980
     85  CA        13.6670   -6.1520    5.1600 C.3   161  VAL161      0.1595
     86  C         13.6460   -6.9510    6.4660 C.2   161  VAL161      0.2287
     87  O         12.9150   -6.6170    7.3880 O.2   161  VAL161     -0.2864
     88  CB        12.4830   -6.5590    4.2550 C.3   161  VAL161      0.0276
     89  CG1       12.5520   -8.0250    3.9250 C.3   161  VAL161      0.0022
     90  CG2       11.1450   -6.2120    4.9230 C.3   161  VAL161      0.0022
@<TRIPOS>BOND
     1     1     2    1
     2     7     6    1
     3     5     2    1
     4     5     6    1
     5     2     3    1
     6     8     6    1
     7     3     4    2
     8     3     9   am
     9     9    10    1
    10    48    46   ar
    11    48    47   ar
    12    46    44   ar
    13    47    45   ar
    14    12    11    2
    15    10    11    1
    16    10    13    1
    17    17    15   ar
    18    17    19   ar
    19    15    14   ar
    20    44    43   ar
    21    45    43   ar
    22    19    20    1
    23    19    18   ar
    24    14    13    1
    25    14    16   ar
    26    40    41    2
    27    40    39    1
    28    43    42    1
    29    18    16   ar
    30    39    42    1
    31    39    38    1
    32    83    82    1
    33    83    77    1
    34    82    81    1
    35    29    27   ar
    36    29    30   ar
    37    27    26   ar
    38    30    28   ar
    39    77    78    1
    40    81    78    1
    41    26    28   ar
    42    26    25    1
    43    25    22    1
    44    89    88    1
    45    36    35    1
    46    37    35    1
    47    88    90    1
    48    88    85    1
    49    78    79    1
    50    84    79   am
    51    84    85    1
    52    35    32    1
    53    79    80    2
    54    85    86    1
    55    22    21    1
    56    22    23    1
    57    32    33    1
    58    32    31    1
    59    33    34    2
    60    23    24    2
    61    86    87    2
    62    76    74    1
    63    74    75    1
    64    74    71    1
    65    73    72    2
    66    59    57    1
    67    72    71    1
    68    71    70    1
    69    69    68   ar
    70    69    67   ar
    71    57    58    1
    72    57    56    2
    73    68    66   ar
    74    56    55    1
    75    67    65   ar
    76    63    62    2
    77    66    65   ar
    78    55    54    1
    79    65    64    1
    80    62    61    1
    81    54    53    1
    82    60    61    1
    83    64    61    1
    84    52    51    2
    85    53    50    1
    86    51    50    1
    87    50    49    1
