@<TRIPOS>MOLECULE
tmp/2y1tD00.pdb
 114 112 0 0 0
SMALL
GASTEIGER

@<TRIPOS>ATOM
      1  N         -1.3010   32.1180  -35.0830 N.3    41  LEU41      -0.1245
      2  CA        -2.2880   32.9360  -35.7890 C.3    41  LEU41       0.1561
      3  C         -3.0720   33.6690  -34.7170 C.2    41  LEU41       0.2260
      4  O         -3.9770   33.0740  -34.0440 O.2    41  LEU41      -0.2867
      5  CB        -3.2490   32.1080  -36.6480 C.3    41  LEU41       0.0270
      6  CG        -3.3440   32.1730  -38.1560 C.3    41  LEU41       0.0019
      7  CD1       -4.5140   31.3110  -38.7020 C.3    41  LEU41       0.0001
      8  CD2       -3.3590   33.5860  -38.7730 C.3    41  LEU41       0.0001
      9  N         -2.9370   44.5490  -44.3880 N.3    58  VAL58      -0.1245
     10  CA        -2.6570   44.4780  -42.9490 C.3    58  VAL58       0.1561
     11  C         -1.1510   44.3360  -42.7160 C.2    58  VAL58       0.2260
     12  O         -0.5420   43.4440  -43.3620 O.2    58  VAL58      -0.2867
     13  CB        -3.3220   43.2900  -42.3450 C.3    58  VAL58       0.0252
     14  CG1       -2.9460   43.2440  -40.8430 C.3    58  VAL58       0.0019
     15  CG2       -4.8480   43.3010  -42.4830 C.3    58  VAL58       0.0019
     16  N          5.5720   39.4530  -38.9700 N.3    72  GLN72      -0.1245
     17  CA         4.3740   38.9750  -39.6270 C.3    72  GLN72       0.1566
     18  C          4.7770   38.0810  -40.7830 C.2    72  GLN72       0.2260
     19  O          5.3690   38.5650  -41.7770 O.2    72  GLN72      -0.2867
     20  CB         3.4870   40.1720  -40.0930 C.3    72  GLN72       0.0367
     21  CG         2.2090   39.7320  -40.7480 C.3    72  GLN72       0.0905
     22  CD         1.2620   40.9050  -41.1360 C.2    72  GLN72       0.2608
     23  OE1        1.3420   42.0210  -40.5740 O.2    72  GLN72      -0.2717
     24  NE2        0.3770   40.6150  -42.0590 N.am   72  GLN72      -0.0878
     25  N          3.4730   36.4750  -43.3920 N.3    74  ASN74      -0.1240
     26  CA         3.0590   36.7940  -44.7200 C.3    74  ASN74       0.1653
     27  C          3.4030   38.1960  -45.1970 C.2    74  ASN74       0.2266
     28  O          2.9860   38.6050  -46.2860 O.2    74  ASN74      -0.2867
     29  CB         1.5590   36.4760  -44.9930 C.3    74  ASN74       0.1155
     30  CG         0.5870   37.3300  -44.1700 C.2    74  ASN74       0.2627
     31  OD1        1.0300   38.0140  -43.2950 O.2    74  ASN74      -0.2716
     32  ND2       -0.7110   37.4160  -44.5810 N.am   74  ASN74      -0.0877
     33  N         -0.8540   41.1960  -45.1830 N.3    77  GLY77      -0.1210
     34  CA        -2.0640   40.3520  -45.3320 C.3    77  GLY77       0.1956
     35  C         -2.9970   41.0690  -46.2930 C.2    77  GLY77       0.2612
     36  O         -3.1360   42.2590  -46.1810 O.2    77  GLY77      -0.2717
     37  N         -3.5860   40.3740  -47.2540 N.am   78  VAL78      -0.1965
     38  CA        -4.5320   40.9580  -48.1870 C.3    78  VAL78       0.1727
     39  C         -5.9230   40.3950  -47.7780 C.2    78  VAL78       0.2616
     40  O         -6.0960   39.1730  -47.6320 O.2    78  VAL78      -0.2715
     41  CB        -4.1830   40.6530  -49.6510 C.3    78  VAL78       0.0290
     42  CG1       -5.3590   41.1530  -50.5900 C.3    78  VAL78       0.0023
     43  CG2       -2.8190   41.3890  -49.9690 C.3    78  VAL78       0.0023
     44  N         -6.8490   41.2900  -47.4470 N.am   79  ILE79      -0.1963
     45  CA        -8.2050   40.8780  -47.1200 C.3    79  ILE79       0.1727
     46  C         -9.1110   41.2890  -48.2640 C.2    79  ILE79       0.2616
     47  O         -9.3160   42.4990  -48.4740 O.2    79  ILE79      -0.2715
     48  CB        -8.7840   41.4840  -45.8320 C.3    79  ILE79       0.0290
     49  CG1       -7.7260   41.3710  -44.7060 C.3    79  ILE79       0.0022
     50  CG2      -10.1530   40.7130  -45.4670 C.3    79  ILE79       0.0023
     51  CD1       -7.5780   40.0360  -44.1530 C.3    79  ILE79       0.0001
     52  N         -9.6110   40.3110  -49.0130 N.am   80  ASP80      -0.1971
     53  CA       -10.4580   40.6410  -50.1950 C.3    80  ASP80       0.1709
     54  C        -11.8770   41.0470  -49.8190 C.2    80  ASP80       0.2293
     55  O        -12.3830   40.6640  -48.8000 O.2    80  ASP80      -0.2864
     56  CB       -10.4850   39.4800  -51.2290 C.3    80  ASP80       0.1436
     57  CG       -11.2280   39.8620  -52.4680 C.2    80  ASP80       0.3671
     58  OD1      -10.7760   40.7600  -53.1770 O.co2  80  ASP80      -0.2456
     59  OD2      -12.2610   39.2610  -52.7630 O.co2  80  ASP80      -0.2456
     60  N        -14.1270   38.2150  -48.4830 N.3    83  TYR83      -0.1241
     61  CA       -14.0230   37.6980  -47.1220 C.3    83  TYR83       0.1605
     62  C        -14.9320   38.5620  -46.2780 C.2    83  TYR83       0.2264
     63  O        -14.4640   39.4150  -45.5570 O.2    83  TYR83      -0.2867
     64  CB       -12.5610   37.8150  -46.6570 C.3    83  TYR83       0.0534
     65  CG       -12.1920   37.0130  -45.4310 C.ar   83  TYR83      -0.0201
     66  CD1      -12.2100   35.6560  -45.4760 C.ar   83  TYR83      -0.0009
     67  CD2      -11.7280   37.6650  -44.2360 C.ar   83  TYR83      -0.0009
     68  CE1      -11.8470   34.8830  -44.3910 C.ar   83  TYR83       0.0417
     69  CE2      -11.3570   36.8840  -43.0830 C.ar   83  TYR83       0.0417
     70  CZ       -11.4030   35.5170  -43.1870 C.ar   83  TYR83       0.1957
     71  OH       -11.0330   34.7330  -42.1290 O.3    83  TYR83      -0.2866
     72  N        -13.3770   35.9930  -39.7330 N.3    89  PHE89      -0.1227
     73  CA       -12.6730   36.8270  -38.7710 C.3    89  PHE89       0.1736
     74  C        -11.2180   37.0070  -39.2290 C.2    89  PHE89       0.2595
     75  O        -10.5930   36.1730  -39.9450 O.2    89  PHE89      -0.2718
     76  CB       -12.7150   36.3190  -37.3340 C.3    89  PHE89       0.0547
     77  CG       -14.0160   36.4720  -36.7020 C.ar   89  PHE89      -0.0202
     78  CD1      -14.3550   37.6110  -36.0160 C.ar   89  PHE89      -0.0042
     79  CD2      -14.9580   35.4140  -36.8030 C.ar   89  PHE89      -0.0042
     80  CE1      -15.5730   37.7340  -35.4350 C.ar   89  PHE89      -0.0003
     81  CE2      -16.1890   35.5690  -36.2370 C.ar   89  PHE89      -0.0003
     82  CZ       -16.4960   36.7080  -35.5820 C.ar   89  PHE89      -0.0000
     83  N        -10.6450   38.0960  -38.7640 N.am   90  TRP90      -0.1962
     84  CA        -9.3000   38.4560  -39.1910 C.3    90  TRP90       0.1771
     85  C         -8.2600   37.9610  -38.1990 C.2    90  TRP90       0.2619
     86  O         -8.4850   37.9020  -36.9610 O.2    90  TRP90      -0.2715
     87  CB        -9.1320   39.9650  -39.3510 C.3    90  TRP90       0.0590
     88  CG        -9.8960   40.6580  -40.4800 C.ar   90  TRP90       0.0006
     89  CD1      -11.0610   40.2660  -41.0620 C.ar   90  TRP90       0.0946
     90  CD2       -9.5970   41.9330  -41.0470 C.ar   90  TRP90       0.0152
     91  NE1      -11.4760   41.1770  -41.9540 N.ar   90  TRP90      -0.2442
     92  CE2      -10.6050   42.2050  -42.0110 C.ar   90  TRP90       0.0810
     93  CE3       -8.6140   42.8570  -40.8610 C.ar   90  TRP90       0.0012
     94  CZ2      -10.6270   43.3550  -42.7830 C.ar   90  TRP90       0.0191
     95  CZ3       -8.6360   43.9710  -41.6040 C.ar   90  TRP90       0.0001
     96  CH2       -9.6460   44.2350  -42.5560 C.ar   90  TRP90       0.0015
     97  N         -7.0700   37.6370  -38.7250 N.am   91  PHE91      -0.1974
     98  CA        -5.9630   37.1040  -37.9010 C.3    91  PHE91       0.1639
     99  C         -4.6200   37.8220  -38.2910 C.2    91  PHE91       0.2290
    100  O         -4.4380   38.2190  -39.4310 O.2    91  PHE91      -0.2864
    101  CB        -5.8090   35.5840  -38.1180 C.3    91  PHE91       0.0560
    102  CG        -6.9960   34.7890  -37.6550 C.ar   91  PHE91      -0.0200
    103  CD1       -8.1530   34.6690  -38.4650 C.ar   91  PHE91      -0.0042
    104  CD2       -7.0010   34.2100  -36.4020 C.ar   91  PHE91      -0.0042
    105  CE1       -9.2940   34.0110  -37.9950 C.ar   91  PHE91      -0.0003
    106  CE2       -8.1350   33.4900  -35.9300 C.ar   91  PHE91      -0.0003
    107  CZ        -9.2950   33.4170  -36.7260 C.ar   91  PHE91      -0.0000
    108  N         -0.7740   36.7860  -38.5190 N.3    93  PRO93      -0.2116
    109  CA         0.1430   35.5740  -38.4660 C.3    93  PRO93       0.1372
    110  C          1.5350   35.9410  -37.8490 C.2    93  PRO93       0.2244
    111  O          2.2980   36.6330  -38.4910 O.2    93  PRO93      -0.2868
    112  CB         0.2270   35.1190  -39.9040 C.3    93  PRO93       0.0268
    113  CG        -0.0840   36.3540  -40.7210 C.3    93  PRO93       0.0207
    114  CD        -0.9270   37.3070  -39.8930 C.3    93  PRO93       0.0892
@<TRIPOS>BOND
     1    58    57   ar
     2    59    57   ar
     3    57    56    1
     4    56    53    1
     5    42    41    1
     6    53    54    1
     7    53    52    1
     8    43    41    1
     9    54    55    2
    10    41    38    1
    11    52    46   am
    12    60    61    1
    13    47    46    2
    14    46    45    1
    15    38    39    1
    16    38    37    1
    17    39    40    2
    18    39    44   am
    19    44    45    1
    20    37    35   am
    21    61    64    1
    22    61    62    1
    23    45    48    1
    24    64    65    1
    25    35    36    2
    26    35    34    1
    27    28    27    2
    28    62    63    2
    29    48    50    1
    30    48    49    1
    31    66    65   ar
    32    66    68   ar
    33    65    67   ar
    34    34    33    1
    35    27    26    1
    36    29    26    1
    37    29    30    1
    38    26    25    1
    39    49    51    1
    40    32    30   am
    41    68    70   ar
    42     9    10    1
    43    67    69   ar
    44    30    31    2
    45    12    11    2
    46    70    69   ar
    47    70    71    1
    48    10    11    1
    49    10    13    1
    50    94    96   ar
    51    94    92   ar
    52    96    95   ar
    53    15    13    1
    54    13    14    1
    55    24    22   am
    56    92    91   ar
    57    92    90   ar
    58    91    89   ar
    59    19    18    2
    60    95    93   ar
    61    22    21    1
    62    22    23    2
    63    89    88   ar
    64    90    93   ar
    65    90    88   ar
    66    18    17    1
    67    21    20    1
    68   113   112    1
    69   113   114    1
    70    88    87    1
    71    20    17    1
    72    75    74    2
    73   112   109    1
    74   114   108    1
    75    72    73    1
    76    17    16    1
    77   100    99    2
    78    87    84    1
    79    74    73    1
    80    74    83   am
    81    84    83    1
    82    84    85    1
    83     8     6    1
    84    73    76    1
    85    97    85   am
    86    97    98    1
    87     7     6    1
    88   108   109    1
    89   111   110    2
    90   109   110    1
    91   103   105   ar
    92   103   102   ar
    93    99    98    1
    94    85    86    2
    95     6     5    1
    96   101    98    1
    97   101   102    1
    98   105   107   ar
    99   102   104   ar
   100    76    77    1
   101    79    77   ar
   102    79    81   ar
   103   107   106   ar
   104    77    78   ar
   105     5     2    1
   106   104   106   ar
   107    81    82   ar
   108    78    80   ar
   109     2     1    1
   110     2     3    1
   111    82    80   ar
   112     3     4    2
