@<TRIPOS>MOLECULE
tmp/2y1wC01.pdb
 206 203 0 0 0
SMALL
GASTEIGER

@<TRIPOS>ATOM
      1  N         45.1080  -34.2660  -86.7670 N.3    11  SER11      -0.1217
      2  CA        45.5270  -33.0260  -86.1070 C.3    11  SER11       0.1889
      3  C         45.9370  -31.9500  -87.1090 C.2    11  SER11       0.2288
      4  O         45.6300  -30.7690  -86.9140 O.2    11  SER11      -0.2866
      5  CB        46.7020  -33.2840  -85.1480 C.3    11  SER11       0.2089
      6  OG        47.2930  -32.0680  -84.6830 O.3    11  SER11      -0.2183
      7  N         42.8830  -29.9960  -88.7940 N.3    14  GLN14      -0.1231
      8  CA        42.3720  -28.9290  -87.9470 C.3    14  GLN14       0.1698
      9  C         43.3500  -27.7590  -87.8160 C.2    14  GLN14       0.2592
     10  O         42.9450  -26.6020  -87.7550 O.2    14  GLN14      -0.2718
     11  CB        42.0740  -29.5110  -86.5820 C.3    14  GLN14       0.0381
     12  CG        41.2840  -30.7860  -86.6970 C.3    14  GLN14       0.0905
     13  CD        41.7730  -31.8700  -85.7520 C.2    14  GLN14       0.2608
     14  OE1       42.2520  -32.9480  -86.1850 O.2    14  GLN14      -0.2717
     15  NE2       41.6540  -31.6010  -84.4440 N.am   14  GLN14      -0.0878
     16  N         44.6400  -28.0820  -87.7800 N.am   15  TYR15      -0.1976
     17  CA        45.6900  -27.0950  -87.5630 C.3    15  TYR15       0.1639
     18  C         45.7660  -26.1150  -88.7220 C.2    15  TYR15       0.2290
     19  O         45.7410  -24.9110  -88.5290 O.2    15  TYR15      -0.2864
     20  CB        47.0290  -27.8080  -87.3790 C.3    15  TYR15       0.0560
     21  CG        48.1860  -26.8900  -87.0920 C.ar   15  TYR15      -0.0198
     22  CD1       48.3920  -26.3760  -85.8170 C.ar   15  TYR15      -0.0009
     23  CD2       49.0910  -26.5510  -88.0900 C.ar   15  TYR15      -0.0009
     24  CE1       49.4540  -25.5600  -85.5460 C.ar   15  TYR15       0.0417
     25  CE2       50.1620  -25.7290  -87.8270 C.ar   15  TYR15       0.0417
     26  CZ        50.3420  -25.2310  -86.5530 C.ar   15  TYR15       0.1957
     27  OH        51.4010  -24.3720  -86.3150 O.3    15  TYR15      -0.2866
     28  N         42.6730  -24.0010  -89.1360 N.3    18  PHE18      -0.1227
     29  CA        42.6810  -22.8790  -88.2240 C.3    18  PHE18       0.1736
     30  C         43.4400  -21.7020  -88.8370 C.2    18  PHE18       0.2595
     31  O         42.9430  -20.5820  -88.8530 O.2    18  PHE18      -0.2718
     32  CB        43.3180  -23.3090  -86.9130 C.3    18  PHE18       0.0547
     33  CG        43.5510  -22.1840  -85.9290 C.ar   18  PHE18      -0.0202
     34  CD1       42.5760  -21.8360  -85.0000 C.ar   18  PHE18      -0.0042
     35  CD2       44.7770  -21.5260  -85.8930 C.ar   18  PHE18      -0.0042
     36  CE1       42.8260  -20.8490  -84.0420 C.ar   18  PHE18      -0.0003
     37  CE2       45.0350  -20.5520  -84.9530 C.ar   18  PHE18      -0.0003
     38  CZ        44.0600  -20.2070  -84.0170 C.ar   18  PHE18      -0.0000
     39  N         44.6280  -21.9610  -89.3630 N.am   19  TYR19      -0.1976
     40  CA        45.4310  -20.8890  -89.9440 C.3    19  TYR19       0.1639
     41  C         44.9170  -20.4120  -91.3090 C.2    19  TYR19       0.2290
     42  O         45.4310  -19.4300  -91.8850 O.2    19  TYR19      -0.2864
     43  CB        46.9030  -21.3190  -90.0340 C.3    19  TYR19       0.0560
     44  CG        47.5580  -21.2330  -88.6750 C.ar   19  TYR19      -0.0198
     45  CD1       47.6650  -20.0120  -88.0390 C.ar   19  TYR19      -0.0009
     46  CD2       48.0500  -22.3720  -88.0190 C.ar   19  TYR19      -0.0009
     47  CE1       48.2380  -19.8980  -86.7970 C.ar   19  TYR19       0.0417
     48  CE2       48.6260  -22.2770  -86.7640 C.ar   19  TYR19       0.0417
     49  CZ        48.7180  -21.0260  -86.1660 C.ar   19  TYR19       0.1957
     50  OH        49.3050  -20.8590  -84.9500 O.3    19  TYR19      -0.2866
     51  N         42.2640  -15.3160  -87.9670 N.3    24  GLN24      -0.1245
     52  CA        43.3350  -15.7860  -87.0960 C.3    24  GLN24       0.1566
     53  C         44.6550  -15.1590  -87.4980 C.2    24  GLN24       0.2260
     54  O         45.4780  -14.8410  -86.6510 O.2    24  GLN24      -0.2867
     55  CB        43.4630  -17.3120  -87.1640 C.3    24  GLN24       0.0367
     56  CG        42.3360  -18.0170  -86.4650 C.3    24  GLN24       0.0905
     57  CD        42.2080  -17.5970  -84.9930 C.2    24  GLN24       0.2608
     58  OE1       41.1100  -17.6190  -84.4260 O.2    24  GLN24      -0.2717
     59  NE2       43.3280  -17.2180  -84.3730 N.am   24  GLN24      -0.0878
     60  N         44.5240  -11.8120  -86.0650 N.3    27  ASN27      -0.1225
     61  CA        44.7960  -11.8790  -84.6440 C.3    27  ASN27       0.1785
     62  C         46.3020  -11.8420  -84.3620 C.2    27  ASN27       0.2597
     63  O         46.7240  -11.1740  -83.4300 O.2    27  ASN27      -0.2718
     64  CB        44.1800  -13.1500  -84.0530 C.3    27  ASN27       0.1169
     65  CG        44.4730  -13.3170  -82.5640 C.2    27  ASN27       0.2627
     66  OD1       44.1360  -12.4580  -81.7540 O.2    27  ASN27      -0.2716
     67  ND2       45.1140  -14.4350  -82.2000 N.am   27  ASN27      -0.0877
     68  N         47.1090  -12.5460  -85.1540 N.am   28  MET28      -0.1979
     69  CA        48.5630  -12.4640  -84.9650 C.3    28  MET28       0.1605
     70  C         49.1110  -11.1290  -85.4580 C.2    28  MET28       0.2287
     71  O         49.9640  -10.5240  -84.8110 O.2    28  MET28      -0.2864
     72  CB        49.2620  -13.6150  -85.6960 C.3    28  MET28       0.0413
     73  CG        48.9220  -14.9850  -85.0970 C.3    28  MET28       0.0598
     74  SD        49.6090  -16.3490  -86.0460 S.3    28  MET28      -0.1393
     75  CE        48.6490  -16.2380  -87.5540 C.3    28  MET28       0.0692
     76  N         57.8610  -17.1460  -87.7640 N.3   123  GLU123     -0.1231
     77  CA        57.3040  -17.0180  -86.4430 C.3   123  GLU123      0.1684
     78  C         56.5810  -18.3250  -86.1300 C.2   123  GLU123      0.2434
     79  O         55.4020  -18.5150  -86.4550 O.2   123  GLU123     -0.2733
     80  CB        56.3600  -15.8160  -86.3630 C.3   123  GLU123      0.0402
     81  CG        55.9240  -15.4800  -84.9330 C.3   123  GLU123      0.1161
     82  CD        54.6810  -16.2510  -84.5320 C.2   123  GLU123      0.3649
     83  OE1       53.5690  -15.7900  -84.8650 O.co2 123  GLU123     -0.2457
     84  OE2       54.8050  -17.3210  -83.8870 O.co2 123  GLU123     -0.2457
     85  N         57.3150  -19.2650  -85.5160 N.am  124  PRO124     -0.2718
     86  CA        56.9150  -20.6390  -85.2280 C.3   124  PRO124      0.1535
     87  C         56.5680  -20.9230  -83.7730 C.2   124  PRO124      0.2598
     88  O         56.4110  -22.0940  -83.4160 O.2   124  PRO124     -0.2715
     89  CB        58.1330  -21.4350  -85.6530 C.3   124  PRO124      0.0310
     90  CG        59.2850  -20.5350  -85.2580 C.3   124  PRO124      0.0237
     91  CD        58.7780  -19.1050  -85.3730 C.3   124  PRO124      0.0939
     92  N         56.4990  -19.8790  -82.9400 N.am  125  MET125     -0.1964
     93  CA        56.3730  -20.0420  -81.4930 C.3   125  MET125      0.1736
     94  C         54.9080  -20.2330  -81.0730 C.2   125  MET125      0.2617
     95  O         54.0310  -19.4460  -81.4550 O.2   125  MET125     -0.2715
     96  CB        56.9310  -18.8080  -80.7570 C.3   125  MET125      0.0427
     97  CG        58.4030  -18.5030  -81.0120 C.3   125  MET125      0.0599
     98  SD        58.7080  -17.2970  -82.3500 S.3   125  MET125     -0.1393
     99  CE        58.1040  -15.7870  -81.5640 C.3   125  MET125      0.0692
    100  N         54.6510  -21.2690  -80.2790 N.am  126  GLY126     -0.1940
    101  CA        53.3410  -21.4410  -79.6880 C.3   126  GLY126      0.2014
    102  C         53.3540  -21.0890  -78.2010 C.2   126  GLY126      0.2638
    103  O         54.3390  -20.5610  -77.6710 O.2   126  GLY126     -0.2714
    104  N         52.2560  -21.3840  -77.5140 N.am  127  TYR127     -0.1973
    105  CA        52.2490  -21.2550  -76.0700 C.3   127  TYR127      0.1639
    106  C         53.4640  -21.9440  -75.4910 C.2   127  TYR127      0.2290
    107  O         53.8590  -23.0090  -75.9750 O.2   127  TYR127     -0.2864
    108  CB        51.0020  -21.9000  -75.4940 C.3   127  TYR127      0.0560
    109  CG        49.7410  -21.1500  -75.8000 C.ar  127  TYR127     -0.0198
    110  CD1       49.7370  -19.7610  -75.8690 C.ar  127  TYR127     -0.0009
    111  CD2       48.5340  -21.8270  -75.9580 C.ar  127  TYR127     -0.0009
    112  CE1       48.5570  -19.0550  -76.0790 C.ar  127  TYR127      0.0417
    113  CE2       47.3400  -21.1350  -76.1590 C.ar  127  TYR127      0.0417
    114  CZ        47.3590  -19.7520  -76.2170 C.ar  127  TYR127      0.1957
    115  OH        46.1760  -19.0740  -76.3820 O.3   127  TYR127     -0.2866
    116  N         54.4980  -25.3060  -78.0230 N.3   131  ASN131     -0.1225
    117  CA        53.2210  -25.8040  -78.5170 C.3   131  ASN131      0.1785
    118  C         53.1110  -25.6540  -80.0330 C.2   131  ASN131      0.2597
    119  O         53.6650  -24.7190  -80.6160 O.2   131  ASN131     -0.2718
    120  CB        52.0560  -25.0680  -77.8700 C.3   131  ASN131      0.1169
    121  CG        50.7410  -25.7290  -78.1870 C.2   131  ASN131      0.2627
    122  OD1       50.6360  -26.9430  -78.0870 O.2   131  ASN131     -0.2716
    123  ND2       49.7400  -24.9490  -78.5880 N.am  131  ASN131     -0.0877
    124  N         52.3910  -26.5940  -80.6550 N.am  132  GLU132     -0.1979
    125  CA        52.1740  -26.6520  -82.1070 C.3   132  GLU132      0.1602
    126  C         53.2990  -27.3620  -82.8600 C.2   132  GLU132      0.2287
    127  O         53.1170  -27.7990  -83.9990 O.2   132  GLU132     -0.2864
    128  CB        51.9930  -25.2520  -82.6920 C.3   132  GLU132      0.0415
    129  CG        50.8030  -24.4650  -82.1250 C.3   132  GLU132      0.1163
    130  CD        50.6660  -23.0480  -82.7540 C.2   132  GLU132      0.3649
    131  OE1       50.7570  -22.9060  -84.0100 O.co2 132  GLU132     -0.2457
    132  OE2       50.4780  -22.0810  -81.9840 O.co2 132  GLU132     -0.2457
    133  N         55.7850  -26.3240  -84.3190 N.3   134  MET134     -0.1245
    134  CA        56.2180  -25.7040  -85.5480 C.3   134  MET134      0.1570
    135  C         57.7150  -25.3560  -85.4710 C.2   134  MET134      0.2261
    136  O         58.3620  -25.1480  -86.5020 O.2   134  MET134     -0.2867
    137  CB        55.3860  -24.4630  -85.8470 C.3   134  MET134      0.0387
    138  CG        55.6940  -23.8860  -87.2160 C.3   134  MET134      0.0595
    139  SD        54.8400  -22.3150  -87.5410 S.3   134  MET134     -0.1393
    140  CE        55.6700  -21.7650  -89.0280 C.3   134  MET134      0.0692
    141  N         49.8150  -11.7600  -77.6270 N.3   280  HIS280     -0.1226
    142  CA        48.7740  -12.7730  -77.7430 C.3   280  HIS280      0.1752
    143  C         49.2450  -14.1470  -77.2230 C.2   280  HIS280      0.2596
    144  O         48.4720  -15.0970  -77.1640 O.2   280  HIS280     -0.2718
    145  CB        48.2950  -12.8680  -79.2020 C.3   280  HIS280      0.0759
    146  CG        49.1820  -13.6900  -80.0830 C.ar  280  HIS280      0.0818
    147  ND1       50.4150  -13.2490  -80.5240 N.ar  280  HIS280     -0.2268
    148  CD2       49.0190  -14.9310  -80.6000 C.ar  280  HIS280      0.1154
    149  CE1       50.9740  -14.1830  -81.2750 C.ar  280  HIS280      0.1986
    150  NE2       50.1480  -15.2140  -81.3380 N.ar  280  HIS280     -0.2212
    151  N         50.5030  -14.2540  -76.8170 N.am  281  TRP281     -0.1976
    152  CA        50.9310  -15.4710  -76.1280 C.3   281  TRP281      0.1640
    153  C         50.6440  -15.4510  -74.6360 C.2   281  TRP281      0.2290
    154  O         50.7460  -16.4860  -73.9660 O.2   281  TRP281     -0.2864
    155  CB        52.4260  -15.7170  -76.3350 C.3   281  TRP281      0.0576
    156  CG        52.7800  -16.2050  -77.7200 C.ar  281  TRP281      0.0006
    157  CD1       52.6630  -17.4830  -78.2100 C.ar  281  TRP281      0.0946
    158  CD2       53.3820  -15.4390  -78.7570 C.ar  281  TRP281      0.0152
    159  NE1       53.1660  -17.5570  -79.4910 N.ar  281  TRP281     -0.2442
    160  CE2       53.6160  -16.3100  -79.8460 C.ar  281  TRP281      0.0810
    161  CE3       53.7510  -14.0980  -78.8740 C.ar  281  TRP281      0.0012
    162  CZ2       54.2060  -15.8770  -81.0210 C.ar  281  TRP281      0.0191
    163  CZ3       54.3290  -13.6820  -80.0240 C.ar  281  TRP281      0.0001
    164  CH2       54.5590  -14.5660  -81.0930 C.ar  281  TRP281      0.0015
    165  N         49.7530  -34.9340  -81.6160 N.3   311  ARG311     -0.1231
    166  CA        48.7350  -33.8900  -81.7150 C.3   311  ARG311      0.1694
    167  C         49.3730  -32.5060  -81.7910 C.2   311  ARG311      0.2592
    168  O         48.7540  -31.5060  -81.4110 O.2   311  ARG311     -0.2718
    169  CB        47.7990  -33.9380  -80.5120 C.3   311  ARG311      0.0321
    170  CG        47.1160  -35.2720  -80.3250 C.3   311  ARG311      0.0489
    171  CD        46.4370  -35.7340  -81.6010 C.3   311  ARG311      0.2205
    172  NE        45.2250  -34.9630  -81.8970 N.pl3 311  ARG311     -0.0865
    173  CZ        44.4880  -35.0920  -83.0070 C.cat 311  ARG311      0.5346
    174  NH1       44.8200  -35.9700  -83.9550 N.pl3 311  ARG311      0.1354
    175  NH2       43.4110  -34.3300  -83.1750 N.pl3 311  ARG311      0.1354
    176  N         50.6200  -32.4680  -82.2520 N.am  312  GLN312     -0.1966
    177  CA        51.3550  -31.2190  -82.4520 C.3   312  GLN312      0.1733
    178  C         51.5550  -30.4470  -81.1640 C.2   312  GLN312      0.2617
    179  O         51.6520  -29.2300  -81.1690 O.2   312  GLN312     -0.2715
    180  CB        50.6370  -30.3530  -83.4840 C.3   312  GLN312      0.0408
    181  CG        50.6650  -30.9790  -84.8670 C.3   312  GLN312      0.0908
    182  CD        49.8750  -30.1890  -85.8740 C.2   312  GLN312      0.2608
    183  OE1       48.6730  -30.4140  -86.0490 O.2   312  GLN312     -0.2717
    184  NE2       50.5390  -29.2400  -86.5310 N.am  312  GLN312     -0.0878
    185  N         51.6270  -31.1690  -80.0590 N.am  313  SER313     -0.1950
    186  CA        51.8440  -30.5520  -78.7600 C.3   313  SER313      0.1924
    187  C         52.7400  -31.4260  -77.8760 C.2   313  SER313      0.2314
    188  O         53.4830  -32.2900  -78.3800 O.2   313  SER313     -0.2863
    189  CB        50.5000  -30.3220  -78.0800 C.3   313  SER313      0.2116
    190  OG        50.6150  -29.4000  -77.0110 O.3   313  SER313     -0.2180
    191  N         48.0680  -29.5080  -75.2790 N.3   336  LYS336     -0.1245
    192  CA        47.0920  -29.4430  -76.3640 C.3   336  LYS336      0.1561
    193  C         45.6660  -29.1400  -75.8790 C.2   336  LYS336      0.2260
    194  O         44.7230  -29.1740  -76.6660 O.2   336  LYS336     -0.2867
    195  CB        47.0640  -30.7690  -77.1350 C.3   336  LYS336      0.0271
    196  CG        46.2060  -31.8630  -76.4560 C.3   336  LYS336      0.0035
    197  CD        46.9010  -33.2300  -76.5030 C.3   336  LYS336      0.0206
    198  CE        45.9170  -34.3890  -76.5580 C.3   336  LYS336      0.1093
    199  NZ        46.5290  -35.5450  -77.2950 N.3   336  LYS336     -0.1314
    200  N         44.7430  -26.3240  -73.2920 N.3   338  PRO338     -0.2116
    201  CA        44.9070  -25.2560  -72.2980 C.3   338  PRO338      0.1372
    202  C         43.5700  -24.5890  -71.9410 C.2   338  PRO338      0.2244
    203  O         42.6800  -24.5300  -72.7670 O.2   338  PRO338     -0.2868
    204  CB        45.8630  -24.2880  -72.9840 C.3   338  PRO338      0.0268
    205  CG        45.5940  -24.5050  -74.4700 C.3   338  PRO338      0.0207
    206  CD        45.2410  -25.9410  -74.6290 C.3   338  PRO338      0.0892
@<TRIPOS>BOND
     1    42    41    2
     2    41    40    1
     3    43    40    1
     4    43    44    1
     5    40    39    1
     6    39    30   am
     7    28    29    1
     8   140   139    1
     9    31    30    2
    10    30    29    1
    11     7     8    1
    12    18    19    2
    13    18    17    1
    14    44    45   ar
    15    44    46   ar
    16    29    32    1
    17    23    25   ar
    18    23    21   ar
    19    45    47   ar
    20    46    48   ar
    21    51    52    1
    22     8     9    1
    23     8    11    1
    24    25    26   ar
    25     9    16   am
    26     9    10    2
    27    16    17    1
    28    76    77    1
    29    17    20    1
    30    75    74    1
    31   139   138    1
    32    53    52    1
    33    53    54    2
    34    20    21    1
    35   138   137    1
    36    55    52    1
    37    55    56    1
    38     3     4    2
    39     3     2    1
    40    21    22   ar
    41    32    33    1
    42    47    49   ar
    43     1     2    1
    44    48    49   ar
    45    12    11    1
    46    12    13    1
    47    26    27    1
    48    26    24   ar
    49   184   182   am
    50   136   135    2
    51    56    57    1
    52    79    78    2
    53    77    80    1
    54    77    78    1
    55    80    81    1
    56    14    13    2
    57    49    50    1
    58    78    85   am
    59     2     5    1
    60    60    61    1
    61   183   182    2
    62    74    73    1
    63    33    35   ar
    64    33    34   ar
    65    35    37   ar
    66   182   181    1
    67   137   134    1
    68    22    24   ar
    69    13    15   am
    70    72    73    1
    71    72    69    1
    72    89    90    1
    73    89    86    1
    74   134   135    1
    75   134   133    1
    76    85    91    1
    77    85    86    1
    78    70    69    1
    79    70    71    2
    80    91    90    1
    81    86    87    1
    82    68    69    1
    83    68    62   am
    84     5     6    1
    85    34    36   ar
    86    57    58    2
    87    57    59   am
    88    37    38   ar
    89    81    82    1
    90   181   180    1
    91    83    82   ar
    92    61    62    1
    93    61    64    1
    94    82    84   ar
    95    62    63    2
    96    64    65    1
    97    36    38   ar
    98   131   130   ar
    99   127   126    2
   100   174   173    1
   101    87    88    2
   102    87    92   am
   103   180   177    1
   104   175   173    1
   105   173   172    2
   106    92    93    1
   107   126   125    1
   108   130   129    1
   109   130   132   ar
   110   128   129    1
   111   128   125    1
   112    65    67   am
   113    65    66    2
   114   177   176    1
   115   177   178    1
   116    98    99    1
   117    98    97    1
   118   176   167   am
   119   125   124    1
   120   172   171    1
   121   167   166    1
   122   167   168    2
   123   166   165    1
   124   166   169    1
   125   171   170    1
   126    93    94    1
   127    93    96    1
   128    95    94    2
   129   150   149   ar
   130   150   148   ar
   131   149   147   ar
   132   179   178    2
   133   178   185   am
   134   164   162   ar
   135   164   163   ar
   136    94   100   am
   137   162   160   ar
   138    97    96    1
   139   124   118   am
   140   119   118    2
   141   148   146   ar
   142   147   146   ar
   143   169   170    1
   144   100   101    1
   145   146   145    1
   146   185   186    1
   147   118   117    1
   148   163   161   ar
   149   160   159   ar
   150   160   158   ar
   151   101   102    1
   152   159   157   ar
   153   145   142    1
   154   161   158   ar
   155   186   189    1
   156   186   187    1
   157   158   156   ar
   158   123   121   am
   159   117   116    1
   160   117   120    1
   161   188   187    2
   162   157   156   ar
   163   102   103    2
   164   102   104   am
   165   121   122    2
   166   121   120    1
   167   189   190    1
   168   142   141    1
   169   142   143    1
   170   156   155    1
   171   104   105    1
   172   199   198    1
   173   143   144    2
   174   143   151   am
   175   195   196    1
   176   195   192    1
   177   151   152    1
   178   194   193    2
   179   198   197    1
   180   197   196    1
   181   115   114    1
   182   192   193    1
   183   192   191    1
   184   155   152    1
   185   114   113   ar
   186   114   112   ar
   187   113   111   ar
   188   152   153    1
   189   112   110   ar
   190   105   108    1
   191   105   106    1
   192   107   106    2
   193   111   109   ar
   194   110   109   ar
   195   109   108    1
   196   153   154    2
   197   206   205    1
   198   206   200    1
   199   205   204    1
   200   200   201    1
   201   204   201    1
   202   203   202    2
   203   201   202    1
