@<TRIPOS>MOLECULE
tmp/2y1wC00.pdb
 230 221 0 0 0
SMALL
GASTEIGER

@<TRIPOS>ATOM
      1  N         56.8590  -34.7320  -91.6850 N.3     3  PHE3       -0.1241
      2  CA        55.7310  -34.0910  -91.0080 C.3     3  PHE3        0.1605
      3  C         54.6080  -35.0650  -90.7170 C.2     3  PHE3        0.2264
      4  O         54.1320  -35.1520  -89.5850 O.2     3  PHE3       -0.2867
      5  CB        55.1730  -32.9210  -91.8280 C.3     3  PHE3        0.0534
      6  CG        54.0530  -32.1860  -91.1330 C.ar    3  PHE3       -0.0203
      7  CD1       52.7290  -32.5930  -91.2870 C.ar    3  PHE3       -0.0042
      8  CD2       54.3290  -31.1210  -90.2800 C.ar    3  PHE3       -0.0042
      9  CE1       51.6980  -31.9520  -90.5950 C.ar    3  PHE3       -0.0003
     10  CE2       53.3040  -30.4860  -89.5950 C.ar    3  PHE3       -0.0003
     11  CZ        51.9860  -30.9050  -89.7520 C.ar    3  PHE3       -0.0000
     12  N         44.6400  -28.0820  -87.7800 N.3    15  TYR15      -0.1227
     13  CA        45.6900  -27.0950  -87.5630 C.3    15  TYR15       0.1736
     14  C         45.7660  -26.1150  -88.7220 C.2    15  TYR15       0.2595
     15  O         45.7410  -24.9110  -88.5290 O.2    15  TYR15      -0.2718
     16  CB        47.0290  -27.8080  -87.3790 C.3    15  TYR15       0.0548
     17  CG        48.1860  -26.8900  -87.0920 C.ar   15  TYR15      -0.0200
     18  CD1       48.3920  -26.3760  -85.8170 C.ar   15  TYR15      -0.0009
     19  CD2       49.0910  -26.5510  -88.0900 C.ar   15  TYR15      -0.0009
     20  CE1       49.4540  -25.5600  -85.5460 C.ar   15  TYR15       0.0417
     21  CE2       50.1620  -25.7290  -87.8270 C.ar   15  TYR15       0.0417
     22  CZ        50.3420  -25.2310  -86.5530 C.ar   15  TYR15       0.1957
     23  OH        51.4010  -24.3720  -86.3150 O.3    15  TYR15      -0.2866
     24  N         45.8330  -26.6350  -89.9350 N.am   16  PHE16      -0.1976
     25  CA        45.9070  -25.7810  -91.1000 C.3    16  PHE16       0.1639
     26  C         44.5670  -25.1720  -91.4980 C.2    16  PHE16       0.2290
     27  O         44.5170  -24.1110  -92.1310 O.2    16  PHE16      -0.2864
     28  CB        46.5500  -26.5550  -92.2380 C.3    16  PHE16       0.0560
     29  CG        48.0090  -26.8400  -91.9850 C.ar   16  PHE16      -0.0200
     30  CD1       48.8820  -25.7950  -91.7170 C.ar   16  PHE16      -0.0042
     31  CD2       48.4940  -28.1370  -91.9620 C.ar   16  PHE16      -0.0042
     32  CE1       50.2040  -26.0270  -91.4310 C.ar   16  PHE16      -0.0003
     33  CE2       49.8180  -28.3900  -91.6750 C.ar   16  PHE16      -0.0003
     34  CZ        50.6840  -27.3310  -91.4080 C.ar   16  PHE16      -0.0000
     35  N         44.6280  -21.9610  -89.3630 N.3    19  TYR19      -0.1241
     36  CA        45.4310  -20.8890  -89.9440 C.3    19  TYR19       0.1605
     37  C         44.9170  -20.4120  -91.3090 C.2    19  TYR19       0.2264
     38  O         45.4310  -19.4300  -91.8850 O.2    19  TYR19      -0.2867
     39  CB        46.9030  -21.3190  -90.0340 C.3    19  TYR19       0.0534
     40  CG        47.5580  -21.2330  -88.6750 C.ar   19  TYR19      -0.0201
     41  CD1       47.6650  -20.0120  -88.0390 C.ar   19  TYR19      -0.0009
     42  CD2       48.0500  -22.3720  -88.0190 C.ar   19  TYR19      -0.0009
     43  CE1       48.2380  -19.8980  -86.7970 C.ar   19  TYR19       0.0417
     44  CE2       48.6260  -22.2770  -86.7640 C.ar   19  TYR19       0.0417
     45  CZ        48.7180  -21.0260  -86.1660 C.ar   19  TYR19       0.1957
     46  OH        49.3050  -20.8590  -84.9500 O.3    19  TYR19      -0.2866
     47  N         44.8610  -14.9890  -88.7910 N.3    25  GLN25      -0.1245
     48  CA        46.0210  -14.2560  -89.2500 C.3    25  GLN25       0.1566
     49  C         45.9410  -12.8460  -88.6910 C.2    25  GLN25       0.2260
     50  O         46.9260  -12.2990  -88.1990 O.2    25  GLN25      -0.2867
     51  CB        46.0580  -14.2370  -90.7790 C.3    25  GLN25       0.0367
     52  CG        46.2740  -15.6140  -91.3880 C.3    25  GLN25       0.0905
     53  CD        47.6650  -16.1870  -91.1070 C.2    25  GLN25       0.2608
     54  OE1       48.6120  -15.4490  -90.8760 O.2    25  GLN25      -0.2717
     55  NE2       47.7850  -17.5240  -91.1430 N.am   25  GLN25      -0.0878
     56  N         47.1090  -12.5460  -85.1540 N.3    28  MET28      -0.1230
     57  CA        48.5630  -12.4640  -84.9650 C.3    28  MET28       0.1702
     58  C         49.1110  -11.1290  -85.4580 C.2    28  MET28       0.2592
     59  O         49.9640  -10.5240  -84.8110 O.2    28  MET28      -0.2718
     60  CB        49.2620  -13.6150  -85.6960 C.3    28  MET28       0.0401
     61  CG        48.9220  -14.9850  -85.0970 C.3    28  MET28       0.0596
     62  SD        49.6090  -16.3490  -86.0460 S.3    28  MET28      -0.1393
     63  CE        48.6490  -16.2380  -87.5540 C.3    28  MET28       0.0692
     64  N         48.6110  -10.6620  -86.5970 N.am   29  MET29      -0.1979
     65  CA        49.0930   -9.4080  -87.1500 C.3    29  MET29       0.1605
     66  C         48.8600   -8.2490  -86.2090 C.2    29  MET29       0.2287
     67  O         49.7010   -7.3570  -86.0930 O.2    29  MET29      -0.2864
     68  CB        48.4240   -9.1320  -88.4990 C.3    29  MET29       0.0413
     69  CG        48.8880  -10.1110  -89.5660 C.3    29  MET29       0.0598
     70  SD        47.7360  -10.3390  -90.9210 S.3    29  MET29      -0.1393
     71  CE        48.1530   -8.8600  -91.9430 C.3    29  MET29       0.0692
     72  N         54.3690   -8.2260  -81.1810 N.3    34  ARG34      -0.1245
     73  CA        54.8480   -9.2970  -82.0510 C.3    34  ARG34       0.1563
     74  C         55.2720   -8.7730  -83.4260 C.2    34  ARG34       0.2260
     75  O         56.4080   -8.9690  -83.8640 O.2    34  ARG34      -0.2867
     76  CB        53.7490  -10.3470  -82.2580 C.3    34  ARG34       0.0307
     77  CG        54.2090  -11.5930  -83.0360 C.3    34  ARG34       0.0489
     78  CD        53.0180  -12.3940  -83.5700 C.3    34  ARG34       0.2205
     79  NE        52.5590  -11.7770  -84.7980 N.pl3  34  ARG34      -0.0865
     80  CZ        52.6770  -12.3140  -86.0000 C.cat  34  ARG34       0.5346
     81  NH1       53.2350  -13.5140  -86.1610 N.pl3  34  ARG34       0.1354
     82  NH2       52.2810  -11.6250  -87.0450 N.pl3  34  ARG34       0.1354
     83  N         60.8080  -17.9280  -95.8830 N.3    56  ASP56      -0.1225
     84  CA        59.8540  -17.5910  -94.8090 C.3    56  ASP56       0.1805
     85  C         59.0590  -18.8530  -94.5440 C.2    56  ASP56       0.2598
     86  O         58.2610  -19.2590  -95.3620 O.2    56  ASP56      -0.2718
     87  CB        58.9150  -16.4590  -95.2900 C.3    56  ASP56       0.1424
     88  CG        57.8740  -16.0220  -94.2330 C.2    56  ASP56       0.3668
     89  OD1       57.7100  -16.6770  -93.1810 O.co2  56  ASP56      -0.2456
     90  OD2       57.2280  -14.9800  -94.4690 O.co2  56  ASP56      -0.2456
     91  N         59.2750  -19.4800  -93.4050 N.am   57  VAL57      -0.1966
     92  CA        58.5960  -20.7290  -93.1230 C.3    57  VAL57       0.1727
     93  C         57.2230  -20.5130  -92.4840 C.2    57  VAL57       0.2617
     94  O         57.1360  -20.0900  -91.3390 O.2    57  VAL57      -0.2715
     95  CB        59.4390  -21.6050  -92.1810 C.3    57  VAL57       0.0290
     96  CG1       58.6770  -22.8850  -91.8520 C.3    57  VAL57       0.0023
     97  CG2       60.7850  -21.9160  -92.8340 C.3    57  VAL57       0.0023
     98  N         56.1580  -20.8380  -93.2150 N.am   58  GLY58      -0.1940
     99  CA        54.8100  -20.5950  -92.7180 C.3    58  GLY58       0.2014
    100  C         54.4490  -19.1170  -92.8300 C.2    58  GLY58       0.2639
    101  O         54.2330  -18.4680  -91.8170 O.2    58  GLY58      -0.2714
    102  N         54.3800  -18.5840  -94.0490 N.am   59  CYS59      -0.1953
    103  CA        54.3210  -17.1370  -94.2460 C.3    59  CYS59       0.1843
    104  C         52.9650  -16.5010  -93.8660 C.2    59  CYS59       0.2626
    105  O         52.8750  -15.2720  -93.6710 O.2    59  CYS59      -0.2714
    106  CB        54.6720  -16.7930  -95.7070 C.3    59  CYS59       0.0997
    107  SG        53.4210  -17.2860  -96.9470 S.3    59  CYS59      -0.0797
    108  N         51.9250  -17.3300  -93.7550 N.am   60  GLY60      -0.1940
    109  CA        50.6180  -16.8180  -93.3920 C.3    60  GLY60       0.2014
    110  C         50.1890  -15.8000  -94.4240 C.2    60  GLY60       0.2639
    111  O         50.2140  -16.0740  -95.6280 O.2    60  GLY60      -0.2714
    112  N         49.8300  -14.6090  -93.9680 N.am   61  SER61      -0.1949
    113  CA        49.4330  -13.5460  -94.8730 C.3    61  SER61       0.1924
    114  C         50.5680  -13.0970  -95.7630 C.2    61  SER61       0.2314
    115  O         50.3450  -12.3990  -96.7520 O.2    61  SER61      -0.2863
    116  CB        48.9620  -12.3400  -94.0760 C.3    61  SER61       0.2116
    117  OG        50.0310  -11.8470  -93.2850 O.3    61  SER61      -0.2180
    118  N         53.1300  -11.4690  -94.3130 N.3    63  ILE63      -0.1231
    119  CA        53.6000  -10.2610  -93.6670 C.3    63  ILE63       0.1692
    120  C         55.1300  -10.1890  -93.4800 C.2    63  ILE63       0.2591
    121  O         55.7230   -9.1460  -93.7200 O.2    63  ILE63      -0.2718
    122  CB        52.8570  -10.0600  -92.3150 C.3    63  ILE63       0.0266
    123  CG1       53.2590   -8.7350  -91.6770 C.3    63  ILE63       0.0019
    124  CG2       53.1550  -11.1840  -91.3920 C.3    63  ILE63       0.0020
    125  CD1       52.8650   -7.5320  -92.5070 C.3    63  ILE63       0.0001
    126  N         55.7750  -11.2770  -93.0800 N.am   64  LEU64      -0.1980
    127  CA        57.2260  -11.2150  -92.8130 C.3    64  LEU64       0.1596
    128  C         58.0030  -11.1470  -94.1220 C.2    64  LEU64       0.2287
    129  O         59.0230  -10.4820  -94.2180 O.2    64  LEU64      -0.2864
    130  CB        57.6950  -12.4270  -91.9900 C.3    64  LEU64       0.0297
    131  CG        57.0530  -12.6050  -90.6110 C.3    64  LEU64       0.0022
    132  CD1       57.7140  -13.7990  -89.9190 C.3    64  LEU64       0.0001
    133  CD2       57.1850  -11.3110  -89.7530 C.3    64  LEU64       0.0001
    134  N         56.7580  -20.0480  -97.8560 N.3    79  VAL79      -0.1231
    135  CA        56.1000  -21.3460  -97.8290 C.3    79  VAL79       0.1692
    136  C         54.9610  -21.3620  -96.8330 C.2    79  VAL79       0.2592
    137  O         55.1350  -20.9750  -95.6590 O.2    79  VAL79      -0.2718
    138  CB        57.1130  -22.4560  -97.4500 C.3    79  VAL79       0.0266
    139  CG1       56.4020  -23.8310  -97.3240 C.3    79  VAL79       0.0020
    140  CG2       58.2220  -22.4970  -98.5040 C.3    79  VAL79       0.0020
    141  N         53.8030  -21.8370  -97.2770 N.am   80  GLU80      -0.1966
    142  CA        52.6390  -21.8560  -96.4120 C.3    80  GLU80       0.1733
    143  C         51.7180  -23.0340  -96.7060 C.2    80  GLU80       0.2616
    144  O         51.3560  -23.2600  -97.8430 O.2    80  GLU80      -0.2715
    145  CB        51.8690  -20.5330  -96.5460 C.3    80  GLU80       0.0429
    146  CG        50.4900  -20.5620  -95.8770 C.3    80  GLU80       0.1163
    147  CD        50.5790  -20.6750  -94.3580 C.2    80  GLU80       0.3649
    148  OE1       51.4370  -19.9490  -93.7640 O.co2  80  GLU80      -0.2457
    149  OE2       49.7890  -21.4820  -93.7720 O.co2  80  GLU80      -0.2457
    150  N         51.3330  -23.7710  -95.6690 N.am   81  ALA81      -0.1977
    151  CA        50.6330  -25.0310  -95.8660 C.3    81  ALA81       0.1597
    152  C         49.1160  -24.8900  -95.8860 C.2    81  ALA81       0.2287
    153  O         48.4530  -25.7040  -96.5120 O.2    81  ALA81      -0.2864
    154  CB        51.0530  -26.0610  -94.7920 C.3    81  ALA81       0.0319
    155  N         52.3250  -25.4220  -99.4900 N.3   106  GLY106     -0.1210
    156  CA        52.6950  -26.7480  -99.0300 C.3   106  GLY106      0.1956
    157  C         53.3840  -26.7300  -97.6740 C.2   106  GLY106      0.2612
    158  O         53.7250  -25.6570  -97.1540 O.2   106  GLY106     -0.2717
    159  N         53.5800  -27.9100  -97.0860 N.am  107  LYS107     -0.1965
    160  CA        54.3440  -28.0200  -95.8540 C.3   107  LYS107      0.1728
    161  C         55.8320  -27.8280  -96.1690 C.2   107  LYS107      0.2616
    162  O         56.2990  -28.2720  -97.2010 O.2   107  LYS107     -0.2715
    163  CB        54.0650  -29.3790  -95.2110 C.3   107  LYS107      0.0311
    164  CG        52.6000  -29.5420  -94.8350 C.3   107  LYS107      0.0038
    165  CD        52.2070  -30.9890  -94.7630 C.3   107  LYS107      0.0206
    166  CE        50.8240  -31.1690  -94.1180 C.3   107  LYS107      0.1093
    167  NZ        49.7170  -30.9310  -95.0890 N.3   107  LYS107     -0.1314
    168  N         56.5720  -27.1290  -95.3090 N.am  108  VAL108     -0.1963
    169  CA        57.9790  -26.8870  -95.6090 C.3   108  VAL108      0.1727
    170  C         58.7580  -28.2190  -95.6580 C.2   108  VAL108      0.2616
    171  O         59.8530  -28.3070  -96.2510 O.2   108  VAL108     -0.2715
    172  CB        58.6210  -25.9350  -94.5750 C.3   108  VAL108      0.0290
    173  CG1       58.7280  -26.6190  -93.2170 C.3   108  VAL108      0.0023
    174  CG2       59.9680  -25.4610  -95.0760 C.3   108  VAL108      0.0023
    175  N         58.1820  -29.2570  -95.0520 N.am  109  GLU109     -0.1977
    176  CA        58.7930  -30.5860  -95.0700 C.3   109  GLU109      0.1602
    177  C         58.5760  -31.3310  -96.4060 C.2   109  GLU109      0.2287
    178  O         59.1960  -32.3680  -96.6550 O.2   109  GLU109     -0.2864
    179  CB        58.2370  -31.4220  -93.9220 C.3   109  GLU109      0.0415
    180  CG        58.6360  -30.9140  -92.5340 C.3   109  GLU109      0.1163
    181  CD        57.6310  -29.9230  -91.9430 C.2   109  GLU109      0.3649
    182  OE1       56.7670  -29.4280  -92.7060 O.co2 109  GLU109     -0.2457
    183  OE2       57.7070  -29.6480  -90.7110 O.co2 109  GLU109     -0.2457
    184  N         57.8610  -17.1460  -87.7640 N.3   123  GLU123     -0.1231
    185  CA        57.3040  -17.0180  -86.4430 C.3   123  GLU123      0.1684
    186  C         56.5810  -18.3250  -86.1300 C.2   123  GLU123      0.2434
    187  O         55.4020  -18.5150  -86.4550 O.2   123  GLU123     -0.2733
    188  CB        56.3600  -15.8160  -86.3630 C.3   123  GLU123      0.0402
    189  CG        55.9240  -15.4800  -84.9330 C.3   123  GLU123      0.1161
    190  CD        54.6810  -16.2510  -84.5320 C.2   123  GLU123      0.3649
    191  OE1       53.5690  -15.7900  -84.8650 O.co2 123  GLU123     -0.2457
    192  OE2       54.8050  -17.3210  -83.8870 O.co2 123  GLU123     -0.2457
    193  N         57.3150  -19.2650  -85.5160 N.am  124  PRO124     -0.2718
    194  CA        56.9150  -20.6390  -85.2280 C.3   124  PRO124      0.1535
    195  C         56.5680  -20.9230  -83.7730 C.2   124  PRO124      0.2598
    196  O         56.4110  -22.0940  -83.4160 O.2   124  PRO124     -0.2715
    197  CB        58.1330  -21.4350  -85.6530 C.3   124  PRO124      0.0310
    198  CG        59.2850  -20.5350  -85.2580 C.3   124  PRO124      0.0237
    199  CD        58.7780  -19.1050  -85.3730 C.3   124  PRO124      0.0939
    200  N         56.4990  -19.8790  -82.9400 N.am  125  MET125     -0.1978
    201  CA        56.3730  -20.0420  -81.4930 C.3   125  MET125      0.1605
    202  C         54.9080  -20.2330  -81.0730 C.2   125  MET125      0.2287
    203  O         54.0310  -19.4460  -81.4550 O.2   125  MET125     -0.2864
    204  CB        56.9310  -18.8080  -80.7570 C.3   125  MET125      0.0413
    205  CG        58.4030  -18.5030  -81.0120 C.3   125  MET125      0.0598
    206  SD        58.7080  -17.2970  -82.3500 S.3   125  MET125     -0.1393
    207  CE        58.1040  -15.7870  -81.5640 C.3   125  MET125      0.0692
    208  N         52.3910  -26.5940  -80.6550 N.3   132  GLU132     -0.1245
    209  CA        52.1740  -26.6520  -82.1070 C.3   132  GLU132      0.1567
    210  C         53.2990  -27.3620  -82.8600 C.2   132  GLU132      0.2260
    211  O         53.1170  -27.7990  -83.9990 O.2   132  GLU132     -0.2867
    212  CB        51.9930  -25.2520  -82.6920 C.3   132  GLU132      0.0388
    213  CG        50.8030  -24.4650  -82.1250 C.3   132  GLU132      0.1160
    214  CD        50.6660  -23.0480  -82.7540 C.2   132  GLU132      0.3649
    215  OE1       50.7570  -22.9060  -84.0100 O.co2 132  GLU132     -0.2457
    216  OE2       50.4780  -22.0810  -81.9840 O.co2 132  GLU132     -0.2457
    217  N         55.7850  -26.3240  -84.3190 N.3   134  MET134     -0.1245
    218  CA        56.2180  -25.7040  -85.5480 C.3   134  MET134      0.1570
    219  C         57.7150  -25.3560  -85.4710 C.2   134  MET134      0.2261
    220  O         58.3620  -25.1480  -86.5020 O.2   134  MET134     -0.2867
    221  CB        55.3860  -24.4630  -85.8470 C.3   134  MET134      0.0387
    222  CG        55.6940  -23.8860  -87.2160 C.3   134  MET134      0.0595
    223  SD        54.8400  -22.3150  -87.5410 S.3   134  MET134     -0.1393
    224  CE        55.6700  -21.7650  -89.0280 C.3   134  MET134      0.0692
    225  N         59.5060  -27.7350  -87.7010 N.3   137  SER137     -0.1217
    226  CA        59.4550  -27.3840  -89.1190 C.3   137  SER137      0.1889
    227  C         60.4770  -26.2940  -89.4010 C.2   137  SER137      0.2288
    228  O         61.1470  -26.3190  -90.4320 O.2   137  SER137     -0.2866
    229  CB        58.0470  -26.8880  -89.5130 C.3   137  SER137      0.2089
    230  OG        57.0290  -27.8160  -89.1250 O.3   137  SER137     -0.2183
@<TRIPOS>BOND
     1   155   156    1
     2   156   157    1
     3   140   138    1
     4   134   135    1
     5   144   143    2
     6   135   138    1
     7   135   136    1
     8   157   158    2
     9   157   159   am
    10   138   139    1
    11   141   136   am
    12   141   142    1
    13   162   161    2
    14   159   160    1
    15   107   106    1
    16   136   137    2
    17   115   114    2
    18   143   142    1
    19   143   150   am
    20   178   177    2
    21   145   142    1
    22   145   146    1
    23   153   152    2
    24   177   176    1
    25   171   170    2
    26   161   160    1
    27   161   168   am
    28   152   151    1
    29    83    84    1
    30   146   147    1
    31   151   150    1
    32   151   154    1
    33   160   163    1
    34   114   113    1
    35   106   103    1
    36   170   169    1
    37   170   175   am
    38   111   110    2
    39   169   168    1
    40   169   172    1
    41    86    85    2
    42    87    84    1
    43    87    88    1
    44   163   164    1
    45   167   166    1
    46   174   172    1
    47   176   175    1
    48   176   179    1
    49   113   116    1
    50   113   112    1
    51   164   165    1
    52    84    85    1
    53   165   166    1
    54   172   173    1
    55    85    91   am
    56    90    88   ar
    57   110   112   am
    58   110   109    1
    59   147   149   ar
    60   147   148   ar
    61   118   119    1
    62   103   102    1
    63   103   104    1
    64    88    89   ar
    65   129   128    2
    66   128   127    1
    67   116   117    1
    68   102   100   am
    69   179   180    1
    70   104   108   am
    71   104   105    2
    72   108   109    1
    73   121   120    2
    74   119   120    1
    75   119   122    1
    76   120   126   am
    77    91    92    1
    78    98    99    1
    79    98    93   am
    80    92    93    1
    81    92    95    1
    82   126   127    1
    83    97    95    1
    84   100    99    1
    85   100   101    2
    86   127   130    1
    87   182   181   ar
    88   180   181    1
    89   125   123    1
    90    93    94    2
    91   122   123    1
    92   122   124    1
    93    28    29    1
    94    28    25    1
    95    95    96    1
    96    27    26    2
    97   130   131    1
    98    29    31   ar
    99    29    30   ar
   100    31    33   ar
   101   181   183   ar
   102    71    70    1
   103    38    37    2
   104     5     6    1
   105     5     2    1
   106    30    32   ar
   107     1     2    1
   108    33    34   ar
   109    26    25    1
   110    32    34   ar
   111    52    53    1
   112    52    51    1
   113    37    36    1
   114     7     6   ar
   115     7     9   ar
   116    55    53   am
   117     6     8   ar
   118    53    54    2
   119    25    24    1
   120     2     3    1
   121    70    69    1
   122    51    48    1
   123     3     4    2
   124   131   132    1
   125   131   133    1
   126     9    11   ar
   127   228   227    2
   128     8    10   ar
   129    39    36    1
   130    39    40    1
   131    36    35    1
   132    24    14   am
   133    11    10   ar
   134    69    68    1
   135   229   230    1
   136   229   226    1
   137   227   226    1
   138    48    47    1
   139    48    49    1
   140   226   225    1
   141   224   223    1
   142    14    15    2
   143    14    13    1
   144    49    50    2
   145    40    41   ar
   146    40    42   ar
   147    68    65    1
   148    19    21   ar
   149    19    17   ar
   150    41    43   ar
   151    42    44   ar
   152    21    22   ar
   153    12    13    1
   154   184   185    1
   155    13    16    1
   156    63    62    1
   157   223   222    1
   158    16    17    1
   159   222   221    1
   160    65    64    1
   161    65    66    1
   162    17    18   ar
   163    82    80    1
   164    43    45   ar
   165    44    45   ar
   166    64    58   am
   167    22    23    1
   168    22    20   ar
   169   220   219    2
   170   187   186    2
   171   185   188    1
   172   185   186    1
   173   188   189    1
   174    66    67    2
   175    45    46    1
   176    81    80    1
   177   186   193   am
   178    62    61    1
   179    80    79    2
   180   221   218    1
   181    18    20   ar
   182    60    61    1
   183    60    57    1
   184   197   198    1
   185   197   194    1
   186   218   219    1
   187   218   217    1
   188   193   199    1
   189   193   194    1
   190    58    57    1
   191    58    59    2
   192   199   198    1
   193   194   195    1
   194    56    57    1
   195   189   190    1
   196   191   190   ar
   197    79    78    1
   198   190   192   ar
   199   215   214   ar
   200   211   210    2
   201    75    74    2
   202   195   196    2
   203   195   200   am
   204    78    77    1
   205    74    73    1
   206    77    76    1
   207   200   201    1
   208   210   209    1
   209   214   213    1
   210   214   216   ar
   211   212   213    1
   212   212   209    1
   213   206   207    1
   214   206   205    1
   215    76    73    1
   216   209   208    1
   217    73    72    1
   218   201   202    1
   219   201   204    1
   220   203   202    2
   221   205   204    1
