@<TRIPOS>MOLECULE
tmp/2y1xB01.pdb
 209 208 0 0 0
SMALL
GASTEIGER

@<TRIPOS>ATOM
      1  N         32.1550  -28.6380  -15.8760 N.3    15  TYR15      -0.1241
      2  CA        31.1120  -27.6770  -16.1820 C.3    15  TYR15       0.1605
      3  C         31.0040  -26.6690  -15.0520 C.2    15  TYR15       0.2264
      4  O         31.0600  -25.4550  -15.2730 O.2    15  TYR15      -0.2867
      5  CB        29.7750  -28.4180  -16.3710 C.3    15  TYR15       0.0534
      6  CG        28.5450  -27.5510  -16.6150 C.ar   15  TYR15      -0.0201
      7  CD1       28.2750  -27.0090  -17.8820 C.ar   15  TYR15      -0.0009
      8  CD2       27.6110  -27.3330  -15.5970 C.ar   15  TYR15      -0.0009
      9  CE1       27.1020  -26.2770  -18.1300 C.ar   15  TYR15       0.0417
     10  CE2       26.4330  -26.6020  -15.8320 C.ar   15  TYR15       0.0417
     11  CZ        26.1930  -26.0810  -17.1020 C.ar   15  TYR15       0.1957
     12  OH        25.0460  -25.3680  -17.3200 O.3    15  TYR15      -0.2866
     13  N         33.8440  -24.2620  -14.5460 N.3    18  PHE18      -0.1227
     14  CA        33.7340  -23.1380  -15.4630 C.3    18  PHE18       0.1736
     15  C         32.8840  -22.0120  -14.8790 C.2    18  PHE18       0.2595
     16  O         33.2680  -20.8470  -14.9230 O.2    18  PHE18      -0.2718
     17  CB        33.1320  -23.6280  -16.7730 C.3    18  PHE18       0.0547
     18  CG        32.8080  -22.5280  -17.7670 C.ar   18  PHE18      -0.0202
     19  CD1       33.7440  -22.1440  -18.7310 C.ar   18  PHE18      -0.0042
     20  CD2       31.5310  -21.9710  -17.8080 C.ar   18  PHE18      -0.0042
     21  CE1       33.3990  -21.2300  -19.7260 C.ar   18  PHE18      -0.0003
     22  CE2       31.1820  -21.0630  -18.7920 C.ar   18  PHE18      -0.0003
     23  CZ        32.1030  -20.6890  -19.7550 C.ar   18  PHE18      -0.0000
     24  N         31.7310  -22.3490  -14.3280 N.am   19  TYR19      -0.1976
     25  CA        30.8860  -21.3130  -13.7660 C.3    19  TYR19       0.1639
     26  C         31.3560  -20.8610  -12.3890 C.2    19  TYR19       0.2290
     27  O         30.7300  -20.0130  -11.7790 O.2    19  TYR19      -0.2864
     28  CB        29.4390  -21.7880  -13.6840 C.3    19  TYR19       0.0560
     29  CG        28.7220  -21.7260  -15.0030 C.ar   19  TYR19      -0.0198
     30  CD1       28.4000  -20.5060  -15.5850 C.ar   19  TYR19      -0.0009
     31  CD2       28.3830  -22.8880  -15.6790 C.ar   19  TYR19      -0.0009
     32  CE1       27.7570  -20.4490  -16.8140 C.ar   19  TYR19       0.0417
     33  CE2       27.7420  -22.8440  -16.9100 C.ar   19  TYR19       0.0417
     34  CZ        27.4290  -21.6280  -17.4690 C.ar   19  TYR19       0.1957
     35  OH        26.7500  -21.6190  -18.6600 O.3    19  TYR19      -0.2866
     36  N         33.6560  -15.6080  -16.0530 N.3    24  GLN24      -0.1245
     37  CA        32.5820  -16.1920  -16.8460 C.3    24  GLN24       0.1566
     38  C         31.1930  -15.7290  -16.4090 C.2    24  GLN24       0.2260
     39  O         30.2910  -15.6290  -17.2310 O.2    24  GLN24      -0.2867
     40  CB        32.6500  -17.7240  -16.8120 C.3    24  GLN24       0.0367
     41  CG        33.8040  -18.3070  -17.6280 C.3    24  GLN24       0.0905
     42  CD        33.9000  -17.7300  -19.0310 C.2    24  GLN24       0.2608
     43  OE1       32.9270  -17.2090  -19.5810 O.2    24  GLN24      -0.2717
     44  NE2       35.0720  -17.8280  -19.6200 N.am   24  GLN24      -0.0878
     45  N         31.0140  -12.4320  -17.9640 N.3    27  ASN27      -0.1225
     46  CA        30.6300  -12.4900  -19.3750 C.3    27  ASN27       0.1785
     47  C         29.1210  -12.4260  -19.5740 C.2    27  ASN27       0.2597
     48  O         28.6450  -11.8280  -20.5400 O.2    27  ASN27      -0.2718
     49  CB        31.1650  -13.7540  -20.0450 C.3    27  ASN27       0.1169
     50  CG        32.5940  -13.6200  -20.4710 C.2    27  ASN27       0.2627
     51  OD1       33.0920  -12.5220  -20.6860 O.2    27  ASN27      -0.2716
     52  ND2       33.2740  -14.7450  -20.6030 N.am   27  ASN27      -0.0877
     53  N         28.3590  -13.0310  -18.6730 N.am   28  MET28      -0.1979
     54  CA        26.9110  -12.9980  -18.8190 C.3    28  MET28       0.1605
     55  C         26.3280  -11.6880  -18.2920 C.2    28  MET28       0.2287
     56  O         25.4450  -11.0760  -18.9130 O.2    28  MET28      -0.2864
     57  CB        26.2750  -14.1950  -18.0990 C.3    28  MET28       0.0413
     58  CG        26.6650  -15.5510  -18.7020 C.3    28  MET28       0.0598
     59  SD        26.0860  -16.9960  -17.7330 S.3    28  MET28      -0.1393
     60  CE        27.0830  -16.7810  -16.2520 C.3    28  MET28       0.0692
     61  N         27.7160   -8.7340  -17.9790 N.3    30  GLN30      -0.1245
     62  CA        28.0850   -7.6940  -18.9380 C.3    30  GLN30       0.1566
     63  C         27.2070   -7.6370  -20.1750 C.2    30  GLN30       0.2260
     64  O         27.1600   -6.6120  -20.8390 O.2    30  GLN30      -0.2867
     65  CB        29.4980   -7.9240  -19.4370 C.3    30  GLN30       0.0367
     66  CG        30.5450   -7.0500  -18.8400 C.3    30  GLN30       0.0905
     67  CD        31.9300   -7.5880  -19.1400 C.2    30  GLN30       0.2608
     68  OE1       32.9140   -7.2180  -18.4940 O.2    30  GLN30      -0.2717
     69  NE2       32.0090   -8.4850  -20.1240 N.am   30  GLN30      -0.0878
     70  N         18.0930  -18.1900  -15.8030 N.3   123  GLU123     -0.1231
     71  CA        18.6520  -17.8600  -17.0860 C.3   123  GLU123      0.1684
     72  C         19.5140  -19.0350  -17.4800 C.2   123  GLU123      0.2434
     73  O         20.7460  -19.0050  -17.3760 O.2   123  GLU123     -0.2733
     74  CB        19.4640  -16.5640  -17.0040 C.3   123  GLU123      0.0402
     75  CG        19.6970  -15.9180  -18.3570 C.3   123  GLU123      0.1161
     76  CD        20.6490  -16.7070  -19.2230 C.2   123  GLU123      0.3649
     77  OE1       20.1920  -17.6550  -19.9030 O.co2 123  GLU123     -0.2457
     78  OE2       21.8500  -16.3750  -19.2230 O.co2 123  GLU123     -0.2457
     79  N         18.8600  -20.1040  -17.9400 N.am  124  PRO124     -0.2718
     80  CA        19.4370  -21.4080  -18.2810 C.3   124  PRO124      0.1535
     81  C         19.7790  -21.5800  -19.7460 C.2   124  PRO124      0.2598
     82  O         20.2220  -22.6630  -20.1360 O.2   124  PRO124     -0.2715
     83  CB        18.3400  -22.3750  -17.8910 C.3   124  PRO124      0.0310
     84  CG        17.0790  -21.6090  -18.3080 C.3   124  PRO124      0.0237
     85  CD        17.3950  -20.1120  -18.0960 C.3   124  PRO124      0.0939
     86  N         19.5390  -20.5620  -20.5710 N.am  125  MET125     -0.1964
     87  CA        19.6950  -20.7270  -22.0270 C.3   125  MET125      0.1736
     88  C         21.1460  -20.8690  -22.4840 C.2   125  MET125      0.2617
     89  O         22.0180  -20.1030  -22.0640 O.2   125  MET125     -0.2715
     90  CB        19.0630  -19.5410  -22.7650 C.3   125  MET125      0.0427
     91  CG        17.5700  -19.4510  -22.6090 C.3   125  MET125      0.0599
     92  SD        17.0960  -18.4750  -21.2060 S.3   125  MET125     -0.1393
     93  CE        17.6260  -16.7570  -21.7190 C.3   125  MET125      0.0692
     94  N         21.3940  -21.8440  -23.3550 N.am  126  GLY126     -0.1940
     95  CA        22.7300  -22.0480  -23.8840 C.3   126  GLY126      0.2014
     96  C         22.7880  -21.6820  -25.3500 C.2   126  GLY126      0.2638
     97  O         21.7940  -21.2050  -25.8960 O.2   126  GLY126     -0.2714
     98  N         23.9370  -21.9010  -25.9900 N.am  127  TYR127     -0.1973
     99  CA        24.0480  -21.6920  -27.4190 C.3   127  TYR127      0.1639
    100  C         22.9670  -22.5220  -28.0970 C.2   127  TYR127      0.2290
    101  O         22.7300  -23.6530  -27.6840 O.2   127  TYR127     -0.2864
    102  CB        25.4180  -22.1370  -27.9110 C.3   127  TYR127      0.0560
    103  CG        26.5600  -21.3420  -27.3290 C.ar  127  TYR127     -0.0198
    104  CD1       26.6550  -19.9720  -27.5390 C.ar  127  TYR127     -0.0009
    105  CD2       27.5460  -21.9570  -26.5580 C.ar  127  TYR127     -0.0009
    106  CE1       27.6890  -19.2330  -27.0050 C.ar  127  TYR127      0.0417
    107  CE2       28.5940  -21.2220  -26.0120 C.ar  127  TYR127      0.0417
    108  CZ        28.6560  -19.8620  -26.2400 C.ar  127  TYR127      0.1957
    109  OH        29.6770  -19.1170  -25.7030 O.3   127  TYR127     -0.2866
    110  N         21.9220  -25.9340  -25.6200 N.3   131  ASN131     -0.1225
    111  CA        23.2130  -26.4350  -25.1610 C.3   131  ASN131      0.1785
    112  C         23.3230  -26.2910  -23.6560 C.2   131  ASN131      0.2597
    113  O         22.7420  -25.3650  -23.0710 O.2   131  ASN131     -0.2718
    114  CB        24.3850  -25.7020  -25.7940 C.3   131  ASN131      0.1169
    115  CG        25.7180  -26.4070  -25.5140 C.2   131  ASN131      0.2627
    116  OD1       25.8040  -27.6300  -25.5890 O.2   131  ASN131     -0.2716
    117  ND2       26.7550  -25.6380  -25.1840 N.am  131  ASN131     -0.0877
    118  N         24.0780  -27.2210  -23.0570 N.am  132  GLU132     -0.1979
    119  CA        24.3010  -27.3420  -21.6000 C.3   132  GLU132      0.1602
    120  C         23.2510  -28.1910  -20.8870 C.2   132  GLU132      0.2287
    121  O         23.4830  -28.7060  -19.7830 O.2   132  GLU132     -0.2864
    122  CB        24.3920  -25.9600  -20.9400 C.3   132  GLU132      0.0415
    123  CG        25.5680  -25.1440  -21.4970 C.3   132  GLU132      0.1163
    124  CD        25.7610  -23.8110  -20.7890 C.2   132  GLU132      0.3649
    125  OE1       25.8070  -23.7830  -19.5330 O.co2 132  GLU132     -0.2457
    126  OE2       25.8670  -22.7950  -21.5090 O.co2 132  GLU132     -0.2457
    127  N         20.7500  -27.3300  -19.4370 N.3   134  MET134     -0.1245
    128  CA        20.2470  -26.7100  -18.2300 C.3   134  MET134      0.1570
    129  C         18.7580  -26.4050  -18.2400 C.2   134  MET134      0.2261
    130  O         18.1550  -26.1970  -17.1830 O.2   134  MET134     -0.2867
    131  CB        21.0260  -25.4300  -17.9050 C.3   134  MET134      0.0387
    132  CG        20.6160  -24.8490  -16.5530 C.3   134  MET134      0.0595
    133  SD        21.5550  -23.4140  -16.1000 S.3   134  MET134     -0.1393
    134  CE        20.5280  -22.7870  -14.7350 C.3   134  MET134      0.0692
    135  N         25.7770  -12.2000  -25.7910 N.3   280  HIS280     -0.1226
    136  CA        26.9070  -13.1020  -25.6130 C.3   280  HIS280      0.1752
    137  C         26.6410  -14.4710  -26.2450 C.2   280  HIS280      0.2596
    138  O         27.5460  -15.2780  -26.3650 O.2   280  HIS280     -0.2718
    139  CB        27.2620  -13.2470  -24.1190 C.3   280  HIS280      0.0759
    140  CG        26.3460  -14.1510  -23.3530 C.ar  280  HIS280      0.0818
    141  ND1       25.0800  -13.7720  -22.9580 N.ar  280  HIS280     -0.2268
    142  CD2       26.4890  -15.4400  -22.9630 C.ar  280  HIS280      0.1154
    143  CE1       24.4800  -14.7880  -22.3650 C.ar  280  HIS280      0.1986
    144  NE2       25.3130  -15.8130  -22.3550 N.ar  280  HIS280     -0.2212
    145  N         25.4090  -14.7330  -26.6670 N.am  281  TRP281     -0.1962
    146  CA        25.1170  -15.9810  -27.3660 C.3   281  TRP281      0.1771
    147  C         25.3840  -15.9020  -28.8480 C.2   281  TRP281      0.2619
    148  O         25.3960  -16.9250  -29.5350 O.2   281  TRP281     -0.2715
    149  CB        23.6600  -16.4050  -27.1800 C.3   281  TRP281      0.0590
    150  CG        23.2920  -16.8360  -25.7780 C.ar  281  TRP281      0.0006
    151  CD1       23.5140  -18.0670  -25.2050 C.ar  281  TRP281      0.0946
    152  CD2       22.5580  -16.0720  -24.8100 C.ar  281  TRP281      0.0152
    153  NE1       22.9510  -18.1150  -23.9470 N.ar  281  TRP281     -0.2442
    154  CE2       22.3590  -16.9050  -23.6820 C.ar  281  TRP281      0.0810
    155  CE3       22.0480  -14.7670  -24.7880 C.ar  281  TRP281      0.0012
    156  CZ2       21.6720  -16.4740  -22.5490 C.ar  281  TRP281      0.0191
    157  CZ3       21.3650  -14.3380  -23.6640 C.ar  281  TRP281      0.0001
    158  CH2       21.1800  -15.1910  -22.5580 C.ar  281  TRP281      0.0015
    159  N         25.5800  -14.7020  -29.3630 N.am  282  TYR282     -0.1974
    160  CA        25.7380  -14.5680  -30.8060 C.3   282  TYR282      0.1639
    161  C         24.6320  -15.3340  -31.5480 C.2   282  TYR282      0.2290
    162  O         23.4620  -15.3070  -31.1420 O.2   282  TYR282     -0.2864
    163  CB        27.1040  -15.0950  -31.2250 C.3   282  TYR282      0.0560
    164  CG        28.2440  -14.2370  -30.7360 C.ar  282  TYR282     -0.0198
    165  CD1       28.6910  -14.3290  -29.4330 C.ar  282  TYR282     -0.0009
    166  CD2       28.8410  -13.3050  -31.5680 C.ar  282  TYR282     -0.0009
    167  CE1       29.6940  -13.5120  -28.9640 C.ar  282  TYR282      0.0417
    168  CE2       29.8490  -12.4830  -31.1160 C.ar  282  TYR282      0.0417
    169  CZ        30.2750  -12.5870  -29.8060 C.ar  282  TYR282      0.1957
    170  OH        31.2830  -11.7660  -29.3250 O.3   282  TYR282     -0.2866
    171  N         28.8140  -30.0120  -28.3520 N.3   336  LYS336     -0.1245
    172  CA        29.7280  -29.8740  -27.2330 C.3   336  LYS336      0.1561
    173  C         30.9460  -29.0620  -27.6410 C.2   336  LYS336      0.2260
    174  O         31.5240  -28.3610  -26.8210 O.2   336  LYS336     -0.2867
    175  CB        30.1750  -31.2490  -26.7090 C.3   336  LYS336      0.0271
    176  CG        31.2470  -31.9600  -27.5650 C.3   336  LYS336      0.0035
    177  CD        31.5990  -33.3830  -27.0350 C.3   336  LYS336      0.0206
    178  CE        30.7020  -34.4950  -27.6100 C.3   336  LYS336      0.1093
    179  NZ        30.4620  -35.6390  -26.6590 N.3   336  LYS336     -0.1314
    180  N         31.8830  -26.3390  -30.1180 N.3   338  PRO338     -0.2116
    181  CA        31.6120  -25.2410  -31.0600 C.3   338  PRO338      0.1372
    182  C         32.8850  -24.5940  -31.5890 C.2   338  PRO338      0.2244
    183  O         33.9310  -24.6740  -30.9560 O.2   338  PRO338     -0.2868
    184  CB        30.8060  -24.2420  -30.2320 C.3   338  PRO338      0.0268
    185  CG        30.3550  -24.9960  -28.9990 C.3   338  PRO338      0.0207
    186  CD        31.4230  -26.0140  -28.7570 C.3   338  PRO338      0.0892
    187  N         34.1930  -20.9440  -32.1560 N.3   340  PHE340     -0.1241
    188  CA        33.9500  -19.5310  -31.9070 C.3   340  PHE340      0.1605
    189  C         34.7630  -18.7280  -32.9020 C.2   340  PHE340      0.2264
    190  O         35.9270  -18.4200  -32.6730 O.2   340  PHE340     -0.2867
    191  CB        34.3410  -19.1650  -30.4740 C.3   340  PHE340      0.0534
    192  CG        33.5850  -19.9400  -29.4240 C.ar  340  PHE340     -0.0203
    193  CD1       32.3220  -19.5450  -29.0250 C.ar  340  PHE340     -0.0042
    194  CD2       34.1190  -21.0930  -28.8700 C.ar  340  PHE340     -0.0042
    195  CE1       31.6030  -20.2860  -28.0950 C.ar  340  PHE340     -0.0003
    196  CE2       33.3940  -21.8330  -27.9420 C.ar  340  PHE340     -0.0003
    197  CZ        32.1340  -21.4230  -27.5580 C.ar  340  PHE340     -0.0000
    198  N         34.1160  -15.5860  -33.8030 N.3   342  TYR342     -0.1241
    199  CA        34.2450  -14.1730  -33.4770 C.3   342  TYR342      0.1605
    200  C         35.5770  -13.8840  -32.7930 C.2   342  TYR342      0.2264
    201  O         36.1210  -12.7880  -33.0530 O.2   342  TYR342     -0.2867
    202  CB        33.0800  -13.7080  -32.6050 C.3   342  TYR342      0.0534
    203  CG        33.0110  -14.3760  -31.2530 C.ar  342  TYR342     -0.0201
    204  CD1       33.6640  -13.8290  -30.1570 C.ar  342  TYR342     -0.0009
    205  CD2       32.2740  -15.5390  -31.0620 C.ar  342  TYR342     -0.0009
    206  CE1       33.5830  -14.4120  -28.9170 C.ar  342  TYR342      0.0417
    207  CE2       32.1850  -16.1290  -29.8130 C.ar  342  TYR342      0.0417
    208  CZ        32.8380  -15.5580  -28.7470 C.ar  342  TYR342      0.1957
    209  OH        32.7280  -16.1020  -27.4860 O.3   342  TYR342     -0.2866
@<TRIPOS>BOND
     1   198   199    1
     2   199   200    1
     3   199   202    1
     4   201   200    2
     5   189   190    2
     6   189   188    1
     7   202   203    1
     8   187   188    1
     9   188   191    1
    10   182   181    1
    11   182   183    2
    12   166   168   ar
    13   166   164   ar
    14   161   162    2
    15   161   160    1
    16   203   205   ar
    17   203   204   ar
    18   163   160    1
    19   163   164    1
    20   168   169   ar
    21   205   207   ar
    22   181   184    1
    23   181   180    1
    24   160   159    1
    25   164   165   ar
    26   191   192    1
    27   184   185    1
    28   204   206   ar
    29   180   186    1
    30   207   208   ar
    31   169   170    1
    32   169   167   ar
    33   148   147    2
    34   165   167   ar
    35   192   193   ar
    36   192   194   ar
    37   159   147   am
    38   193   195   ar
    39   185   186    1
    40   206   208   ar
    41   194   196   ar
    42   147   146    1
    43   208   209    1
    44   171   172    1
    45   100   101    2
    46   100    99    1
    47   195   197   ar
    48   196   197   ar
    49   102    99    1
    50   102   103    1
    51   173   172    1
    52   173   174    2
    53   178   177    1
    54   178   179    1
    55   176   177    1
    56   176   175    1
    57   104   103   ar
    58   104   106   ar
    59    99    98    1
    60   146   149    1
    61   146   145    1
    62   103   105   ar
    63   172   175    1
    64   149   150    1
    65   106   108   ar
    66   145   137   am
    67   105   107   ar
    68   138   137    2
    69   137   136    1
    70   108   107   ar
    71   108   109    1
    72    98    96   am
    73    97    96    2
    74   114   115    1
    75   114   111    1
    76   135   136    1
    77   150   151   ar
    78   150   152   ar
    79   110   111    1
    80   136   139    1
    81   116   115    2
    82   115   117   am
    83    96    95    1
    84   151   153   ar
    85   111   112    1
    86   152   155   ar
    87   152   154   ar
    88   155   157   ar
    89   139   140    1
    90   153   154   ar
    91    95    94    1
    92   154   156   ar
    93   157   158   ar
    94   112   113    2
    95   112   118   am
    96    94    88   am
    97   140   142   ar
    98   140   141   ar
    99   118   119    1
   100   142   144   ar
   101   141   143   ar
   102    90    91    1
   103    90    87    1
   104    91    92    1
   105   158   156   ar
   106    88    89    2
   107    88    87    1
   108   143   144   ar
   109    87    86    1
   110    93    92    1
   111   119   122    1
   112   119   120    1
   113   126   124   ar
   114   123   122    1
   115   123   124    1
   116   120   121    2
   117    64    63    2
   118   124   125   ar
   119    51    50    2
   120    52    50   am
   121    86    81   am
   122    48    47    2
   123    50    49    1
   124    63    62    1
   125    82    81    2
   126    69    67   am
   127    49    46    1
   128    77    76   ar
   129    23    21   ar
   130    23    22   ar
   131    81    80    1
   132    21    19   ar
   133    44    42   am
   134    43    42    2
   135    47    46    1
   136    47    53   am
   137    65    62    1
   138    65    66    1
   139   127   128    1
   140    46    45    1
   141    76    78   ar
   142    76    75    1
   143    67    66    1
   144    67    68    2
   145    42    41    1
   146    62    61    1
   147    56    55    2
   148    54    53    1
   149    54    55    1
   150    54    57    1
   151    22    20   ar
   152    19    18   ar
   153    58    57    1
   154    58    59    1
   155    35    34    1
   156    75    74    1
   157    84    85    1
   158    84    83    1
   159    80    79    1
   160    80    83    1
   161   129   128    1
   162   129   130    2
   163   128   131    1
   164     9     7   ar
   165     9    11   ar
   166    85    79    1
   167    79    72   am
   168   131   132    1
   169     7     6   ar
   170    20    18   ar
   171    18    17    1
   172    59    60    1
   173    41    40    1
   174    72    73    2
   175    72    71    1
   176    34    33   ar
   177    34    32   ar
   178    12    11    1
   179    39    38    2
   180    11    10   ar
   181    71    74    1
   182    71    70    1
   183    33    31   ar
   184    37    40    1
   185    37    38    1
   186    37    36    1
   187    32    30   ar
   188    17    14    1
   189     6     5    1
   190     6     8   ar
   191   132   133    1
   192     5     2    1
   193     2     1    1
   194     2     3    1
   195   133   134    1
   196    10     8   ar
   197    31    29   ar
   198    30    29   ar
   199    14    15    1
   200    14    13    1
   201     4     3    2
   202    29    28    1
   203    16    15    2
   204    15    24   am
   205    24    25    1
   206    25    28    1
   207    25    26    1
   208    26    27    2
