@<TRIPOS>MOLECULE
tmp/2y24A00.pdb
 178 180 0 0 0
SMALL
GASTEIGER

@<TRIPOS>ATOM
      1  N         38.2620  -42.6600  -17.8470 N.3    24  GLY24      -0.1210
      2  CA        39.6820  -42.7900  -17.6660 C.3    24  GLY24       0.1956
      3  C         39.9770  -42.8570  -16.1850 C.2    24  GLY24       0.2611
      4  O         40.9470  -43.5190  -15.8070 O.2    24  GLY24      -0.2717
      5  N         39.2290  -42.1100  -15.3630 N.am   25  TRP25      -0.1976
      6  CA        39.3460  -42.1830  -13.9090 C.3    25  TRP25       0.1640
      7  C         38.1750  -42.9130  -13.2570 C.2    25  TRP25       0.2290
      8  O         38.3220  -43.5940  -12.2270 O.2    25  TRP25      -0.2864
      9  CB        39.5370  -40.7720  -13.2760 C.3    25  TRP25       0.0576
     10  CG        40.9640  -40.2650  -13.3460 C.ar   25  TRP25       0.0006
     11  CD1       42.0420  -40.8700  -13.9040 C.ar   25  TRP25       0.0946
     12  CD2       41.4140  -38.9750  -12.9490 C.ar   25  TRP25       0.0152
     13  NE1       43.1430  -40.0930  -13.7990 N.ar   25  TRP25      -0.2442
     14  CE2       42.8030  -38.9220  -13.1800 C.ar   25  TRP25       0.0810
     15  CE3       40.7830  -37.8820  -12.3130 C.ar   25  TRP25       0.0012
     16  CZ2       43.5650  -37.7940  -12.8630 C.ar   25  TRP25       0.0191
     17  CZ3       41.5310  -36.7630  -12.0300 C.ar   25  TRP25       0.0001
     18  CH2       42.9120  -36.7390  -12.3020 C.ar   25  TRP25       0.0015
     19  N         46.1700  -32.0540  -16.0330 N.3    83  TRP83      -0.1241
     20  CA        46.6340  -32.1370  -14.6710 C.3    83  TRP83       0.1605
     21  C         48.1900  -32.1740  -14.5840 C.2    83  TRP83       0.2264
     22  O         48.7510  -31.6270  -13.6580 O.2    83  TRP83      -0.2867
     23  CB        46.0590  -33.3440  -13.9120 C.3    83  TRP83       0.0550
     24  CG        44.6690  -33.1460  -13.2410 C.ar   83  TRP83       0.0003
     25  CD1       44.4170  -33.3570  -11.9410 C.ar   83  TRP83       0.0946
     26  CD2       43.3700  -32.8620  -13.8470 C.ar   83  TRP83       0.0152
     27  NE1       43.0900  -33.1700  -11.6480 N.ar   83  TRP83      -0.2442
     28  CE2       42.4220  -32.8790  -12.8070 C.ar   83  TRP83       0.0810
     29  CE3       42.9200  -32.6360  -15.1410 C.ar   83  TRP83       0.0012
     30  CZ2       41.0400  -32.6230  -13.0130 C.ar   83  TRP83       0.0191
     31  CZ3       41.5260  -32.4120  -15.3420 C.ar   83  TRP83       0.0001
     32  CH2       40.6380  -32.3630  -14.2910 C.ar   83  TRP83       0.0015
     33  N         45.7230  -27.5550  -14.3830 N.3   134  ASN134     -0.1225
     34  CA        44.8840  -27.7130  -13.1970 C.3   134  ASN134      0.1785
     35  C         45.5850  -27.3120  -11.9300 C.2   134  ASN134      0.2597
     36  O         46.6250  -27.9170  -11.5670 O.2   134  ASN134     -0.2718
     37  CB        44.3860  -29.1800  -13.0790 C.3   134  ASN134      0.1169
     38  CG        43.2950  -29.3360  -12.0610 C.2   134  ASN134      0.2627
     39  OD1       42.2190  -28.6690  -12.1930 O.2   134  ASN134     -0.2716
     40  ND2       43.5570  -30.1050  -10.9910 N.am  134  ASN134     -0.0877
     41  N         45.0290  -26.4270  -11.1230 N.am  135  GLU135     -0.1979
     42  CA        45.5050  -26.1810   -9.7560 C.3   135  GLU135      0.1602
     43  C         47.0680  -26.1120   -9.6180 C.2   135  GLU135      0.2287
     44  O         47.6660  -26.8930   -8.8800 O.2   135  GLU135     -0.2864
     45  CB        44.9220  -27.1820   -8.7770 C.3   135  GLU135      0.0415
     46  CG        43.3720  -27.1510   -8.7380 C.3   135  GLU135      0.1163
     47  CD        42.7780  -27.8180   -7.5790 C.2   135  GLU135      0.3649
     48  OE1       43.4230  -28.5200   -6.7910 O.co2 135  GLU135     -0.2457
     49  OE2       41.5010  -27.6310   -7.4090 O.co2 135  GLU135     -0.2457
     50  N         48.6750  -26.4700   -6.1050 N.3   138  TRP138     -0.1241
     51  CA        48.4370  -27.7050   -5.3400 C.3   138  TRP138      0.1605
     52  C         49.3740  -28.8420   -5.8550 C.2   138  TRP138      0.2264
     53  O         49.4380  -29.0980   -7.0480 O.2   138  TRP138     -0.2867
     54  CB        46.9500  -28.0710   -5.4150 C.3   138  TRP138      0.0550
     55  CG        46.4930  -29.0140   -4.3050 C.ar  138  TRP138      0.0003
     56  CD1       45.9030  -30.2140   -4.4630 C.ar  138  TRP138      0.0946
     57  CD2       46.5290  -28.7710   -2.8900 C.ar  138  TRP138      0.0152
     58  NE1       45.5770  -30.7390   -3.2560 N.ar  138  TRP138     -0.2442
     59  CE2       45.9760  -29.8900   -2.2560 C.ar  138  TRP138      0.0810
     60  CE3       46.9580  -27.6990   -2.1040 C.ar  138  TRP138      0.0012
     61  CZ2       45.8290  -29.9670   -0.8900 C.ar  138  TRP138      0.0191
     62  CZ3       46.7750  -27.7600   -0.7750 C.ar  138  TRP138      0.0001
     63  CH2       46.2300  -28.8860   -0.1490 C.ar  138  TRP138      0.0015
     64  N         48.6210  -37.2080   -6.7960 N.3   142  TYR142     -0.1227
     65  CA        48.0960  -37.5760   -8.0600 C.3   142  TYR142      0.1736
     66  C         48.5550  -36.5540   -9.1250 C.2   142  TYR142      0.2598
     67  O         49.3140  -35.6420   -8.7840 O.2   142  TYR142     -0.2717
     68  CB        46.5300  -37.7500   -8.0510 C.3   142  TYR142      0.0548
     69  CG        45.7840  -36.5430   -7.5830 C.ar  142  TYR142     -0.0200
     70  CD1       45.5200  -35.4900   -8.4370 C.ar  142  TYR142     -0.0009
     71  CD2       45.3230  -36.4660   -6.2860 C.ar  142  TYR142     -0.0009
     72  CE1       44.8620  -34.3490   -7.9970 C.ar  142  TYR142      0.0417
     73  CE2       44.6420  -35.3190   -5.8100 C.ar  142  TYR142      0.0417
     74  CZ        44.3910  -34.2480   -6.6710 C.ar  142  TYR142      0.1957
     75  OH        43.8060  -33.0740   -6.1230 O.3   142  TYR142     -0.2866
     76  N         48.1300  -36.7130  -10.3870 N.am  143  GLU143     -0.1934
     77  CA        48.6500  -35.8740  -11.4810 C.3   143  GLU143      0.1818
     78  C         48.5620  -34.3950  -11.1110 C.2   143  GLU143      0.2332
     79  O         47.4880  -33.8950  -10.7540 O.2   143  GLU143     -0.2860
     80  CB        47.9020  -36.1070  -12.8190 C.2   143  GLU143      0.0097
     81  CG        48.0550  -37.4520  -13.5110 C.2   143  GLU143      0.0837
     82  CD        47.2660  -37.6140  -14.7400 C.2   143  GLU143      0.3877
     83  OE1       46.5110  -36.7100  -15.1480 O.co2 143  GLU143     -0.2406
     84  OE2       47.2490  -38.7710  -15.2720 O.co2 143  GLU143     -0.2406
     85  N         37.7270  -24.4660   -3.8570 N.3   202  TYR202     -0.1241
     86  CA        38.0750  -25.2820   -2.7030 C.3   202  TYR202      0.1605
     87  C         38.5720  -24.4130   -1.5290 C.2   202  TYR202      0.2264
     88  O         39.4720  -23.5760   -1.7000 O.2   202  TYR202     -0.2867
     89  CB        39.0630  -26.3980   -3.1170 C.3   202  TYR202      0.0534
     90  CG        38.4160  -27.3230   -4.1140 C.ar  202  TYR202     -0.0201
     91  CD1       37.5030  -28.2620   -3.6970 C.ar  202  TYR202     -0.0009
     92  CD2       38.7310  -27.2900   -5.4650 C.ar  202  TYR202     -0.0009
     93  CE1       36.8140  -29.0730   -4.6020 C.ar  202  TYR202      0.0417
     94  CE2       38.1100  -28.1130   -6.3720 C.ar  202  TYR202      0.0417
     95  CZ        37.1010  -28.9990   -5.9470 C.ar  202  TYR202      0.1957
     96  OH        36.4350  -29.8440   -6.8200 O.3   202  TYR202     -0.2866
     97  N         35.7150  -25.8670  -11.6460 N.3   223  GLU223     -0.1245
     98  CA        35.5580  -27.1080  -10.8650 C.3   223  GLU223      0.1567
     99  C         35.2070  -26.8240   -9.4290 C.2   223  GLU223      0.2260
    100  O         35.9190  -26.1430   -8.6980 O.2   223  GLU223     -0.2867
    101  CB        36.8680  -27.9540  -10.8600 C.3   223  GLU223      0.0388
    102  CG        36.6170  -29.3760  -10.3440 C.3   223  GLU223      0.1160
    103  CD        37.8730  -30.1240   -9.9750 C.2   223  GLU223      0.3649
    104  OE1       38.8160  -30.2490  -10.7930 O.co2 223  GLU223     -0.2457
    105  OE2       37.9300  -30.5940   -8.7960 O.co2 223  GLU223     -0.2457
    106  N         32.6900  -29.0890   -6.1000 N.3   225  TYR225     -0.1241
    107  CA        31.5460  -29.8730   -5.5660 C.3   225  TYR225      0.1605
    108  C         31.4280  -29.4890   -4.0970 C.2   225  TYR225      0.2264
    109  O         32.3960  -28.9640   -3.4920 O.2   225  TYR225     -0.2867
    110  CB        31.7740  -31.4090   -5.7110 C.3   225  TYR225      0.0534
    111  CG        33.0420  -31.9240   -5.0410 C.ar  225  TYR225     -0.0201
    112  CD1       33.0200  -32.3330   -3.7480 C.ar  225  TYR225     -0.0009
    113  CD2       34.2560  -31.9810   -5.7320 C.ar  225  TYR225     -0.0009
    114  CE1       34.1660  -32.8000   -3.0810 C.ar  225  TYR225      0.0417
    115  CE2       35.3770  -32.4820   -5.1170 C.ar  225  TYR225      0.0417
    116  CZ        35.3650  -32.8480   -3.8010 C.ar  225  TYR225      0.1957
    117  OH        36.5240  -33.2190   -3.1960 O.3   225  TYR225     -0.2866
    118  N         31.2210  -34.1660   -0.3410 N.3   228  SER228     -0.1217
    119  CA        31.1380  -35.3900   -1.1150 C.3   228  SER228      0.1889
    120  C         30.6740  -36.6000   -0.2680 C.2   228  SER228      0.2288
    121  O         30.4460  -37.6650   -0.8580 O.2   228  SER228     -0.2866
    122  CB        32.4490  -35.7230   -1.8460 C.3   228  SER228      0.2089
    123  OG        33.4900  -35.7940   -0.9110 O.3   228  SER228     -0.2183
    124  N         32.1510  -30.7970  -10.6820 N.3   259  TRP259     -0.1227
    125  CA        33.0060  -32.0310  -10.8220 C.3   259  TRP259      0.1737
    126  C         32.1980  -33.1460  -11.4850 C.2   259  TRP259      0.2595
    127  O         31.3140  -32.8470  -12.3330 O.2   259  TRP259     -0.2718
    128  CB        33.6310  -32.3380   -9.4550 C.3   259  TRP259      0.0564
    129  CG        34.6360  -33.4630   -9.4110 C.ar  259  TRP259      0.0003
    130  CD1       34.6370  -34.4560   -8.4660 C.ar  259  TRP259      0.0946
    131  CD2       35.8260  -33.6590  -10.2070 C.ar  259  TRP259      0.0152
    132  NE1       35.6970  -35.3050   -8.6630 N.ar  259  TRP259     -0.2442
    133  CE2       36.4570  -34.8290   -9.7130 C.ar  259  TRP259      0.0810
    134  CE3       36.3630  -33.0170  -11.3170 C.ar  259  TRP259      0.0012
    135  CZ2       37.6420  -35.3330  -10.2900 C.ar  259  TRP259      0.0191
    136  CZ3       37.5160  -33.5040  -11.8530 C.ar  259  TRP259      0.0001
    137  CH2       38.1470  -34.6700  -11.3490 C.ar  259  TRP259      0.0015
    138  N         32.4860  -34.4140  -11.2020 N.am  260  TYR260     -0.1976
    139  CA        31.8890  -35.5240  -11.9490 C.3   260  TYR260      0.1639
    140  C         30.3690  -35.3640  -12.0720 C.2   260  TYR260      0.2290
    141  O         29.6700  -35.2510  -11.0450 O.2   260  TYR260     -0.2864
    142  CB        32.1720  -36.8770  -11.2810 C.3   260  TYR260      0.0560
    143  CG        33.6470  -37.3010  -11.1430 C.ar  260  TYR260     -0.0198
    144  CD1       34.5410  -37.1580  -12.2300 C.ar  260  TYR260     -0.0009
    145  CD2       34.0420  -37.9710   -9.9940 C.ar  260  TYR260     -0.0009
    146  CE1       35.8460  -37.6910  -12.1530 C.ar  260  TYR260      0.0417
    147  CE2       35.3500  -38.4750   -9.9080 C.ar  260  TYR260      0.0417
    148  CZ        36.2420  -38.3020  -10.9690 C.ar  260  TYR260      0.1957
    149  OH        37.5490  -38.8350  -10.9460 O.3   260  TYR260     -0.2866
    150  N         27.7210  -39.3450  -10.0140 N.3   263  ARG263     -0.1231
    151  CA        28.4090  -39.7970   -8.8000 C.3   263  ARG263      0.1694
    152  C         27.4500  -39.7930   -7.6500 C.2   263  ARG263      0.2593
    153  O         26.3770  -39.1890   -7.7370 O.2   263  ARG263     -0.2718
    154  CB        29.6180  -38.8280   -8.4580 C.3   263  ARG263      0.0321
    155  CG        30.8760  -39.5390   -7.8940 C.3   263  ARG263      0.0489
    156  CD        31.5280  -40.4620   -8.8750 C.3   263  ARG263      0.2205
    157  NE        32.7710  -41.0190   -8.2890 N.pl3 263  ARG263     -0.0865
    158  CZ        33.2960  -42.2160   -8.5940 C.cat 263  ARG263      0.5346
    159  NH1       32.7330  -42.9840   -9.4950 N.pl3 263  ARG263      0.1354
    160  NH2       34.3650  -42.6450   -7.9760 N.pl3 263  ARG263      0.1354
    161  N         27.7760  -40.4600   -6.5510 N.am  264  SER264     -0.1938
    162  CA        26.8480  -40.5090   -5.4200 C.3   264  SER264      0.2055
    163  C         26.5010  -39.1520   -4.9160 C.2   264  SER264      0.2643
    164  O         25.3900  -38.9420   -4.3760 O.2   264  SER264     -0.2714
    165  CB        27.4230  -41.3450   -4.2560 C.3   264  SER264      0.2130
    166  OG        28.6180  -40.7750   -3.7280 O.3   264  SER264     -0.2179
    167  N         27.4330  -38.2000   -5.0800 N.am  265  TYR265     -0.1973
    168  CA        27.2720  -36.8090   -4.6420 C.3   265  TYR265      0.1639
    169  C         27.1530  -35.8420   -5.8470 C.2   265  TYR265      0.2290
    170  O         27.2610  -34.5980   -5.7120 O.2   265  TYR265     -0.2864
    171  CB        28.4590  -36.4060   -3.7130 C.3   265  TYR265      0.0560
    172  CG        29.8360  -36.4410   -4.4080 C.ar  265  TYR265     -0.0198
    173  CD1       30.5500  -37.6390   -4.5080 C.ar  265  TYR265     -0.0009
    174  CD2       30.4290  -35.2760   -4.9700 C.ar  265  TYR265     -0.0009
    175  CE1       31.8350  -37.7050   -5.1200 C.ar  265  TYR265      0.0417
    176  CE2       31.7420  -35.3450   -5.5850 C.ar  265  TYR265      0.0417
    177  CZ        32.3750  -36.5710   -5.6820 C.ar  265  TYR265      0.1957
    178  OH        33.6160  -36.6590   -6.2840 O.3   265  TYR265     -0.2866
@<TRIPOS>BOND
     1     1     2    1
     2     2     3    1
     3     3     4    2
     4     3     5   am
     5    19    20    1
     6     5     6    1
     7    31    29   ar
     8    31    32   ar
     9    84    82   ar
    10    83    82   ar
    11    29    26   ar
    12    82    81    1
    13    20    21    1
    14    20    23    1
    15    21    22    2
    16    33    34    1
    17    32    30   ar
    18    23    24    1
    19     6     9    1
    20     6     7    1
    21    11    13   ar
    22    11    10   ar
    23    26    24   ar
    24    26    28   ar
    25    13    14   ar
    26    81    80    2
    27    10     9    1
    28    10    12   ar
    29     7     8    2
    30    24    25   ar
    31    34    37    1
    32    34    35    1
    33    14    12   ar
    34    14    16   ar
    35    37    38    1
    36    30    28   ar
    37    12    15   ar
    38    16    18   ar
    39    80    77    1
    40    28    27   ar
    41   127   126    2
    42    15    17   ar
    43    18    17   ar
    44   144   146   ar
    45   144   143   ar
    46    39    38    2
    47   146   148   ar
    48   140   139    1
    49   140   141    2
    50    38    40   am
    51   139   142    1
    52   139   138    1
    53    25    27   ar
    54    35    36    2
    55    35    41   am
    56   136   137   ar
    57   136   134   ar
    58    97    98    1
    59   126   138   am
    60   126   125    1
    61    77    78    1
    62    77    76    1
    63   137   135   ar
    64   134   131   ar
    65   142   143    1
    66   143   145   ar
    67    41    42    1
    68    78    79    2
    69   148   149    1
    70   148   147   ar
    71    98   101    1
    72    98    99    1
    73   101   102    1
    74   125   124    1
    75   125   128    1
    76   104   103   ar
    77    76    66   am
    78   102   103    1
    79   135   133   ar
    80   131   133   ar
    81   131   129   ar
    82   150   151    1
    83   145   147   ar
    84   103   105   ar
    85    42    43    1
    86    42    45    1
    87   133   132   ar
    88    43    44    2
    89   159   158    1
    90   128   129    1
    91    99   100    2
    92   129   130   ar
    93    66    67    2
    94    66    65    1
    95   156   157    1
    96   156   155    1
    97   151   154    1
    98   151   152    1
    99    45    46    1
   100    46    47    1
   101   132   130   ar
   102   158   157    2
   103   158   160    1
   104   154   155    1
   105    70    72   ar
   106    70    69   ar
   107    65    68    1
   108    65    64    1
   109    68    69    1
   110    72    74   ar
   111   153   152    2
   112   152   161   am
   113    69    71   ar
   114    47    49   ar
   115    47    48   ar
   116    53    52    2
   117    96    95    1
   118    74    75    1
   119    74    73   ar
   120   161   162    1
   121    94    95   ar
   122    94    92   ar
   123    71    73   ar
   124   178   177    1
   125    50    51    1
   126   106   107    1
   127    95    93   ar
   128    52    51    1
   129   169   170    2
   130   169   168    1
   131   113   115   ar
   132   113   111   ar
   133   110   107    1
   134   110   111    1
   135   177   176   ar
   136   177   175   ar
   137   176   174   ar
   138   107   108    1
   139    92    90   ar
   140   162   163    1
   141   162   165    1
   142    54    51    1
   143    54    55    1
   144   175   173   ar
   145   115   116   ar
   146   167   163   am
   147   167   168    1
   148   111   112   ar
   149   174   172   ar
   150   163   164    2
   151   168   171    1
   152    93    91   ar
   153   173   172   ar
   154    56    55   ar
   155    56    58   ar
   156   172   171    1
   157    55    57   ar
   158   165   166    1
   159    90    91   ar
   160    90    89    1
   161   108   109    2
   162    85    86    1
   163   116   117    1
   164   116   114   ar
   165   112   114   ar
   166    58    59   ar
   167    89    86    1
   168    57    59   ar
   169    57    60   ar
   170    86    87    1
   171    59    61   ar
   172    60    62   ar
   173   122   119    1
   174   122   123    1
   175    88    87    2
   176   119   118    1
   177   119   120    1
   178    61    63   ar
   179   121   120    2
   180    62    63   ar
