@<TRIPOS>MOLECULE
tmp/2y27A00.pdb
 98 96 0 0 0
SMALL
GASTEIGER

@<TRIPOS>ATOM
      1  N         -0.7890    8.6460   13.3450 N.3    40  GLU40      -0.1231
      2  CA        -1.5510    7.8860   12.3600 C.3    40  GLU40       0.1699
      3  C         -1.2120    8.2360   10.9020 C.2    40  GLU40       0.2592
      4  O         -1.5580    7.4760    9.9920 O.2    40  GLU40      -0.2718
      5  CB        -3.0460    8.0220   12.6340 C.3    40  GLU40       0.0402
      6  CG        -3.4640    7.3920   13.9540 C.3    40  GLU40       0.1161
      7  CD        -4.9640    7.4430   14.2130 C.2    40  GLU40       0.3649
      8  OE1       -5.6530    8.2920   13.6190 O.co2  40  GLU40      -0.2457
      9  OE2       -5.4290    6.6940   15.0970 O.co2  40  GLU40      -0.2457
     10  N         -0.4080    9.2790   10.6900 N.am   41  ALA41      -0.1980
     11  CA         0.0770    9.6280    9.3550 C.3    41  ALA41       0.1597
     12  C          1.5220    9.1640    9.1570 C.2    41  ALA41       0.2287
     13  O          2.0900    9.3150    8.0730 O.2    41  ALA41      -0.2864
     14  CB        -0.0470   11.1380    9.0980 C.3    41  ALA41       0.0319
     15  N          4.2920   10.5820   10.6280 N.3    43  VAL43      -0.1245
     16  CA         5.2560   11.6810   10.6510 C.3    43  VAL43       0.1561
     17  C          5.5230   12.1890   12.0670 C.2    43  VAL43       0.2260
     18  O          4.6770   12.0760   12.9450 O.2    43  VAL43      -0.2867
     19  CB         4.7700   12.8810    9.8170 C.3    43  VAL43       0.0252
     20  CG1        4.6840   12.5100    8.3490 C.3    43  VAL43       0.0019
     21  CG2        3.4200   13.3720   10.3460 C.3    43  VAL43       0.0019
     22  N          4.6600   19.2520    3.2180 N.3    55  SER55      -0.1202
     23  CA         3.7240   18.4150    2.4780 C.3    55  SER55       0.2020
     24  C          3.7120   16.9640    2.9650 C.2    55  SER55       0.2619
     25  O          2.7970   16.2070    2.6500 O.2    55  SER55      -0.2717
     26  CB         4.0030   18.4810    0.9750 C.3    55  SER55       0.2103
     27  OG         5.2490   17.8800    0.6740 O.3    55  SER55      -0.2182
     28  N          4.6940   16.5830    3.7750 N.am   56  ARG56      -0.1965
     29  CA         4.6250   15.2750    4.4130 C.3    56  ARG56       0.1729
     30  C          3.4630   15.1420    5.3900 C.2    56  ARG56       0.2616
     31  O          2.8260   14.0820    5.4650 O.2    56  ARG56      -0.2715
     32  CB         5.9400   14.9250    5.0970 C.3    56  ARG56       0.0348
     33  CG         7.1110   14.8550    4.1330 C.3    56  ARG56       0.0492
     34  CD         8.3980   14.6850    4.8980 C.3    56  ARG56       0.2205
     35  NE         9.5640   14.7310    4.0310 N.pl3  56  ARG56      -0.0865
     36  CZ        10.7610   14.2760    4.3840 C.cat  56  ARG56       0.5346
     37  NH1       10.9360   13.7320    5.5850 N.pl3  56  ARG56       0.1354
     38  NH2       11.7910   14.3860    3.5510 N.pl3  56  ARG56       0.1354
     39  N          3.0660   16.2650    6.0000 N.am   57  PHE57      -0.1960
     40  CA         2.2020   16.2140    7.1640 C.3    57  PHE57       0.1756
     41  C          0.7460   16.1450    6.7430 C.2    57  PHE57       0.2461
     42  O          0.3790   16.6110    5.6690 O.2    57  PHE57      -0.2730
     43  CB         2.4320   17.4210    8.0840 C.3    57  PHE57       0.0574
     44  CG         3.7670   17.4030    8.7760 C.ar   57  PHE57      -0.0200
     45  CD1        4.9250   17.6750    8.0680 C.ar   57  PHE57      -0.0042
     46  CD2        3.8670   17.0680   10.1210 C.ar   57  PHE57      -0.0042
     47  CE1        6.1700   17.5740    8.6770 C.ar   57  PHE57      -0.0003
     48  CE2        5.1250   16.9130   10.7290 C.ar   57  PHE57      -0.0003
     49  CZ         6.2640   17.2100   10.0170 C.ar   57  PHE57      -0.0000
     50  N         -0.0790   15.4930    7.5650 N.am   58  PRO58      -0.2716
     51  CA        -1.4770   15.3620    7.1930 C.3    58  PRO58       0.1536
     52  C         -2.1970   16.7050    7.2020 C.2    58  PRO58       0.2598
     53  O         -1.7650   17.6420    7.8700 O.2    58  PRO58      -0.2715
     54  CB        -2.0390   14.4450    8.2820 C.3    58  PRO58       0.0310
     55  CG        -1.1510   14.6710    9.4620 C.3    58  PRO58       0.0237
     56  CD         0.2190   14.8900    8.8750 C.3    58  PRO58       0.0939
     57  N         -3.3570   16.7370    6.5540 N.am   59  PHE59      -0.1974
     58  CA        -4.2510   17.9000    6.5810 C.3    59  PHE59       0.1639
     59  C         -5.1370   17.8950    7.8240 C.2    59  PHE59       0.2290
     60  O         -5.4480   16.8360    8.3790 O.2    59  PHE59      -0.2864
     61  CB        -5.1430   17.8790    5.3350 C.3    59  PHE59       0.0560
     62  CG        -4.3990   18.1150    4.0460 C.ar   59  PHE59      -0.0200
     63  CD1       -3.7680   19.3210    3.8020 C.ar   59  PHE59      -0.0042
     64  CD2       -4.3300   17.1180    3.0770 C.ar   59  PHE59      -0.0042
     65  CE1       -3.1300   19.5620    2.6020 C.ar   59  PHE59      -0.0003
     66  CE2       -3.6100   17.3150    1.9020 C.ar   59  PHE59      -0.0003
     67  CZ        -2.9940   18.5390    1.6630 C.ar   59  PHE59      -0.0000
     68  N         -6.9540   15.8440   -5.0180 N.3   262  THR262     -0.1203
     69  CA        -5.8570   14.9180   -4.7820 C.3   262  THR262      0.1994
     70  C         -5.0570   15.2460   -3.5230 C.2   262  THR262      0.2618
     71  O         -4.2980   14.4120   -3.0270 O.2   262  THR262     -0.2717
     72  CB        -4.8880   14.8780   -5.9740 C.3   262  THR262      0.1784
     73  OG1       -4.1570   16.1070   -6.0390 O.3   262  THR262     -0.2211
     74  CG2       -5.6520   14.6440   -7.2840 C.3   262  THR262      0.0376
     75  N         -5.1060   16.5060   -3.1060 N.am  263  GLY263     -0.1942
     76  CA        -4.3340   16.9510   -1.9610 C.3   263  GLY263      0.2014
     77  C         -2.8860   17.2510   -2.2990 C.2   263  GLY263      0.2638
     78  O         -2.0810   17.4870   -1.4020 O.2   263  GLY263     -0.2714
     79  N         -2.5360   17.2000   -3.5860 N.am  264  GLU264     -0.1977
     80  CA        -1.1830   17.5540   -4.0180 C.3   264  GLU264      0.1602
     81  C         -0.9830   19.0630   -4.0320 C.2   264  GLU264      0.2287
     82  O         -1.8830   19.8090   -4.3990 O.2   264  GLU264     -0.2864
     83  CB        -0.8740   16.9820   -5.4070 C.3   264  GLU264      0.0415
     84  CG        -0.9400   15.4460   -5.5010 C.3   264  GLU264      0.1163
     85  CD        -0.1380   14.7360   -4.4200 C.2   264  GLU264      0.3649
     86  OE1        1.0480   15.0790   -4.2260 O.co2 264  GLU264     -0.2457
     87  OE2       -0.6720   13.7800   -3.8160 O.co2 264  GLU264     -0.2457
     88  N         -1.7300   22.6090    8.5520 N.3   288  ARG288     -0.1245
     89  CA        -2.2630   22.3500    7.2000 C.3   288  ARG288      0.1563
     90  C         -3.7740   22.2870    7.1530 C.2   288  ARG288      0.2260
     91  O         -4.3480   21.2940    6.7070 O.2   288  ARG288     -0.2867
     92  CB        -1.6640   21.0900    6.5640 C.3   288  ARG288      0.0307
     93  CG        -0.1350   21.1050    6.5280 C.3   288  ARG288      0.0489
     94  CD         0.3600   20.0090    5.5940 C.3   288  ARG288      0.2205
     95  NE         0.3420   20.4390    4.2020 N.pl3 288  ARG288     -0.0865
     96  CZ         0.3020   19.6190    3.1550 C.cat 288  ARG288      0.5346
     97  NH1        0.1860   18.3080    3.3300 N.pl3 288  ARG288      0.1354
     98  NH2        0.3800   20.1080    1.9220 N.pl3 288  ARG288      0.1354
@<TRIPOS>BOND
     1    74    72    1
     2    73    72    1
     3    72    69    1
     4    84    83    1
     5    84    85    1
     6    83    80    1
     7    68    69    1
     8    69    70    1
     9    85    86   ar
    10    85    87   ar
    11    82    81    2
    12    81    80    1
    13    80    79    1
    14    79    77   am
    15    70    75   am
    16    70    71    2
    17    75    76    1
    18    77    76    1
    19    77    78    2
    20    27    26    1
    21    26    23    1
    22    67    66   ar
    23    67    65   ar
    24    66    64   ar
    25    98    96    1
    26    23    24    1
    27    23    22    1
    28    65    63   ar
    29    25    24    2
    30    24    28   am
    31    64    62   ar
    32    96    97    1
    33    96    95    2
    34    38    36    1
    35    28    29    1
    36    63    62   ar
    37    35    36    2
    38    35    34    1
    39    62    61    1
    40    33    34    1
    41    33    32    1
    42    95    94    1
    43    36    37    1
    44    29    32    1
    45    29    30    1
    46    61    58    1
    47    30    31    2
    48    30    39   am
    49    94    93    1
    50    42    41    2
    51    39    40    1
    52    93    92    1
    53    57    58    1
    54    57    52   am
    55    92    89    1
    56    58    59    1
    57    91    90    2
    58    41    40    1
    59    41    50   am
    60    90    89    1
    61    40    43    1
    62    51    52    1
    63    51    50    1
    64    51    54    1
    65    89    88    1
    66    52    53    2
    67    50    56    1
    68    59    60    2
    69    45    47   ar
    70    45    44   ar
    71    13    12    2
    72    43    44    1
    73    54    55    1
    74    20    19    1
    75    47    49   ar
    76    44    46   ar
    77    56    55    1
    78    14    11    1
    79    12    11    1
    80    11    10    1
    81    19    21    1
    82    19    16    1
    83     4     3    2
    84    49    48   ar
    85    46    48   ar
    86    15    16    1
    87    16    17    1
    88    10     3   am
    89     3     2    1
    90    17    18    2
    91     2     5    1
    92     2     1    1
    93     5     6    1
    94     8     7   ar
    95     6     7    1
    96     7     9   ar
