@<TRIPOS>MOLECULE
tmp/2y2bA00.pdb
 166 160 0 0 0
SMALL
GASTEIGER

@<TRIPOS>ATOM
      1  N        -35.6720   17.3480    5.2940 N.3    34  HIS34      -0.1226
      2  CA       -36.9020   18.0540    4.9540 C.3    34  HIS34       0.1752
      3  C        -38.0480   17.0480    4.8560 C.2    34  HIS34       0.2596
      4  O        -37.8240   15.8330    4.8240 O.2    34  HIS34      -0.2718
      5  CB       -36.7960   18.7060    3.5600 C.3    34  HIS34       0.0759
      6  CG       -35.7800   19.8030    3.4530 C.ar   34  HIS34       0.0818
      7  ND1      -36.1130   21.1390    3.5380 N.ar   34  HIS34      -0.2268
      8  CD2      -34.4460   19.7620    3.2140 C.ar   34  HIS34       0.1154
      9  CE1      -35.0230   21.8730    3.3900 C.ar   34  HIS34       0.1986
     10  NE2      -33.9980   21.0620    3.1910 N.ar   34  HIS34      -0.2212
     11  N        -39.2760   17.5530    4.7850 N.am   35  ASN35      -0.1960
     12  CA       -40.3530   16.7630    4.2050 C.3    35  ASN35       0.1819
     13  C        -41.0840   17.5650    3.1380 C.2    35  ASN35       0.2621
     14  O        -40.9870   18.7950    3.0840 O.2    35  ASN35      -0.2715
     15  CB       -41.3150   16.1680    5.2540 C.3    35  ASN35       0.1195
     16  CG       -42.2000   17.2180    5.9420 C.2    35  ASN35       0.2630
     17  OD1      -42.5900   18.2300    5.3490 O.2    35  ASN35      -0.2716
     18  ND2      -42.5440   16.9480    7.2000 N.am   35  ASN35      -0.0877
     19  N        -41.7850   16.8620    2.2640 N.am   36  ILE36      -0.1963
     20  CA       -42.5600   17.5170    1.2350 C.3    36  ILE36       0.1727
     21  C        -43.7150   16.6160    0.8360 C.2    36  ILE36       0.2617
     22  O        -43.5990   15.3890    0.8450 O.2    36  ILE36      -0.2715
     23  CB       -41.6700   17.8250   -0.0090 C.3    36  ILE36       0.0290
     24  CG1      -42.4780   18.5430   -1.0820 C.3    36  ILE36       0.0022
     25  CG2      -41.0940   16.5390   -0.5880 C.3    36  ILE36       0.0023
     26  CD1      -43.2910   19.6410   -0.5380 C.3    36  ILE36       0.0001
     27  N        -44.8440   17.2230    0.5050 N.am   37  SER37      -0.1936
     28  CA       -45.9510   16.4760   -0.0780 C.3    37  SER37       0.2055
     29  C        -46.7620   17.4270   -0.9310 C.2    37  SER37       0.2642
     30  O        -46.9920   18.5770   -0.5510 O.2    37  SER37      -0.2714
     31  CB       -46.8100   15.7900    0.9900 C.3    37  SER37       0.2130
     32  OG       -47.4470   16.7230    1.8390 O.3    37  SER37      -0.2179
     33  N        -47.1690   16.9480   -2.1040 N.am   38  LEU38      -0.1977
     34  CA       -47.8740   17.7820   -3.0610 C.3    38  LEU38       0.1596
     35  C        -48.9520   16.9560   -3.7460 C.2    38  LEU38       0.2287
     36  O        -48.6630   15.8890   -4.2710 O.2    38  LEU38      -0.2864
     37  CB       -46.9040   18.3040   -4.1160 C.3    38  LEU38       0.0297
     38  CG       -45.8360   19.2990   -3.6840 C.3    38  LEU38       0.0022
     39  CD1      -44.9470   19.6380   -4.8800 C.3    38  LEU38       0.0001
     40  CD2      -46.4910   20.5430   -3.0870 C.3    38  LEU38       0.0001
     41  N        -41.9910   20.1610   -9.4260 N.3    51  LEU51      -0.1231
     42  CA       -41.6040   21.3530   -8.6840 C.3    51  LEU51       0.1693
     43  C        -40.0830   21.5310   -8.6850 C.2    51  LEU51       0.2592
     44  O        -39.5810   22.6090   -8.9720 O.2    51  LEU51      -0.2718
     45  CB       -42.1140   21.2860   -7.2350 C.3    51  LEU51       0.0284
     46  CG       -41.6570   22.4690   -6.3740 C.3    51  LEU51       0.0019
     47  CD1      -42.2610   23.7740   -6.9020 C.3    51  LEU51       0.0001
     48  CD2      -42.0380   22.2610   -4.9270 C.3    51  LEU51       0.0001
     49  N        -39.3550   20.4680   -8.3550 N.am   52  PHE52      -0.1976
     50  CA       -37.9070   20.5470   -8.2230 C.3    52  PHE52       0.1639
     51  C        -37.1710   20.6750   -9.5590 C.2    52  PHE52       0.2290
     52  O        -35.9760   20.9580   -9.5700 O.2    52  PHE52      -0.2864
     53  CB       -37.3630   19.3380   -7.4700 C.3    52  PHE52       0.0560
     54  CG       -37.7220   19.3090   -6.0030 C.ar   52  PHE52      -0.0200
     55  CD1      -38.1200   20.4630   -5.3440 C.ar   52  PHE52      -0.0042
     56  CD2      -37.6420   18.1270   -5.2850 C.ar   52  PHE52      -0.0042
     57  CE1      -38.4340   20.4420   -4.0020 C.ar   52  PHE52      -0.0003
     58  CE2      -37.9690   18.0920   -3.9340 C.ar   52  PHE52      -0.0003
     59  CZ       -38.3690   19.2470   -3.2920 C.ar   52  PHE52      -0.0000
     60  N        -53.1990   24.4890   -4.8660 N.3    63  TYR63      -0.1241
     61  CA       -51.9700   24.7360   -4.1360 C.3    63  TYR63       0.1605
     62  C        -50.7920   25.1100   -5.0570 C.2    63  TYR63       0.2264
     63  O        -49.8860   25.8330   -4.6480 O.2    63  TYR63      -0.2867
     64  CB       -51.6150   23.5310   -3.2530 C.3    63  TYR63       0.0534
     65  CG       -50.4470   23.7960   -2.3440 C.ar   63  TYR63      -0.0201
     66  CD1      -50.5820   24.6290   -1.2490 C.ar   63  TYR63      -0.0009
     67  CD2      -49.2030   23.2200   -2.5870 C.ar   63  TYR63      -0.0009
     68  CE1      -49.5110   24.8860   -0.4090 C.ar   63  TYR63       0.0417
     69  CE2      -48.1250   23.4670   -1.7480 C.ar   63  TYR63       0.0417
     70  CZ       -48.2910   24.2960   -0.6620 C.ar   63  TYR63       0.1957
     71  OH       -47.2370   24.5620    0.1820 O.3    63  TYR63      -0.2866
     72  N        -46.8340   28.0530   -5.5650 N.3    67  ILE67      -0.1245
     73  CA       -45.4450   27.6250   -5.5230 C.3    67  ILE67       0.1561
     74  C        -44.8100   27.5970   -6.9130 C.2    67  ILE67       0.2260
     75  O        -43.6260   27.3190   -7.0540 O.2    67  ILE67      -0.2867
     76  CB       -45.2970   26.2500   -4.8520 C.3    67  ILE67       0.0252
     77  CG1      -46.0720   25.1930   -5.6370 C.3    67  ILE67       0.0019
     78  CG2      -45.7870   26.3080   -3.4130 C.3    67  ILE67       0.0019
     79  CD1      -45.9920   23.8100   -5.0300 C.3    67  ILE67       0.0001
     80  N        -41.8060   29.7530   -7.2800 N.3    70  LEU70      -0.1245
     81  CA       -40.6080   29.3270   -6.5780 C.3    70  LEU70       0.1561
     82  C        -39.5580   28.8030   -7.5510 C.2    70  LEU70       0.2260
     83  O        -39.8790   28.2900   -8.6250 O.2    70  LEU70      -0.2867
     84  CB       -40.9530   28.2310   -5.5660 C.3    70  LEU70       0.0270
     85  CG       -41.2810   28.6670   -4.1340 C.3    70  LEU70       0.0019
     86  CD1      -41.9030   30.0450   -4.1050 C.3    70  LEU70       0.0001
     87  CD2      -42.1660   27.6480   -3.4400 C.3    70  LEU70       0.0001
     88  N        -36.9090   26.2050   -6.6370 N.3    72  VAL72      -0.1245
     89  CA       -36.3710   25.3700   -5.5680 C.3    72  VAL72       0.1561
     90  C        -36.0180   23.9760   -6.0710 C.2    72  VAL72       0.2260
     91  O        -36.4420   23.5670   -7.1480 O.2    72  VAL72      -0.2867
     92  CB       -37.3640   25.2370   -4.3910 C.3    72  VAL72       0.0252
     93  CG1      -37.6390   26.6020   -3.7520 C.3    72  VAL72       0.0019
     94  CG2      -38.6570   24.5820   -4.8570 C.3    72  VAL72       0.0019
     95  N        -32.7890   24.3660   -1.4430 N.3    96  HIS96      -0.1241
     96  CA       -33.7020   23.6770   -0.5410 C.3    96  HIS96       0.1621
     97  C        -33.8820   24.3590    0.8320 C.2    96  HIS96       0.2264
     98  O        -34.8980   24.1470    1.4800 O.2    96  HIS96      -0.2867
     99  CB       -33.2150   22.2390   -0.3280 C.3    96  HIS96       0.0745
    100  CG       -31.8930   22.1600    0.3670 C.ar   96  HIS96       0.0817
    101  ND1      -31.7800   21.9610    1.7230 N.ar   96  HIS96      -0.2268
    102  CD2      -30.6300   22.2930   -0.1030 C.ar   96  HIS96       0.1154
    103  CE1      -30.5000   21.9540    2.0590 C.ar   96  HIS96       0.1986
    104  NE2      -29.7830   22.1630    0.9700 N.ar   96  HIS96      -0.2212
    105  N        -35.1910   15.2070    1.0760 N.3   116  GLU116     -0.1245
    106  CA       -36.6120   15.3910    1.3300 C.3   116  GLU116      0.1567
    107  C        -37.2490   14.0490    1.5870 C.2   116  GLU116      0.2260
    108  O        -37.0860   13.1290    0.7950 O.2   116  GLU116     -0.2867
    109  CB       -37.2810   15.9730    0.0810 C.3   116  GLU116      0.0388
    110  CG       -36.8530   17.3580   -0.2750 C.3   116  GLU116      0.1160
    111  CD       -37.7880   18.3830    0.3320 C.2   116  GLU116      0.3649
    112  OE1      -38.6850   17.9830    1.1060 O.co2 116  GLU116     -0.2457
    113  OE2      -37.6150   19.5620    0.0530 O.co2 116  GLU116     -0.2457
    114  N        -45.4790   16.6490    8.8400 N.3   121  ASP121     -0.1239
    115  CA       -44.9860   16.8600   10.1960 C.3   121  ASP121      0.1674
    116  C        -45.6820   15.9640   11.2240 C.2   121  ASP121      0.2266
    117  O        -45.1630   15.7670   12.3290 O.2   121  ASP121     -0.2867
    118  CB       -45.2440   18.3030   10.6420 C.3   121  ASP121      0.1410
    119  CG       -44.4760   19.3360    9.8320 C.2   121  ASP121      0.3668
    120  OD1      -43.5570   18.9870    9.0530 O.co2 121  ASP121     -0.2456
    121  OD2      -44.8120   20.5260    9.9920 O.co2 121  ASP121     -0.2456
    122  N        -34.8290   21.0740    8.6850 N.3   154  HIS154     -0.1241
    123  CA       -35.0550   22.4020    8.1300 C.3   154  HIS154      0.1621
    124  C        -35.5920   23.3260    9.2260 C.2   154  HIS154      0.2264
    125  O        -35.1910   24.4960    9.3330 O.2   154  HIS154     -0.2867
    126  CB       -36.0550   22.3350    6.9770 C.3   154  HIS154      0.0745
    127  CG       -36.0120   23.5310    6.0800 C.ar  154  HIS154      0.0817
    128  ND1      -36.8320   23.6610    4.9790 N.ar  154  HIS154     -0.2268
    129  CD2      -35.2280   24.6360    6.1070 C.ar  154  HIS154      0.1154
    130  CE1      -36.5630   24.8060    4.3700 C.ar  154  HIS154      0.1986
    131  NE2      -35.5960   25.4160    5.0340 N.ar  154  HIS154     -0.2212
    132  N        -40.0370   29.7490   10.4660 N.3   161  ARG161     -0.1231
    133  CA       -40.4040   29.8780    9.0710 C.3   161  ARG161      0.1694
    134  C        -40.8200   28.4970    8.5640 C.2   161  ARG161      0.2592
    135  O        -41.8330   28.3530    7.8600 O.2   161  ARG161     -0.2718
    136  CB       -39.2530   30.4600    8.2450 C.3   161  ARG161      0.0321
    137  CG       -39.6620   30.9300    6.8550 C.3   161  ARG161      0.0489
    138  CD       -38.5670   31.7600    6.1850 C.3   161  ARG161      0.2205
    139  NE       -37.3740   30.9590    5.9260 N.pl3 161  ARG161     -0.0865
    140  CZ       -37.3050   30.0290    4.9810 C.cat 161  ARG161      0.5346
    141  NH1      -38.3520   29.8020    4.2010 N.pl3 161  ARG161      0.1354
    142  NH2      -36.1920   29.3280    4.8100 N.pl3 161  ARG161      0.1354
    143  N        -40.0550   27.4790    8.9570 N.am  162  LYS162     -0.1966
    144  CA       -40.2840   26.1100    8.4880 C.3   162  LYS162      0.1728
    145  C        -40.5480   25.1600    9.6430 C.2   162  LYS162      0.2617
    146  O        -39.9690   25.3030   10.7150 O.2   162  LYS162     -0.2715
    147  CB       -39.0620   25.5890    7.7200 C.3   162  LYS162      0.0311
    148  CG       -38.6240   26.4350    6.5520 C.3   162  LYS162      0.0038
    149  CD       -39.7440   26.5920    5.5340 C.3   162  LYS162      0.0206
    150  CE       -40.2070   25.2540    5.0160 C.3   162  LYS162      0.1093
    151  NZ       -41.0910   25.4460    3.8130 N.3   162  LYS162     -0.1314
    152  N        -41.4040   24.1710    9.4150 N.am  163  THR163     -0.1937
    153  CA       -41.6650   23.1560   10.4330 C.3   163  THR163      0.2028
    154  C        -41.1610   21.7620   10.0790 C.2   163  THR163      0.2642
    155  O        -41.0570   20.8950   10.9540 O.2   163  THR163     -0.2714
    156  CB       -43.1520   23.0720   10.7620 C.3   163  THR163      0.1808
    157  OG1      -43.9010   22.9330    9.5450 O.3   163  THR163     -0.2208
    158  CG2      -43.5770   24.3240   11.5220 C.3   163  THR163      0.0379
    159  N        -40.8280   21.5500    8.8100 N.am  164  ASP164     -0.1971
    160  CA       -40.3580   20.2420    8.3630 C.3   164  ASP164      0.1709
    161  C        -38.9770   19.9170    8.9620 C.2   164  ASP164      0.2293
    162  O        -38.1730   20.8110    9.1390 O.2   164  ASP164     -0.2864
    163  CB       -40.4020   20.1200    6.8120 C.3   164  ASP164      0.1436
    164  CG       -39.3860   21.0400    6.0620 C.2   164  ASP164      0.3671
    165  OD1      -39.3370   22.2750    6.1860 O.co2 164  ASP164     -0.2456
    166  OD2      -38.6510   20.5200    5.2270 O.co2 164  ASP164     -0.2456
@<TRIPOS>BOND
     1    52    51    2
     2    51    50    1
     3    41    42    1
     4    44    43    2
     5    43    42    1
     6    43    49   am
     7    42    45    1
     8    83    82    2
     9    49    50    1
    10    50    53    1
    11    82    81    1
    12    53    54    1
    13    80    81    1
    14    45    46    1
    15    91    90    2
    16    75    74    2
    17    74    73    1
    18    47    46    1
    19    88    89    1
    20    81    84    1
    21    46    48    1
    22    90    89    1
    23    54    55   ar
    24    54    56   ar
    25    77    79    1
    26    77    76    1
    27    89    92    1
    28    84    85    1
    29    72    73    1
    30    73    76    1
    31    55    57   ar
    32    56    58   ar
    33    62    63    2
    34    62    61    1
    35    39    38    1
    36    60    61    1
    37    94    92    1
    38    76    78    1
    39    92    93    1
    40    36    35    2
    41    61    64    1
    42    85    86    1
    43    85    87    1
    44    37    38    1
    45    37    34    1
    46    57    59   ar
    47    58    59   ar
    48    35    34    1
    49    38    40    1
    50    64    65    1
    51    34    33    1
    52    67    65   ar
    53    67    69   ar
    54    65    66   ar
    55    33    29   am
    56    69    70   ar
    57    95    96    1
    58    66    68   ar
    59    24    26    1
    60    24    23    1
    61    29    30    2
    62    29    28    1
    63    70    68   ar
    64    70    71    1
    65    25    23    1
    66    96    99    1
    67    96    97    1
    68    99   100    1
    69   110   109    1
    70   110   111    1
    71   102   100   ar
    72   102   104   ar
    73    28    27    1
    74    28    31    1
    75    23    20    1
    76   113   111   ar
    77   109   106    1
    78   111   112   ar
    79   100   101   ar
    80    27    21   am
    81   108   107    2
    82    97    98    2
    83    21    22    2
    84    21    20    1
    85   104   103   ar
    86    31    32    1
    87   105   106    1
    88    20    19    1
    89   106   107    1
    90   101   103   ar
    91    19    13   am
    92    14    13    2
    93    13    12    1
    94    10     8   ar
    95    10     9   ar
    96     8     6   ar
    97     9     7   ar
    98     6     7   ar
    99     6     5    1
   100     5     2    1
   101   151   150    1
   102   141   140    1
   103    12    11    1
   104    12    15    1
   105   130   128   ar
   106   130   131   ar
   107    11     3   am
   108   142   140    1
   109     4     3    2
   110     3     2    1
   111     2     1    1
   112   128   127   ar
   113   140   139    2
   114   150   149    1
   115   131   129   ar
   116   166   164   ar
   117    15    16    1
   118    17    16    2
   119   149   148    1
   120   139   138    1
   121    16    18   am
   122   164   165   ar
   123   164   163    1
   124   127   129   ar
   125   127   126    1
   126   138   137    1
   127   148   147    1
   128   163   160    1
   129   137   136    1
   130   126   123    1
   131   147   144    1
   132   135   134    2
   133   123   122    1
   134   123   124    1
   135   136   133    1
   136   160   159    1
   137   160   161    1
   138   144   143    1
   139   144   145    1
   140   134   143   am
   141   134   133    1
   142   159   154   am
   143   114   115    1
   144   161   162    2
   145   120   119   ar
   146   133   132    1
   147   124   125    2
   148   152   145   am
   149   152   153    1
   150   157   156    1
   151   145   146    2
   152   119   121   ar
   153   119   118    1
   154   154   153    1
   155   154   155    2
   156   115   118    1
   157   115   116    1
   158   153   156    1
   159   156   158    1
   160   116   117    2
