@<TRIPOS>MOLECULE
tmp/2y2bA01.pdb
 194 188 0 0 0
SMALL
GASTEIGER

@<TRIPOS>ATOM
      1  N        -26.8470   25.4640   -8.8660 N.3    20  ASP20      -0.1239
      2  CA       -25.6760   26.2460   -9.2510 C.3    20  ASP20       0.1674
      3  C        -24.4740   25.7490   -8.4570 C.2    20  ASP20       0.2266
      4  O        -24.5040   24.6290   -7.9570 O.2    20  ASP20      -0.2867
      5  CB       -25.9130   27.7570   -9.1160 C.3    20  ASP20       0.1410
      6  CG       -26.3930   28.1630   -7.7370 C.2    20  ASP20       0.3668
      7  OD1      -26.4730   27.3100   -6.8340 O.co2  20  ASP20      -0.2456
      8  OD2      -26.6920   29.3570   -7.5570 O.co2  20  ASP20      -0.2456
      9  N        -35.6720   17.3480    5.2940 N.3    34  HIS34      -0.1226
     10  CA       -36.9020   18.0540    4.9540 C.3    34  HIS34       0.1752
     11  C        -38.0480   17.0480    4.8560 C.2    34  HIS34       0.2596
     12  O        -37.8240   15.8330    4.8240 O.2    34  HIS34      -0.2718
     13  CB       -36.7960   18.7060    3.5600 C.3    34  HIS34       0.0759
     14  CG       -35.7800   19.8030    3.4530 C.ar   34  HIS34       0.0818
     15  ND1      -36.1130   21.1390    3.5380 N.ar   34  HIS34      -0.2268
     16  CD2      -34.4460   19.7620    3.2140 C.ar   34  HIS34       0.1154
     17  CE1      -35.0230   21.8730    3.3900 C.ar   34  HIS34       0.1986
     18  NE2      -33.9980   21.0620    3.1910 N.ar   34  HIS34      -0.2212
     19  N        -39.2760   17.5530    4.7850 N.am   35  ASN35      -0.1974
     20  CA       -40.3530   16.7630    4.2050 C.3    35  ASN35       0.1688
     21  C        -41.0840   17.5650    3.1380 C.2    35  ASN35       0.2292
     22  O        -40.9870   18.7950    3.0840 O.2    35  ASN35      -0.2864
     23  CB       -41.3150   16.1680    5.2540 C.3    35  ASN35       0.1181
     24  CG       -42.2000   17.2180    5.9420 C.2    35  ASN35       0.2629
     25  OD1      -42.5900   18.2300    5.3490 O.2    35  ASN35      -0.2716
     26  ND2      -42.5440   16.9480    7.2000 N.am   35  ASN35      -0.0877
     27  N        -41.9910   20.1610   -9.4260 N.3    51  LEU51      -0.1231
     28  CA       -41.6040   21.3530   -8.6840 C.3    51  LEU51       0.1693
     29  C        -40.0830   21.5310   -8.6850 C.2    51  LEU51       0.2592
     30  O        -39.5810   22.6090   -8.9720 O.2    51  LEU51      -0.2718
     31  CB       -42.1140   21.2860   -7.2350 C.3    51  LEU51       0.0284
     32  CG       -41.6570   22.4690   -6.3740 C.3    51  LEU51       0.0019
     33  CD1      -42.2610   23.7740   -6.9020 C.3    51  LEU51       0.0001
     34  CD2      -42.0380   22.2610   -4.9270 C.3    51  LEU51       0.0001
     35  N        -39.3550   20.4680   -8.3550 N.am   52  PHE52      -0.1976
     36  CA       -37.9070   20.5470   -8.2230 C.3    52  PHE52       0.1639
     37  C        -37.1710   20.6750   -9.5590 C.2    52  PHE52       0.2290
     38  O        -35.9760   20.9580   -9.5700 O.2    52  PHE52      -0.2864
     39  CB       -37.3630   19.3380   -7.4700 C.3    52  PHE52       0.0560
     40  CG       -37.7220   19.3090   -6.0030 C.ar   52  PHE52      -0.0200
     41  CD1      -38.1200   20.4630   -5.3440 C.ar   52  PHE52      -0.0042
     42  CD2      -37.6420   18.1270   -5.2850 C.ar   52  PHE52      -0.0042
     43  CE1      -38.4340   20.4420   -4.0020 C.ar   52  PHE52      -0.0003
     44  CE2      -37.9690   18.0920   -3.9340 C.ar   52  PHE52      -0.0003
     45  CZ       -38.3690   19.2470   -3.2920 C.ar   52  PHE52      -0.0000
     46  N        -41.8060   29.7530   -7.2800 N.3    70  LEU70      -0.1231
     47  CA       -40.6080   29.3270   -6.5780 C.3    70  LEU70       0.1693
     48  C        -39.5580   28.8030   -7.5510 C.2    70  LEU70       0.2592
     49  O        -39.8790   28.2900   -8.6250 O.2    70  LEU70      -0.2718
     50  CB       -40.9530   28.2310   -5.5660 C.3    70  LEU70       0.0284
     51  CG       -41.2810   28.6670   -4.1340 C.3    70  LEU70       0.0019
     52  CD1      -41.9030   30.0450   -4.1050 C.3    70  LEU70       0.0001
     53  CD2      -42.1660   27.6480   -3.4400 C.3    70  LEU70       0.0001
     54  N        -38.2980   28.9450   -7.1690 N.am   71  ARG71      -0.1966
     55  CA       -37.2080   28.2720   -7.8570 C.3    71  ARG71       0.1729
     56  C        -36.4740   27.4430   -6.8150 C.2    71  ARG71       0.2616
     57  O        -35.5680   27.9200   -6.1490 O.2    71  ARG71      -0.2715
     58  CB       -36.2860   29.2850   -8.5420 C.3    71  ARG71       0.0348
     59  CG       -37.0270   30.1870   -9.5310 C.3    71  ARG71       0.0492
     60  CD       -36.0860   30.8200  -10.5400 C.3    71  ARG71       0.2205
     61  NE       -35.0940   29.8470  -10.9830 N.pl3  71  ARG71      -0.0865
     62  CZ       -34.4380   29.8990  -12.1370 C.cat  71  ARG71       0.5346
     63  NH1      -34.6660   30.8880  -12.9990 N.pl3  71  ARG71       0.1354
     64  NH2      -33.5590   28.9460  -12.4260 N.pl3  71  ARG71       0.1354
     65  N        -36.9090   26.2050   -6.6370 N.am   72  VAL72      -0.1963
     66  CA       -36.3710   25.3700   -5.5680 C.3    72  VAL72       0.1727
     67  C        -36.0180   23.9760   -6.0710 C.2    72  VAL72       0.2616
     68  O        -36.4420   23.5670   -7.1480 O.2    72  VAL72      -0.2715
     69  CB       -37.3640   25.2370   -4.3910 C.3    72  VAL72       0.0290
     70  CG1      -37.6390   26.6020   -3.7520 C.3    72  VAL72       0.0023
     71  CG2      -38.6570   24.5820   -4.8570 C.3    72  VAL72       0.0023
     72  N        -35.2530   23.2570   -5.2620 N.am   73  SER73      -0.1950
     73  CA       -34.8310   21.8980   -5.5600 C.3    73  SER73       0.1924
     74  C        -34.2370   21.2970   -4.2900 C.2    73  SER73       0.2314
     75  O        -34.0090   21.9970   -3.3060 O.2    73  SER73      -0.2863
     76  CB       -33.7910   21.9040   -6.6830 C.3    73  SER73       0.2116
     77  OG       -32.6410   22.6640   -6.3280 O.3    73  SER73      -0.2180
     78  N        -24.9020   23.0460   -5.5910 N.3    93  ARG93      -0.1245
     79  CA       -25.7950   23.7100   -4.6470 C.3    93  ARG93       0.1563
     80  C        -27.2640   23.6210   -5.0670 C.2    93  ARG93       0.2260
     81  O        -27.6800   24.2630   -6.0340 O.2    93  ARG93      -0.2867
     82  CB       -25.3870   25.1750   -4.4740 C.3    93  ARG93       0.0307
     83  CG       -26.4340   26.0140   -3.7560 C.3    93  ARG93       0.0489
     84  CD       -26.4700   27.4110   -4.3440 C.3    93  ARG93       0.2205
     85  NE       -25.4800   28.2250   -3.6860 N.pl3  93  ARG93      -0.0865
     86  CZ       -25.0310   29.4090   -4.0890 C.cat  93  ARG93       0.5346
     87  NH1      -25.4310   29.9790   -5.2190 N.pl3  93  ARG93       0.1354
     88  NH2      -24.1400   30.0160   -3.3370 N.pl3  93  ARG93       0.1354
     89  N        -31.3990   24.1540   -4.1150 N.3    95  TRP95      -0.1227
     90  CA       -32.0640   25.3200   -3.5290 C.3    95  TRP95       0.1737
     91  C        -33.1850   24.8740   -2.6050 C.2    95  TRP95       0.2595
     92  O        -34.3650   24.9990   -2.9300 O.2    95  TRP95      -0.2718
     93  CB       -32.5690   26.2520   -4.6250 C.3    95  TRP95       0.0564
     94  CG       -31.4840   26.6070   -5.6090 C.ar   95  TRP95       0.0003
     95  CD1      -30.1480   26.7220   -5.3410 C.ar   95  TRP95       0.0946
     96  CD2      -31.6380   26.8900   -7.0090 C.ar   95  TRP95       0.0152
     97  NE1      -29.4600   27.0480   -6.4930 N.ar   95  TRP95      -0.2442
     98  CE2      -30.3530   27.1580   -7.5250 C.ar   95  TRP95       0.0810
     99  CE3      -32.7370   26.9360   -7.8770 C.ar   95  TRP95       0.0012
    100  CZ2      -30.1390   27.4740   -8.8710 C.ar   95  TRP95       0.0191
    101  CZ3      -32.5200   27.2470   -9.2140 C.ar   95  TRP95       0.0001
    102  CH2      -31.2320   27.5120   -9.6940 C.ar   95  TRP95       0.0015
    103  N        -32.7890   24.3660   -1.4430 N.am   96  HIS96      -0.1961
    104  CA       -33.7020   23.6770   -0.5410 C.3    96  HIS96       0.1787
    105  C        -33.8820   24.3590    0.8320 C.2    96  HIS96       0.2620
    106  O        -34.8980   24.1470    1.4800 O.2    96  HIS96      -0.2715
    107  CB       -33.2150   22.2390   -0.3280 C.3    96  HIS96       0.0785
    108  CG       -31.8930   22.1600    0.3670 C.ar   96  HIS96       0.0821
    109  ND1      -31.7800   21.9610    1.7230 N.ar   96  HIS96      -0.2267
    110  CD2      -30.6300   22.2930   -0.1030 C.ar   96  HIS96       0.1154
    111  CE1      -30.5000   21.9540    2.0590 C.ar   96  HIS96       0.1986
    112  NE2      -29.7830   22.1630    0.9700 N.ar   96  HIS96      -0.2212
    113  N        -32.9100   25.1680    1.2650 N.am   97  ALA97      -0.1963
    114  CA       -32.9360   25.7260    2.6290 C.3    97  ALA97       0.1728
    115  C        -33.5580   27.1120    2.7700 C.2    97  ALA97       0.2617
    116  O        -34.0770   27.4510    3.8320 O.2    97  ALA97      -0.2715
    117  CB       -31.5400   25.7340    3.2500 C.3    97  ALA97       0.0334
    118  N        -33.4710   27.9240    1.7260 N.am   98  GLY98      -0.1940
    119  CA       -33.9280   29.2990    1.8170 C.3    98  GLY98       0.2014
    120  C        -33.1660   30.0890    2.8680 C.2    98  GLY98       0.2638
    121  O        -32.0170   29.7690    3.1810 O.2    98  GLY98      -0.2714
    122  N        -33.8010   31.1270    3.4140 N.am   99  VAL99      -0.1977
    123  CA       -33.1490   31.9580    4.4220 C.3    99  VAL99       0.1596
    124  C        -32.9870   31.1060    5.6640 C.2    99  VAL99       0.2287
    125  O        -33.9600   30.5460    6.1710 O.2    99  VAL99      -0.2864
    126  CB       -33.9810   33.2050    4.7500 C.3    99  VAL99       0.0276
    127  CG1      -33.2840   34.0590    5.8380 C.3    99  VAL99       0.0022
    128  CG2      -34.2300   34.0190    3.4850 C.3    99  VAL99       0.0022
    129  N        -27.2130   31.1880    4.8760 N.3   107  ARG107     -0.1245
    130  CA       -27.2350   30.6130    3.5340 C.3   107  ARG107      0.1563
    131  C        -26.8010   29.1560    3.5550 C.2   107  ARG107      0.2260
    132  O        -25.8290   28.7680    2.8970 O.2   107  ARG107     -0.2867
    133  CB       -26.3120   31.4150    2.6200 C.3   107  ARG107      0.0307
    134  CG       -26.5290   32.9090    2.7170 C.3   107  ARG107      0.0489
    135  CD       -27.3360   33.4250    1.5390 C.3   107  ARG107      0.2205
    136  NE       -28.7700   33.4620    1.8090 N.pl3 107  ARG107     -0.0865
    137  CZ       -29.6570   32.5840    1.3460 C.cat 107  ARG107      0.5346
    138  NH1      -29.2750   31.5630    0.5720 N.pl3 107  ARG107      0.1354
    139  NH2      -30.9320   32.7320    1.6620 N.pl3 107  ARG107      0.1354
    140  N        -27.8490   26.5980    2.0990 N.3   109  ASN109     -0.1240
    141  CA       -27.7020   25.9680    0.7720 C.3   109  ASN109      0.1653
    142  C        -26.2280   25.7720    0.4090 C.2   109  ASN109      0.2266
    143  O        -25.8430   24.7720   -0.2010 O.2   109  ASN109     -0.2867
    144  CB       -28.3390   26.8210   -0.3320 C.3   109  ASN109      0.1155
    145  CG       -29.8370   26.6310   -0.4400 C.2   109  ASN109      0.2627
    146  OD1      -30.4250   25.7650    0.2060 O.2   109  ASN109     -0.2716
    147  ND2      -30.4680   27.4600   -1.2650 N.am  109  ASN109     -0.0877
    148  N        -35.1910   15.2070    1.0760 N.3   116  GLU116     -0.1245
    149  CA       -36.6120   15.3910    1.3300 C.3   116  GLU116      0.1567
    150  C        -37.2490   14.0490    1.5870 C.2   116  GLU116      0.2260
    151  O        -37.0860   13.1290    0.7950 O.2   116  GLU116     -0.2867
    152  CB       -37.2810   15.9730    0.0810 C.3   116  GLU116      0.0388
    153  CG       -36.8530   17.3580   -0.2750 C.3   116  GLU116      0.1160
    154  CD       -37.7880   18.3830    0.3320 C.2   116  GLU116      0.3649
    155  OE1      -38.6850   17.9830    1.1060 O.co2 116  GLU116     -0.2457
    156  OE2      -37.6150   19.5620    0.0530 O.co2 116  GLU116     -0.2457
    157  N        -34.8290   21.0740    8.6850 N.3   154  HIS154     -0.1241
    158  CA       -35.0550   22.4020    8.1300 C.3   154  HIS154      0.1621
    159  C        -35.5920   23.3260    9.2260 C.2   154  HIS154      0.2264
    160  O        -35.1910   24.4960    9.3330 O.2   154  HIS154     -0.2867
    161  CB       -36.0550   22.3350    6.9770 C.3   154  HIS154      0.0745
    162  CG       -36.0120   23.5310    6.0800 C.ar  154  HIS154      0.0817
    163  ND1      -36.8320   23.6610    4.9790 N.ar  154  HIS154     -0.2268
    164  CD2      -35.2280   24.6360    6.1070 C.ar  154  HIS154      0.1154
    165  CE1      -36.5630   24.8060    4.3700 C.ar  154  HIS154      0.1986
    166  NE2      -35.5960   25.4160    5.0340 N.ar  154  HIS154     -0.2212
    167  N        -40.0370   29.7490   10.4660 N.3   161  ARG161     -0.1231
    168  CA       -40.4040   29.8780    9.0710 C.3   161  ARG161      0.1694
    169  C        -40.8200   28.4970    8.5640 C.2   161  ARG161      0.2591
    170  O        -41.8330   28.3530    7.8600 O.2   161  ARG161     -0.2718
    171  CB       -39.2530   30.4600    8.2450 C.3   161  ARG161      0.0321
    172  CG       -39.6620   30.9300    6.8550 C.3   161  ARG161      0.0489
    173  CD       -38.5670   31.7600    6.1850 C.3   161  ARG161      0.2205
    174  NE       -37.3740   30.9590    5.9260 N.pl3 161  ARG161     -0.0865
    175  CZ       -37.3050   30.0290    4.9810 C.cat 161  ARG161      0.5346
    176  NH1      -38.3520   29.8020    4.2010 N.pl3 161  ARG161      0.1354
    177  NH2      -36.1920   29.3280    4.8100 N.pl3 161  ARG161      0.1354
    178  N        -40.0550   27.4790    8.9570 N.am  162  LYS162     -0.1980
    179  CA       -40.2840   26.1100    8.4880 C.3   162  LYS162      0.1596
    180  C        -40.5480   25.1600    9.6430 C.2   162  LYS162      0.2287
    181  O        -39.9690   25.3030   10.7150 O.2   162  LYS162     -0.2864
    182  CB       -39.0620   25.5890    7.7200 C.3   162  LYS162      0.0298
    183  CG       -38.6240   26.4350    6.5520 C.3   162  LYS162      0.0038
    184  CD       -39.7440   26.5920    5.5340 C.3   162  LYS162      0.0206
    185  CE       -40.2070   25.2540    5.0160 C.3   162  LYS162      0.1093
    186  NZ       -41.0910   25.4460    3.8130 N.3   162  LYS162     -0.1314
    187  N        -40.8280   21.5500    8.8100 N.3   164  ASP164     -0.1239
    188  CA       -40.3580   20.2420    8.3630 C.3   164  ASP164      0.1674
    189  C        -38.9770   19.9170    8.9620 C.2   164  ASP164      0.2266
    190  O        -38.1730   20.8110    9.1390 O.2   164  ASP164     -0.2867
    191  CB       -40.4020   20.1200    6.8120 C.3   164  ASP164      0.1410
    192  CG       -39.3860   21.0400    6.0620 C.2   164  ASP164      0.3668
    193  OD1      -39.3370   22.2750    6.1860 O.co2 164  ASP164     -0.2456
    194  OD2      -38.6510   20.5200    5.2270 O.co2 164  ASP164     -0.2456
@<TRIPOS>BOND
     1    63    62    1
     2    64    62    1
     3    62    61    2
     4    61    60    1
     5    60    59    1
     6   102   101   ar
     7   102   100   ar
     8    38    37    2
     9    37    36    1
    10    59    58    1
    11    27    28    1
    12     2     5    1
    13     2     1    1
    14     2     3    1
    15   101    99   ar
    16     5     6    1
    17    30    29    2
    18   100    98   ar
    19    29    28    1
    20    29    35   am
    21    28    31    1
    22    49    48    2
    23    58    55    1
    24     3     4    2
    25    35    36    1
    26    36    39    1
    27    99    96   ar
    28    55    54    1
    29    55    56    1
    30     6     8   ar
    31     6     7   ar
    32    48    54   am
    33    48    47    1
    34    98    96   ar
    35    98    97   ar
    36    39    40    1
    37    46    47    1
    38    31    32    1
    39    68    67    2
    40    96    94   ar
    41    33    32    1
    42    56    65   am
    43    56    57    2
    44    76    77    1
    45    76    73    1
    46    65    66    1
    47    47    50    1
    48    97    95   ar
    49    32    34    1
    50    67    66    1
    51    67    72   am
    52    81    80    2
    53    40    41   ar
    54    40    42   ar
    55    94    95   ar
    56    94    93    1
    57    78    79    1
    58    66    69    1
    59    50    51    1
    60    73    72    1
    61    73    74    1
    62    41    43   ar
    63    42    44   ar
    64    87    86    1
    65    80    79    1
    66    71    69    1
    67    79    82    1
    68    93    90    1
    69    82    83    1
    70    69    70    1
    71    84    83    1
    72    84    85    1
    73    74    75    2
    74    51    52    1
    75    51    53    1
    76    89    90    1
    77    86    85    2
    78    86    88    1
    79    43    45   ar
    80    44    45   ar
    81    90    91    1
    82    92    91    2
    83    91   103   am
    84   103   104    1
    85   147   145   am
    86   104   107    1
    87   104   105    1
    88   145   144    1
    89   145   146    2
    90   144   141    1
    91   107   108    1
    92   153   152    1
    93   153   154    1
    94   143   142    2
    95   110   108   ar
    96   110   112   ar
    97   156   154   ar
    98   152   149    1
    99   154   155   ar
   100   108   109   ar
   101   142   141    1
   102   138   137    1
   103   141   140    1
   104   151   150    2
   105   105   113   am
   106   105   106    2
   107   112   111   ar
   108   148   149    1
   109   113   114    1
   110   149   150    1
   111   137   139    1
   112   137   136    2
   113   135   136    1
   114   135   134    1
   115   109   111   ar
   116   118   119    1
   117   118   115   am
   118   119   120    1
   119   133   134    1
   120   133   130    1
   121   114   115    1
   122   114   117    1
   123   115   116    2
   124   120   121    2
   125   120   122   am
   126   132   131    2
   127    22    21    2
   128    21    20    1
   129    18    16   ar
   130    18    17   ar
   131    16    14   ar
   132    17    15   ar
   133   122   123    1
   134    14    15   ar
   135    14    13    1
   136   128   126    1
   137   130   131    1
   138   130   129    1
   139    13    10    1
   140   186   185    1
   141   176   175    1
   142    20    19    1
   143    20    23    1
   144   165   163   ar
   145   165   166   ar
   146   123   126    1
   147   123   124    1
   148   126   127    1
   149    19    11   am
   150   177   175    1
   151    12    11    2
   152    11    10    1
   153    10     9    1
   154   163   162   ar
   155   175   174    2
   156   185   184    1
   157   166   164   ar
   158   194   192   ar
   159    23    24    1
   160    25    24    2
   161   184   183    1
   162   124   125    2
   163   174   173    1
   164    24    26   am
   165   192   193   ar
   166   192   191    1
   167   162   164   ar
   168   162   161    1
   169   173   172    1
   170   183   182    1
   171   191   188    1
   172   172   171    1
   173   161   158    1
   174   182   179    1
   175   170   169    2
   176   158   157    1
   177   158   159    1
   178   171   168    1
   179   188   187    1
   180   188   189    1
   181   179   178    1
   182   179   180    1
   183   169   178   am
   184   169   168    1
   185   189   190    2
   186   168   167    1
   187   159   160    2
   188   180   181    2
