@<TRIPOS>MOLECULE
tmp/2y2fA00.pdb
 114 107 0 0 0
SMALL
GASTEIGER

@<TRIPOS>ATOM
      1  N         -1.7410   16.1200  -18.1420 N.3    43  PHE43      -0.1241
      2  CA        -0.9750   16.6680  -19.2310 C.3    43  PHE43       0.1605
      3  C         -1.3200   18.1380  -19.3980 C.2    43  PHE43       0.2264
      4  O         -2.4980   18.5290  -19.4930 O.2    43  PHE43      -0.2867
      5  CB        -1.2840   15.9370  -20.5380 C.3    43  PHE43       0.0534
      6  CG        -1.1330   14.4580  -20.4460 C.ar   43  PHE43      -0.0203
      7  CD1        0.1370   13.8590  -20.4270 C.ar   43  PHE43      -0.0042
      8  CD2       -2.2460   13.6540  -20.3340 C.ar   43  PHE43      -0.0042
      9  CE1        0.2840   12.4700  -20.3020 C.ar   43  PHE43      -0.0003
     10  CE2       -2.1100   12.2570  -20.2240 C.ar   43  PHE43      -0.0003
     11  CZ        -0.8230   11.6720  -20.2280 C.ar   43  PHE43      -0.0000
     12  N         -1.2660   20.1870  -21.7520 N.3    45  ASP45      -0.1225
     13  CA        -2.0180   20.5760  -22.9450 C.3    45  ASP45       0.1805
     14  C         -3.4130   19.9370  -23.0540 C.2    45  ASP45       0.2597
     15  O         -4.0940   20.1670  -24.0250 O.2    45  ASP45      -0.2718
     16  CB        -1.2140   20.1960  -24.1770 C.3    45  ASP45       0.1424
     17  CG         0.1270   20.9230  -24.2280 C.2    45  ASP45       0.3668
     18  OD1        0.0850   22.1770  -24.2460 O.co2  45  ASP45      -0.2456
     19  OD2        1.1930   20.2430  -24.2070 O.co2  45  ASP45      -0.2456
     20  N         -3.8170   19.1560  -22.0500 N.am   46  ILE46      -0.1980
     21  CA        -5.1200   18.4610  -22.0550 C.3    46  ILE46       0.1595
     22  C         -5.9040   18.9800  -20.8460 C.2    46  ILE46       0.2287
     23  O         -5.7850   18.4660  -19.7280 O.2    46  ILE46      -0.2864
     24  CB        -4.9590   16.9190  -21.9530 C.3    46  ILE46       0.0276
     25  CG1       -4.1110   16.3490  -23.0960 C.3    46  ILE46       0.0022
     26  CG2       -6.3270   16.2250  -21.8760 C.3    46  ILE46       0.0022
     27  CD1       -4.7120   16.4720  -24.4800 C.3    46  ILE46       0.0001
     28  N         -2.8380    2.9770  -26.6060 N.3   170  ASP170     -0.1225
     29  CA        -2.8480    4.4160  -26.7800 C.3   170  ASP170      0.1805
     30  C         -2.7340    4.8180  -28.2630 C.2   170  ASP170      0.2597
     31  O         -2.0090    4.1820  -29.0520 O.2   170  ASP170     -0.2718
     32  CB        -1.6960    5.0490  -25.9510 C.3   170  ASP170      0.1424
     33  CG        -0.3000    4.9170  -26.6560 C.2   170  ASP170      0.3668
     34  OD1        0.3890    3.8730  -26.5100 O.co2 170  ASP170     -0.2456
     35  OD2        0.1110    5.8770  -27.3500 O.co2 170  ASP170     -0.2456
     36  N         -3.4780    5.8540  -28.6600 N.am  171  GLN171     -0.1979
     37  CA        -3.3540    6.4530  -30.0010 C.3   171  GLN171      0.1601
     38  C         -3.6280    5.4630  -31.1260 C.2   171  GLN171      0.2287
     39  O         -2.9970    5.5230  -32.2300 O.2   171  GLN171     -0.2864
     40  CB        -1.9770    7.1200  -30.1760 C.3   171  GLN171      0.0394
     41  CG        -1.6120    8.1050  -29.0730 C.3   171  GLN171      0.0908
     42  CD        -0.4160    8.9490  -29.4370 C.2   171  GLN171      0.2608
     43  OE1       -0.5100    9.8590  -30.2710 O.2   171  GLN171     -0.2717
     44  NE2        0.7290    8.6220  -28.8600 N.am  171  GLN171     -0.0878
     45  N         -9.6580    7.1130  -20.3430 N.3   217  CYS217     -0.1221
     46  CA        -8.5170    6.3380  -20.8100 C.3   217  CYS217      0.1808
     47  C         -7.3050    6.8970  -20.0410 C.2   217  CYS217      0.2601
     48  O         -7.3090    6.8660  -18.8250 O.2   217  CYS217     -0.2717
     49  CB        -8.4110    6.4500  -22.3370 C.3   217  CYS217      0.0970
     50  SG        -8.8310    8.0630  -23.0220 S.3   217  CYS217     -0.0800
     51  N         -6.2720    7.3890  -20.7140 N.am  218  ARG218     -0.1965
     52  CA        -5.1590    7.9710  -19.9770 C.3   218  ARG218      0.1729
     53  C         -5.3790    9.4890  -19.8830 C.2   218  ARG218      0.2616
     54  O         -5.4440   10.0750  -18.7860 O.2   218  ARG218     -0.2715
     55  CB        -3.8150    7.6260  -20.6530 C.3   218  ARG218      0.0348
     56  CG        -2.6240    8.1610  -19.8720 C.3   218  ARG218      0.0492
     57  CD        -1.2650    7.6380  -20.4450 C.3   218  ARG218      0.2205
     58  NE        -0.1520    8.2820  -19.7330 N.pl3 218  ARG218     -0.0865
     59  CZ         1.0790    8.4760  -20.2230 C.cat 218  ARG218      0.5346
     60  NH1        1.4390    7.9980  -21.4100 N.pl3 218  ARG218      0.1354
     61  NH2        1.9770    9.1290  -19.4850 N.pl3 218  ARG218      0.1354
     62  N         -5.4440   10.1310  -21.0470 N.am  219  ALA219     -0.1977
     63  CA        -5.7430   11.5560  -21.1630 C.3   219  ALA219      0.1597
     64  C         -7.2390   11.8710  -21.1790 C.2   219  ALA219      0.2287
     65  O         -7.6100   13.0100  -20.9260 O.2   219  ALA219     -0.2864
     66  CB        -5.1050   12.1100  -22.4460 C.3   219  ALA219      0.0319
     67  N         -9.1160   11.7860  -24.0290 N.3   221  VAL221     -0.1231
     68  CA        -9.4250   12.4700  -25.2890 C.3   221  VAL221      0.1692
     69  C         -9.4720   11.5850  -26.5510 C.2   221  VAL221      0.2593
     70  O        -10.1320   11.9290  -27.5160 O.2   221  VAL221     -0.2718
     71  CB        -8.4840   13.6920  -25.5440 C.3   221  VAL221      0.0266
     72  CG1       -8.6720   14.7350  -24.4580 C.3   221  VAL221      0.0020
     73  CG2       -6.9770   13.2650  -25.7200 C.3   221  VAL221      0.0020
     74  N         -8.7240   10.4880  -26.5830 N.am  222  GLY222     -0.1942
     75  CA        -8.6900    9.6330  -27.7610 C.3   222  GLY222      0.2014
     76  C         -9.6670    8.4510  -27.6670 C.2   222  GLY222      0.2638
     77  O        -10.7660    8.4450  -28.2830 O.2   222  GLY222     -0.2714
     78  N         -9.2740    7.4380  -26.9130 N.am  223  ARG223     -0.1977
     79  CA       -10.0740    6.2240  -26.7980 C.3   223  ARG223      0.1597
     80  C        -11.4440    6.5380  -26.1880 C.2   223  ARG223      0.2287
     81  O        -12.4840    6.0610  -26.6600 O.2   223  ARG223     -0.2864
     82  CB        -9.3000    5.2030  -25.9750 C.3   223  ARG223      0.0334
     83  CG        -8.0210    4.7500  -26.7250 C.3   223  ARG223      0.0492
     84  CD        -7.0830    4.0110  -25.8200 C.3   223  ARG223      0.2205
     85  NE        -6.2870    4.9140  -25.0120 N.pl3 223  ARG223     -0.0865
     86  CZ        -5.3040    4.5690  -24.1840 C.cat 223  ARG223      0.5346
     87  NH1       -4.9140    3.3040  -24.0620 N.pl3 223  ARG223      0.1354
     88  NH2       -4.6510    5.5140  -23.4920 N.pl3 223  ARG223      0.1354
     89  N         -8.9300   18.4090  -28.2750 N.3   257  ILE257     -0.1245
     90  CA        -8.2150   17.2140  -28.7070 C.3   257  ILE257      0.1561
     91  C         -9.1940   16.0130  -28.8490 C.2   257  ILE257      0.2260
     92  O         -8.8500   15.0100  -29.4790 O.2   257  ILE257     -0.2867
     93  CB        -7.0130   16.9010  -27.7680 C.3   257  ILE257      0.0252
     94  CG1       -6.1370   18.1530  -27.5570 C.3   257  ILE257      0.0019
     95  CG2       -6.1580   15.7400  -28.3370 C.3   257  ILE257      0.0019
     96  CD1       -5.7370   18.8610  -28.8380 C.3   257  ILE257      0.0001
     97  N         -8.6310   12.0230  -31.0200 N.3   260  GLN260     -0.1245
     98  CA        -7.2390   12.4070  -31.0700 C.3   260  GLN260      0.1566
     99  C         -6.5110   11.9480  -32.3340 C.2   260  GLN260      0.2260
    100  O         -5.5570   12.6010  -32.7520 O.2   260  GLN260     -0.2867
    101  CB        -6.5800   11.8540  -29.8200 C.3   260  GLN260      0.0367
    102  CG        -5.1750   12.3510  -29.5390 C.3   260  GLN260      0.0905
    103  CD        -4.1500   11.2850  -29.8130 C.2   260  GLN260      0.2608
    104  OE1       -4.4570   10.0720  -29.7470 O.2   260  GLN260     -0.2717
    105  NE2       -2.9120   11.7130  -30.1340 N.am  260  GLN260     -0.0878
    106  N         -9.3050    7.1570  -35.3580 N.3   264  GLN264     -0.1245
    107  CA       -10.4720    7.2030  -34.4580 C.3   264  GLN264      0.1566
    108  C        -11.6480    7.9230  -35.1200 C.2   264  GLN264      0.2260
    109  O        -12.8000    7.5010  -34.9980 O.2   264  GLN264     -0.2867
    110  CB       -10.0940    7.8840  -33.1470 C.3   264  GLN264      0.0367
    111  CG        -9.0880    7.0340  -32.3500 C.3   264  GLN264      0.0905
    112  CD        -8.4010    7.7750  -31.2340 C.2   264  GLN264      0.2608
    113  OE1       -8.4030    9.0180  -31.1890 O.2   264  GLN264     -0.2717
    114  NE2       -7.7700    7.0150  -30.3300 N.am  264  GLN264     -0.0878
@<TRIPOS>BOND
     1   106   107    1
     2   108   109    2
     3   108   107    1
     4   107   110    1
     5   110   111    1
     6   100    99    2
     7   111   112    1
     8    99    98    1
     9    39    38    2
    10   112   113    2
    11   112   114   am
    12    38    37    1
    13    98    97    1
    14    98   101    1
    15    43    42    2
    16    40    37    1
    17    40    41    1
    18   105   103   am
    19    37    36    1
    20   101   102    1
    21   103   104    2
    22   103   102    1
    23    92    91    2
    24    42    41    1
    25    42    44   am
    26    31    30    2
    27    91    90    1
    28    96    94    1
    29    90    89    1
    30    90    93    1
    31    36    30   am
    32    95    93    1
    33    77    76    2
    34    30    29    1
    35    93    94    1
    36    75    76    1
    37    75    74    1
    38    76    78   am
    39    70    69    2
    40    35    33   ar
    41    78    79    1
    42    79    80    1
    43    79    82    1
    44    29    28    1
    45    29    32    1
    46    83    82    1
    47    83    84    1
    48    81    80    2
    49    33    34   ar
    50    33    32    1
    51    74    69   am
    52    69    68    1
    53    84    85    1
    54    73    71    1
    55    71    68    1
    56    71    72    1
    57    68    67    1
    58    85    86    2
    59    27    25    1
    60    18    17   ar
    61    17    19   ar
    62    17    16    1
    63    86    87    1
    64    86    88    1
    65    16    13    1
    66    15    14    2
    67    25    24    1
    68    14    13    1
    69    14    20   am
    70    50    49    1
    71    13    12    1
    72    66    63    1
    73    49    46    1
    74    21    20    1
    75    21    24    1
    76    21    22    1
    77    24    26    1
    78    60    59    1
    79    64    63    1
    80    64    65    2
    81    63    62    1
    82    62    53   am
    83    22    23    2
    84    46    45    1
    85    46    47    1
    86    51    47   am
    87    51    52    1
    88    55    52    1
    89    55    56    1
    90     5     6    1
    91     5     2    1
    92     6     7   ar
    93     6     8   ar
    94    57    56    1
    95    57    58    1
    96     7     9   ar
    97     8    10   ar
    98     9    11   ar
    99    11    10   ar
   100    59    58    2
   101    59    61    1
   102    47    48    2
   103    52    53    1
   104    53    54    2
   105     4     3    2
   106     3     2    1
   107     2     1    1
