@<TRIPOS>MOLECULE
tmp/2y2gB00.pdb
 108 103 0 0 0
SMALL
GASTEIGER

@<TRIPOS>ATOM
      1  N        -11.8170  112.0650  -25.3770 N.3   137  SER137     -0.1217
      2  CA       -12.3080  110.8110  -25.9710 C.3   137  SER137      0.1889
      3  C        -13.3820  110.0790  -25.1590 C.2   137  SER137      0.2288
      4  O        -14.0570  109.1830  -25.6800 O.2   137  SER137     -0.2866
      5  CB       -11.1490  109.8560  -26.2560 C.3   137  SER137      0.2089
      6  OG       -10.3500  110.3440  -27.3150 O.3   137  SER137     -0.2183
      7  N         -5.9430  113.8460  -36.4260 N.3   174  MET174     -0.1230
      8  CA        -4.7300  113.2310  -35.8820 C.3   174  MET174      0.1702
      9  C         -5.0760  112.3700  -34.6860 C.2   174  MET174      0.2592
     10  O         -6.0910  112.5800  -34.0500 O.2   174  MET174     -0.2718
     11  CB        -3.7330  114.3050  -35.4270 C.3   174  MET174      0.0401
     12  CG        -3.1210  115.1390  -36.5630 C.3   174  MET174      0.0596
     13  SD        -2.2410  114.0920  -37.7290 S.3   174  MET174     -0.1393
     14  CE        -0.8190  113.6030  -36.7390 C.3   174  MET174      0.0692
     15  N         -4.2110  111.4120  -34.3750 N.am  175  TYR175     -0.1962
     16  CA        -4.2820  110.6680  -33.1260 C.3   175  TYR175      0.1771
     17  C         -2.8630  110.5670  -32.6210 C.2   175  TYR175      0.2619
     18  O         -2.0530  109.8800  -33.2220 O.2   175  TYR175     -0.2715
     19  CB        -4.8470  109.2670  -33.3830 C.3   175  TYR175      0.0574
     20  CG        -4.6940  108.2840  -32.2410 C.ar  175  TYR175     -0.0198
     21  CD1       -5.5930  108.2790  -31.1770 C.ar  175  TYR175     -0.0009
     22  CD2       -3.7390  107.2650  -32.2980 C.ar  175  TYR175     -0.0009
     23  CE1       -5.4950  107.3340  -30.1500 C.ar  175  TYR175      0.0417
     24  CE2       -3.6370  106.3070  -31.2850 C.ar  175  TYR175      0.0417
     25  CZ        -4.5280  106.3380  -30.2190 C.ar  175  TYR175      0.1957
     26  OH        -4.4480  105.3760  -29.2210 O.3   175  TYR175     -0.2866
     27  N         -2.5490  111.2980  -31.5540 N.am  176  ALA176     -0.1977
     28  CA        -1.1790  111.7600  -31.3120 C.3   176  ALA176      0.1597
     29  C         -0.4840  112.1160  -32.6300 C.2   176  ALA176      0.2287
     30  O         -0.9100  113.0140  -33.3470 O.2   176  ALA176     -0.2864
     31  CB        -0.3770  110.6990  -30.5590 C.3   176  ALA176      0.0319
     32  N         -8.1610  101.4640  -28.4480 N.3   192  TYR192     -0.1227
     33  CA        -7.1000  102.4060  -28.7630 C.3   192  TYR192      0.1736
     34  C         -7.5860  103.8450  -28.6520 C.2   192  TYR192      0.2596
     35  O         -6.7800  104.7440  -28.4390 O.2   192  TYR192     -0.2718
     36  CB        -6.5010  102.1410  -30.1550 C.3   192  TYR192      0.0548
     37  CG        -5.5830  100.9430  -30.1490 C.ar  192  TYR192     -0.0200
     38  CD1       -6.1060   99.6500  -30.0510 C.ar  192  TYR192     -0.0009
     39  CD2       -4.2000  101.0990  -30.1180 C.ar  192  TYR192     -0.0009
     40  CE1       -5.2830   98.5570  -29.9760 C.ar  192  TYR192      0.0417
     41  CE2       -3.3650   99.9980  -30.0630 C.ar  192  TYR192      0.0417
     42  CZ        -3.9180   98.7330  -29.9570 C.ar  192  TYR192      0.1957
     43  OH        -3.1130   97.6210  -29.8590 O.3   192  TYR192     -0.2866
     44  N         -8.8910  104.0590  -28.8410 N.am  193  SER193     -0.1952
     45  CA        -9.4630  105.4130  -28.7940 C.3   193  SER193      0.1924
     46  C         -9.0660  106.2320  -30.0220 C.2   193  SER193      0.2314
     47  O         -8.7400  107.3910  -29.9040 O.2   193  SER193     -0.2863
     48  CB        -9.0100  106.1480  -27.5290 C.3   193  SER193      0.2116
     49  OG       -10.0150  107.0440  -27.0650 O.3   193  SER193     -0.2180
     50  N         -9.4210  108.4370  -33.3840 N.3   195  ASN195     -0.1240
     51  CA       -10.2780  109.6000  -33.5520 C.3   195  ASN195      0.1653
     52  C        -11.1080  109.5770  -34.8100 C.2   195  ASN195      0.2266
     53  O        -12.2700  109.9550  -34.7790 O.2   195  ASN195     -0.2867
     54  CB        -9.4690  110.8920  -33.4690 C.3   195  ASN195      0.1155
     55  CG        -9.0160  111.1800  -32.0610 C.2   195  ASN195      0.2627
     56  OD1       -9.7550  110.9390  -31.1100 O.2   195  ASN195     -0.2716
     57  ND2       -7.7580  111.5720  -31.9090 N.am  195  ASN195     -0.0877
     58  N         -4.8200  101.9840  -23.2910 N.3   306  THR306     -0.1218
     59  CA        -4.7420  103.4150  -22.9330 C.3   306  THR306      0.1862
     60  C         -4.7640  103.6650  -21.4300 C.2   306  THR306      0.2287
     61  O         -4.8090  104.8080  -20.9940 O.2   306  THR306     -0.2866
     62  CB        -5.9000  104.2110  -23.5610 C.3   306  THR306      0.1770
     63  OG1       -7.1550  103.7460  -23.0130 O.3   306  THR306     -0.2211
     64  CG2       -5.9080  104.0080  -25.0720 C.3   306  THR306      0.0375
     65  N         -7.9830  111.9830  -23.3820 N.3   331  THR331     -0.1203
     66  CA        -6.7690  112.7970  -23.4600 C.3   331  THR331      0.1994
     67  C         -7.0450  113.9470  -24.4300 C.2   331  THR331      0.2619
     68  O         -7.3640  113.6950  -25.5990 O.2   331  THR331     -0.2717
     69  CB        -5.6090  111.9830  -24.0940 C.3   331  THR331      0.1784
     70  OG1       -5.4550  110.7210  -23.4340 O.3   331  THR331     -0.2211
     71  CG2       -4.3200  112.7710  -24.0560 C.3   331  THR331      0.0376
     72  N         -6.9190  115.1960  -23.9760 N.am  332  THR332     -0.1938
     73  CA        -7.1390  116.3270  -24.8840 C.3   332  THR332      0.2028
     74  C         -5.9720  116.5430  -25.8510 C.2   332  THR332      0.2643
     75  O         -4.8960  115.9380  -25.7110 O.2   332  THR332     -0.2714
     76  CB        -7.5170  117.6760  -24.1630 C.3   332  THR332      0.1808
     77  OG1       -6.4810  118.0660  -23.2640 O.3   332  THR332     -0.2208
     78  CG2       -8.8160  117.5500  -23.3970 C.3   332  THR332      0.0379
     79  N         -6.1910  117.4180  -26.8260 N.am  333  GLY333     -0.1939
     80  CA        -5.3260  117.4940  -27.9950 C.3   333  GLY333      0.2014
     81  C         -3.8780  117.8050  -27.6700 C.2   333  GLY333      0.2639
     82  O         -2.9720  117.3580  -28.3830 O.2   333  GLY333     -0.2714
     83  N         -3.6420  118.5570  -26.5950 N.am  334  GLN334     -0.1963
     84  CA        -2.2570  118.8260  -26.1830 C.3   334  GLN334      0.1733
     85  C         -1.8780  118.2010  -24.8430 C.2   334  GLN334      0.2616
     86  O         -0.9140  118.6230  -24.2090 O.2   334  GLN334     -0.2715
     87  CB        -1.9530  120.3280  -26.1780 C.3   334  GLN334      0.0408
     88  CG        -1.9880  121.0020  -27.5540 C.3   334  GLN334      0.0908
     89  CD        -0.8270  120.6000  -28.4530 C.2   334  GLN334      0.2608
     90  OE1       -0.9900  120.4670  -29.6670 O.2   334  GLN334     -0.2717
     91  NE2        0.3530  120.4160  -27.8630 N.am  334  GLN334     -0.0878
     92  N         -2.6030  117.1620  -24.4380 N.am  335  ASP335     -0.1971
     93  CA        -2.3880  116.5660  -23.1300 C.3   335  ASP335      0.1709
     94  C         -2.6750  117.5760  -22.0060 C.2   335  ASP335      0.2293
     95  O         -2.0630  117.5250  -20.9440 O.2   335  ASP335     -0.2864
     96  CB        -0.9560  116.0120  -23.0050 C.3   335  ASP335      0.1436
     97  CG        -0.6420  114.9210  -24.0410 C.2   335  ASP335      0.3671
     98  OD1       -1.5610  114.2000  -24.4800 O.co2 335  ASP335     -0.2456
     99  OD2        0.5410  114.7660  -24.4020 O.co2 335  ASP335     -0.2456
    100  N          3.0450  112.9640  -21.5840 N.3   363  GLN363     -0.1245
    101  CA         2.3790  112.0370  -22.4960 C.3   363  GLN363      0.1566
    102  C          1.7420  110.8660  -21.7490 C.2   363  GLN363      0.2260
    103  O          0.6960  110.3760  -22.1380 O.2   363  GLN363     -0.2867
    104  CB         3.3720  111.5140  -23.5250 C.3   363  GLN363      0.0367
    105  CG         4.0940  112.6110  -24.2730 C.3   363  GLN363      0.0905
    106  CD         4.7080  112.1060  -25.5580 C.2   363  GLN363      0.2608
    107  OE1        4.8140  110.8970  -25.7690 O.2   363  GLN363     -0.2717
    108  NE2        5.0920  113.0250  -26.4370 N.am  363  GLN363     -0.0878
@<TRIPOS>BOND
     1    13    14    1
     2    13    12    1
     3    12    11    1
     4     7     8    1
     5     8    11    1
     6     8     9    1
     7    52    53    2
     8    52    51    1
     9     9    15   am
    10     9    10    2
    11    15    16    1
    12    51    54    1
    13    51    50    1
    14    54    55    1
    15    19    16    1
    16    19    20    1
    17    30    29    2
    18    18    17    2
    19    16    17    1
    20    29    28    1
    21    17    27   am
    22    22    20   ar
    23    22    24   ar
    24    20    21   ar
    25    55    57   am
    26    55    56    2
    27    27    28    1
    28    28    31    1
    29    24    25   ar
    30    21    23   ar
    31    25    23   ar
    32    25    26    1
    33    36    37    1
    34    36    33    1
    35    37    39   ar
    36    37    38   ar
    37    39    41   ar
    38    41    42   ar
    39    38    40   ar
    40    46    47    2
    41    46    45    1
    42    40    42   ar
    43    42    43    1
    44    90    89    2
    45    44    45    1
    46    44    34   am
    47    45    48    1
    48    33    34    1
    49    33    32    1
    50    34    35    2
    51    89    91   am
    52    89    88    1
    53    82    81    2
    54    80    81    1
    55    80    79    1
    56    81    83   am
    57    88    87    1
    58    48    49    1
    59     6     5    1
    60    79    74   am
    61    83    84    1
    62   108   106   am
    63     5     2    1
    64    84    87    1
    65    84    85    1
    66     2     1    1
    67     2     3    1
    68    74    75    2
    69    74    73    1
    70   107   106    2
    71     4     3    2
    72    68    67    2
    73   106   105    1
    74    64    62    1
    75    73    76    1
    76    73    72    1
    77    85    92   am
    78    85    86    2
    79    98    97   ar
    80    92    93    1
    81    67    72   am
    82    67    66    1
    83    99    97   ar
    84   105   104    1
    85    76    78    1
    86    76    77    1
    87    69    71    1
    88    69    66    1
    89    69    70    1
    90    97    96    1
    91    62    63    1
    92    62    59    1
    93   104   101    1
    94    66    65    1
    95    58    59    1
    96    93    96    1
    97    93    94    1
    98    59    60    1
    99   101   102    1
   100   101   100    1
   101   103   102    2
   102    94    95    2
   103    60    61    2
