@<TRIPOS>MOLECULE
tmp/2y2hB00.pdb
 111 103 0 0 0
SMALL
GASTEIGER

@<TRIPOS>ATOM
      1  N         49.2350   90.8410   58.0550 N.3   140  SER140     -0.1217
      2  CA        50.2280   91.0000   59.1220 C.3   140  SER140      0.1889
      3  C         51.6520   90.8940   58.5850 C.2   140  SER140      0.2288
      4  O         51.9990   89.9250   57.9280 O.2   140  SER140     -0.2866
      5  CB        50.0410   89.9500   60.2120 C.3   140  SER140      0.2089
      6  OG        50.9910   90.2010   61.2360 O.3   140  SER140     -0.2183
      7  N         53.9930   90.2290   60.3690 N.3   142  ALA142     -0.1231
      8  CA        54.6250   89.1980   61.2130 C.3   142  ALA142      0.1694
      9  C         55.9480   89.6880   61.8160 C.2   142  ALA142      0.2592
     10  O         56.0280   90.8190   62.2850 O.2   142  ALA142     -0.2718
     11  CB        54.8300   87.8810   60.4160 C.3   142  ALA142      0.0304
     12  N         56.9830   88.8410   61.8160 N.am  143  SER143     -0.1952
     13  CA        58.2700   89.2230   62.4170 C.3   143  SER143      0.1924
     14  C         59.0170   90.3640   61.7740 C.2   143  SER143      0.2314
     15  O         59.9580   90.8980   62.3820 O.2   143  SER143     -0.2863
     16  CB        59.2200   88.0450   62.5370 C.3   143  SER143      0.2116
     17  OG        58.6780   87.0550   63.3930 O.3   143  SER143     -0.2180
     18  N         59.4510   93.1960   64.0360 N.3   146  LYS146     -0.1245
     19  CA        60.3450   93.2540   65.2050 C.3   146  LYS146      0.1561
     20  C         61.4340   94.3790   65.1460 C.2   146  LYS146      0.2260
     21  O         61.5600   95.1600   66.0990 O.2   146  LYS146     -0.2867
     22  CB        60.9520   91.8840   65.4990 C.3   146  LYS146      0.0271
     23  CG        59.8870   90.8670   65.8760 C.3   146  LYS146      0.0035
     24  CD        60.4720   89.5100   65.9010 C.3   146  LYS146      0.0206
     25  CE        59.4450   88.5600   66.4640 C.3   146  LYS146      0.1093
     26  NZ        59.7570   87.1470   66.1200 N.3   146  LYS146     -0.1314
     27  N         51.7180   83.9950   77.7500 N.3   173  PHE173     -0.1241
     28  CA        50.8750   85.1780   77.6130 C.3   173  PHE173      0.1605
     29  C         50.0670   85.3710   78.8770 C.2   173  PHE173      0.2264
     30  O         50.1350   84.5250   79.7720 O.2   173  PHE173     -0.2867
     31  CB        49.9680   85.0120   76.4010 C.3   173  PHE173      0.0534
     32  CG        50.6820   85.1930   75.0880 C.ar  173  PHE173     -0.0203
     33  CD1       51.1500   86.4290   74.7130 C.ar  173  PHE173     -0.0042
     34  CD2       50.8490   84.1240   74.2210 C.ar  173  PHE173     -0.0042
     35  CE1       51.7810   86.6080   73.4980 C.ar  173  PHE173     -0.0003
     36  CE2       51.5040   84.2720   73.0000 C.ar  173  PHE173     -0.0003
     37  CZ        51.9690   85.5290   72.6330 C.ar  173  PHE173     -0.0000
     38  N         54.9280   80.8390   71.6750 N.3   180  MET180     -0.1230
     39  CA        55.4860   79.7370   70.9130 C.3   180  MET180      0.1702
     40  C         56.3030   80.3510   69.7950 C.2   180  MET180      0.2592
     41  O         56.0520   81.4810   69.3910 O.2   180  MET180     -0.2718
     42  CB        54.3670   78.8370   70.3590 C.3   180  MET180      0.0401
     43  CG        53.6040   78.0090   71.4180 C.3   180  MET180      0.0596
     44  SD        54.7160   76.7440   72.0510 S.3   180  MET180     -0.1393
     45  CE        54.8860   77.2320   73.7380 C.3   180  MET180      0.0692
     46  N         57.2970   79.6190   69.3100 N.am  181  TYR181     -0.1976
     47  CA        57.9560   79.9920   68.0770 C.3   181  TYR181      0.1639
     48  C         58.2210   78.7550   67.2530 C.2   181  TYR181      0.2290
     49  O         59.0060   77.8830   67.6560 O.2   181  TYR181     -0.2864
     50  CB        59.2550   80.7410   68.3240 C.3   181  TYR181      0.0560
     51  CG        59.9780   81.0430   67.0200 C.ar  181  TYR181     -0.0198
     52  CD1       59.4530   81.9760   66.1170 C.ar  181  TYR181     -0.0009
     53  CD2       61.1020   80.3120   66.6380 C.ar  181  TYR181     -0.0009
     54  CE1       60.0600   82.2040   64.9050 C.ar  181  TYR181      0.0417
     55  CE2       61.7490   80.5540   65.4370 C.ar  181  TYR181      0.0417
     56  CZ        61.2200   81.4920   64.5800 C.ar  181  TYR181      0.1957
     57  OH        61.8400   81.7120   63.3770 O.3   181  TYR181     -0.2866
     58  N         64.7800   84.7750   64.4750 N.3   199  SER199     -0.1217
     59  CA        63.4650   85.3940   64.5980 C.3   199  SER199      0.1889
     60  C         62.6000   84.8770   65.7660 C.2   199  SER199      0.2288
     61  O         61.3680   84.7990   65.6580 O.2   199  SER199     -0.2866
     62  CB        62.7070   85.3520   63.2550 C.3   199  SER199      0.2089
     63  OG        61.6870   86.3470   63.2000 O.3   199  SER199     -0.2183
     64  N         60.3710   84.6800   69.1960 N.3   201  ASN201     -0.1240
     65  CA        59.2850   85.5660   69.6390 C.3   201  ASN201      0.1653
     66  C         59.3810   86.1150   71.0720 C.2   201  ASN201      0.2266
     67  O         59.0050   87.2850   71.3400 O.2   201  ASN201     -0.2867
     68  CB        57.9260   84.8950   69.4590 C.3   201  ASN201      0.1155
     69  CG        57.5420   84.7390   68.0260 C.2   201  ASN201      0.2627
     70  OD1       57.8050   85.6100   67.1570 O.2   201  ASN201     -0.2716
     71  ND2       56.9440   83.6040   67.7360 N.am  201  ASN201     -0.0877
     72  N         51.3200   90.7820   71.5170 N.3   236  SER236     -0.1217
     73  CA        51.9670   90.0690   70.4260 C.3   236  SER236      0.1889
     74  C         52.1770   91.0680   69.3030 C.2   236  SER236      0.2288
     75  O         52.5930   90.7150   68.1910 O.2   236  SER236     -0.2866
     76  CB        51.1150   88.8730   69.9410 C.3   236  SER236      0.2089
     77  OG        49.8540   89.2800   69.4210 O.3   236  SER236     -0.2183
     78  N         55.2450   90.9760   67.2640 N.3   239  MET239     -0.1230
     79  CA        55.3580   89.8420   66.3930 C.3   239  MET239      0.1702
     80  C         54.4540   90.0260   65.2080 C.2   239  MET239      0.2593
     81  O         54.3650   89.1430   64.3590 O.2   239  MET239     -0.2718
     82  CB        54.9430   88.5660   67.0940 C.3   239  MET239      0.0401
     83  CG        55.9340   88.0860   68.1370 C.3   239  MET239      0.0596
     84  SD        55.4380   88.4820   69.8270 S.3   239  MET239     -0.1393
     85  CE        54.6670   86.9730   70.2840 C.3   239  MET239      0.0692
     86  N         53.7440   91.1420   65.1490 N.am  240  GLY240     -0.1942
     87  CA        52.8360   91.3430   64.0270 C.3   240  GLY240      0.2014
     88  C         51.3970   91.1020   64.3720 C.2   240  GLY240      0.2639
     89  O         50.5210   91.2550   63.5170 O.2   240  GLY240     -0.2714
     90  N         51.1300   90.8290   65.6530 N.am  241  GLY241     -0.1954
     91  CA        49.7600   90.6150   66.1170 C.3   241  GLY241      0.1869
     92  C         49.0380   91.9370   66.1810 C.2   241  GLY241      0.2309
     93  O         49.5680   92.8930   66.7190 O.2   241  GLY241     -0.2863
     94  N         56.9750   85.5010   58.9850 N.3   337  THR337     -0.1203
     95  CA        56.1160   84.3110   58.8160 C.3   337  THR337      0.1994
     96  C         54.9220   84.3350   59.7860 C.2   337  THR337      0.2619
     97  O         55.1180   84.4230   60.9890 O.2   337  THR337     -0.2717
     98  CB        56.9410   83.0010   59.0160 C.3   337  THR337      0.1784
     99  OG1       58.0400   82.9670   58.0830 O.3   337  THR337     -0.2211
    100  CG2       56.0700   81.7760   58.8460 C.3   337  THR337      0.0376
    101  N         53.6870   84.3300   59.2840 N.am  338  THR338     -0.1938
    102  CA        52.5320   84.2920   60.1950 C.3   338  THR338      0.2028
    103  C         52.3290   82.8670   60.7340 C.2   338  THR338      0.2642
    104  O         53.0120   81.9060   60.3300 O.2   338  THR338     -0.2714
    105  CB        51.2250   84.8650   59.5690 C.3   338  THR338      0.1808
    106  OG1       51.0190   84.2750   58.2760 O.3   338  THR338     -0.2208
    107  CG2       51.3180   86.4120   59.4160 C.3   338  THR338      0.0379
    108  N         51.4780   82.7570   61.7400 N.am  339  GLY339     -0.1954
    109  CA        51.4480   81.5770   62.6020 C.3   339  GLY339      0.1869
    110  C         51.1550   80.2910   61.8760 C.2   339  GLY339      0.2309
    111  O         51.6170   79.2080   62.2920 O.2   339  GLY339     -0.2863
@<TRIPOS>BOND
     1     4     3    2
     2     1     2    1
     3    99    98    1
     4   106   105    1
     5     3     2    1
     6    95    94    1
     7    95    98    1
     8    95    96    1
     9   100    98    1
    10     2     5    1
    11   101    96   am
    12   101   102    1
    13   107   105    1
    14   105   102    1
    15    96    97    2
    16   102   103    1
    17     5     6    1
    18   104   103    2
    19     7     8    1
    20    11     8    1
    21   103   108   am
    22     8     9    1
    23   108   109    1
    24    14    15    2
    25    14    13    1
    26    12     9   am
    27    12    13    1
    28     9    10    2
    29   110   111    2
    30   110   109    1
    31    13    16    1
    32    16    17    1
    33    63    62    1
    34    62    59    1
    35    57    56    1
    36    89    88    2
    37    87    88    1
    38    87    86    1
    39    18    19    1
    40    81    80    2
    41    88    90   am
    42    58    59    1
    43    56    54   ar
    44    56    55   ar
    45    59    60    1
    46    54    52   ar
    47    20    19    1
    48    20    21    2
    49    86    80   am
    50    19    22    1
    51    80    79    1
    52    55    53   ar
    53    22    23    1
    54    90    91    1
    55    61    60    2
    56    23    24    1
    57    24    25    1
    58    52    51   ar
    59    91    92    1
    60    26    25    1
    61    92    93    2
    62    79    82    1
    63    79    78    1
    64    53    51   ar
    65    51    50    1
    66    82    83    1
    67    70    69    2
    68    48    49    2
    69    48    47    1
    70    71    69   am
    71    69    68    1
    72    47    50    1
    73    47    46    1
    74    83    84    1
    75    75    74    2
    76    64    65    1
    77    74    73    1
    78    46    40   am
    79    41    40    2
    80    77    76    1
    81    68    65    1
    82    65    66    1
    83    40    39    1
    84    84    85    1
    85    76    73    1
    86    42    39    1
    87    42    43    1
    88    73    72    1
    89    39    38    1
    90    66    67    2
    91    43    44    1
    92    44    45    1
    93    37    36   ar
    94    37    35   ar
    95    36    34   ar
    96    35    33   ar
    97    34    32   ar
    98    33    32   ar
    99    32    31    1
   100    31    28    1
   101    28    27    1
   102    28    29    1
   103    29    30    2
