@<TRIPOS>MOLECULE
tmp/2y2iA00.pdb
 119 111 0 0 0
SMALL
GASTEIGER

@<TRIPOS>ATOM
      1  N         12.8870   15.9680   46.9090 N.3   136  SER136     -0.1217
      2  CA        13.2990   14.9350   45.9710 C.3   136  SER136      0.1889
      3  C         13.1820   15.4720   44.5220 C.2   136  SER136      0.2288
      4  O         12.1120   16.0000   44.1550 O.2   136  SER136     -0.2866
      5  CB        12.3880   13.7070   46.1270 C.3   136  SER136      0.2089
      6  OG        12.7190   12.8090   45.0700 O.3   136  SER136     -0.2183
      7  N         12.9000   13.5670   42.0300 N.3   138  ALA138     -0.1231
      8  CA        12.0330   12.5820   41.4160 C.3   138  ALA138      0.1694
      9  C         12.6260   12.1020   40.1010 C.2   138  ALA138      0.2592
     10  O         13.8370   11.8620   40.0080 O.2   138  ALA138     -0.2718
     11  CB        10.5610   13.1610   41.2690 C.3   138  ALA138      0.0304
     12  N         11.8160   11.9200   39.0600 N.am  139  SER139     -0.1952
     13  CA        12.3630   11.3660   37.8070 C.3   139  SER139      0.1924
     14  C         13.3130   12.2370   36.9880 C.2   139  SER139      0.2314
     15  O         13.9320   11.7290   36.0400 O.2   139  SER139     -0.2863
     16  CB        11.2130   10.9980   36.8320 C.3   139  SER139      0.2116
     17  OG        10.6090    9.8070   37.3090 O.3   139  SER139     -0.2180
     18  N         16.8590   10.6370   36.6180 N.3   142  LYS142     -0.1245
     19  CA        17.1680    9.5340   35.7410 C.3   142  LYS142      0.1561
     20  C         18.2620    9.8450   34.6880 C.2   142  LYS142      0.2260
     21  O         19.1720    9.0210   34.4890 O.2   142  LYS142     -0.2867
     22  CB        15.8930    9.0080   35.0440 C.3   142  LYS142      0.0271
     23  CG        14.9060    8.4070   36.0280 C.3   142  LYS142      0.0035
     24  CD        13.5260    8.2800   35.4110 C.3   142  LYS142      0.0206
     25  CE        12.6360    7.5050   36.3540 C.3   142  LYS142      0.1093
     26  NZ        11.1970    7.5550   35.8930 N.3   142  LYS142     -0.1314
     27  N         10.1530   -4.3620   44.0760 N.3   169  PHE169     -0.1241
     28  CA        11.2220   -3.9970   44.9930 C.3   169  PHE169      0.1605
     29  C         11.6140   -5.1980   45.8520 C.2   169  PHE169      0.2264
     30  O         10.9450   -6.2330   45.8290 O.2   169  PHE169     -0.2867
     31  CB        10.7980   -2.8070   45.8440 C.3   169  PHE169      0.0534
     32  CG        10.7660   -1.5080   45.0970 C.ar  169  PHE169     -0.0203
     33  CD1       11.9130   -1.0050   44.4950 C.ar  169  PHE169     -0.0042
     34  CD2        9.5890   -0.7620   45.0180 C.ar  169  PHE169     -0.0042
     35  CE1       11.9120    0.2650   43.8910 C.ar  169  PHE169     -0.0003
     36  CE2        9.5660    0.4780   44.3720 C.ar  169  PHE169     -0.0003
     37  CZ        10.7160    0.9810   43.7960 C.ar  169  PHE169     -0.0000
     38  N          7.0530   -2.2920   41.5160 N.3   175  ILE175     -0.1231
     39  CA         7.4910   -0.9890   41.1060 C.3   175  ILE175      0.1692
     40  C          6.4160   -0.4060   40.2010 C.2   175  ILE175      0.2592
     41  O          6.0410   -1.0350   39.2070 O.2   175  ILE175     -0.2718
     42  CB         8.8490   -1.0340   40.3630 C.3   175  ILE175      0.0266
     43  CG1        9.9000   -1.8120   41.1800 C.3   175  ILE175      0.0019
     44  CG2        9.3140    0.3750   40.0240 C.3   175  ILE175      0.0020
     45  CD1       11.3460   -1.5290   40.7350 C.3   175  ILE175      0.0001
     46  N          5.8790    0.7470   40.5930 N.am  176  MET176     -0.1965
     47  CA         4.7140    1.3500   39.9450 C.3   176  MET176      0.1736
     48  C          5.1250    2.5250   39.1020 C.2   176  MET176      0.2616
     49  O          6.1560    3.1120   39.3260 O.2   176  MET176     -0.2715
     50  CB         3.6820    1.8540   40.9850 C.3   176  MET176      0.0427
     51  CG         3.1420    0.7430   41.8370 C.3   176  MET176      0.0599
     52  SD         1.9110   -0.1550   40.9000 S.3   176  MET176     -0.1393
     53  CE         2.7980   -1.5000   40.3530 C.3   176  MET176      0.0692
     54  N          4.2830    2.8810   38.1460 N.am  177  TYR177     -0.1974
     55  CA         4.3840    4.1720   37.4570 C.3   177  TYR177      0.1639
     56  C          2.9640    4.5950   37.1560 C.2   177  TYR177      0.2290
     57  O          2.2380    3.8720   36.4770 O.2   177  TYR177     -0.2864
     58  CB         5.2050    4.0360   36.1780 C.3   177  TYR177      0.0560
     59  CG         4.9910    5.1830   35.1480 C.ar  177  TYR177     -0.0198
     60  CD1        3.9260    5.1260   34.2470 C.ar  177  TYR177     -0.0009
     61  CD2        5.8150    6.2580   35.1110 C.ar  177  TYR177     -0.0009
     62  CE1        3.7260    6.0980   33.2890 C.ar  177  TYR177      0.0417
     63  CE2        5.6080    7.3030   34.1540 C.ar  177  TYR177      0.0417
     64  CZ         4.5700    7.1820   33.2340 C.ar  177  TYR177      0.1957
     65  OH         4.3420    8.1470   32.2430 O.3   177  TYR177     -0.2866
     66  N          8.9400    8.5050   30.9750 N.3   195  SER195     -0.1217
     67  CA         9.4890    8.4660   32.3500 C.3   195  SER195      0.1889
     68  C          9.1200    7.2210   33.1190 C.2   195  SER195      0.2288
     69  O          8.8120    7.2700   34.3150 O.2   195  SER195     -0.2866
     70  CB         9.0600    9.7130   33.1580 C.3   195  SER195      0.2089
     71  OG        10.0870   10.0400   34.0970 O.3   195  SER195     -0.2183
     72  N          9.4470    3.9150   35.2690 N.3   197  ASN197     -0.1240
     73  CA        10.3080    3.6760   36.4490 C.3   197  ASN197      0.1653
     74  C         11.1660    2.4300   36.3810 C.2   197  ASN197      0.2266
     75  O         12.3750    2.4830   36.6660 O.2   197  ASN197     -0.2867
     76  CB         9.4740    3.6690   37.7440 C.3   197  ASN197      0.1155
     77  CG         9.0960    5.0510   38.1670 C.2   197  ASN197      0.2627
     78  OD1        9.8250    5.9870   37.8880 O.2   197  ASN197     -0.2716
     79  ND2        7.8790    5.2120   38.6470 N.am  197  ASN197     -0.0877
     80  N         15.4200    2.7610   44.8190 N.3   232  SER232     -0.1217
     81  CA        14.6740    3.8120   44.1370 C.3   232  SER232      0.1889
     82  C         15.5390    5.0570   43.8580 C.2   232  SER232      0.2288
     83  O         15.0150    6.0990   43.4250 O.2   232  SER232     -0.2866
     84  CB        13.4220    4.1650   44.9540 C.3   232  SER232      0.2089
     85  OG        13.8020    4.6460   46.2310 O.3   232  SER232     -0.2183
     86  N         15.0600    7.0960   40.6570 N.3   235  MET235     -0.1230
     87  CA        13.7710    7.7880   40.5930 C.3   235  MET235      0.1702
     88  C         13.7110    8.9050   41.6200 C.2   235  MET235      0.2593
     89  O         12.6570    9.4300   41.9440 O.2   235  MET235     -0.2718
     90  CB        12.6190    6.8090   40.8500 C.3   235  MET235      0.0401
     91  CG        12.5500    5.6780   39.8140 C.3   235  MET235      0.0596
     92  SD        13.4450    4.2170   40.3410 S.3   235  MET235     -0.1393
     93  CE        12.1060    3.4040   41.1850 C.3   235  MET235      0.0692
     94  N         14.8370    9.1880   42.2470 N.am  236  GLY236     -0.1942
     95  CA        14.8560   10.3200   43.1770 C.3   236  GLY236      0.2014
     96  C         14.6550    9.8930   44.6390 C.2   236  GLY236      0.2639
     97  O         14.6400   10.7500   45.5190 O.2   236  GLY236     -0.2714
     98  N         14.5490    8.5880   44.9240 N.am  237  GLY237     -0.1954
     99  CA        14.3840    8.1810   46.3350 C.3   237  GLY237      0.1869
    100  C         15.7070    8.3930   47.0580 C.2   237  GLY237      0.2309
    101  O         16.7320    7.9940   46.5560 O.2   237  GLY237     -0.2863
    102  N          8.2020   13.6900   38.7470 N.3   333  THR333     -0.1203
    103  CA         6.9730   13.6500   39.5610 C.3   333  THR333      0.1994
    104  C          7.1690   12.7170   40.7620 C.2   333  THR333      0.2619
    105  O          7.5590   11.5610   40.5790 O.2   333  THR333     -0.2717
    106  CB         5.7630   13.0140   38.7370 C.3   333  THR333      0.1784
    107  OG1        5.5240   13.7120   37.5180 O.3   333  THR333     -0.2211
    108  CG2        4.5450   13.0360   39.5820 C.3   333  THR333      0.0376
    109  N          6.8340   13.1560   41.9720 N.am  334  THR334     -0.1938
    110  CA         6.9610   12.2210   43.0890 C.3   334  THR334      0.2028
    111  C          5.7820   11.2200   43.2240 C.2   334  THR334      0.2642
    112  O          4.7720   11.2300   42.4410 O.2   334  THR334     -0.2714
    113  CB         7.5030   12.8660   44.4610 C.3   334  THR334      0.1808
    114  OG1        6.6440   13.8710   44.8910 O.3   334  THR334     -0.2208
    115  CG2        8.9250   13.4730   44.3330 C.3   334  THR334      0.0379
    116  N          5.9950   10.2380   44.0890 N.am  335  GLY335     -0.1954
    117  CA         5.0670    9.1090   44.1210 C.3   335  GLY335      0.1869
    118  C          3.6690    9.5210   44.5160 C.2   335  GLY335      0.2309
    119  O          2.6860    8.9480   44.0320 O.2   335  GLY335     -0.2863
@<TRIPOS>BOND
     1    66    67    1
     2    65    64    1
     3    67    68    1
     4    67    70    1
     5    68    69    2
     6    70    71    1
     7    64    62   ar
     8    64    63   ar
     9    62    60   ar
    10    63    61   ar
    11    60    59   ar
    12    21    20    2
    13    20    19    1
    14    22    19    1
    15    22    23    1
    16    61    59   ar
    17    59    58    1
    18    72    73    1
    19    24    23    1
    20    24    25    1
    21    19    18    1
    22    26    25    1
    23    15    14    2
    24    58    55    1
    25    74    73    1
    26    74    75    2
    27    73    76    1
    28    57    56    2
    29    16    17    1
    30    16    13    1
    31    14    13    1
    32    56    55    1
    33    55    54    1
    34   107   106    1
    35    76    77    1
    36    13    12    1
    37    78    77    2
    38    54    48   am
    39    77    79   am
    40   106   103    1
    41   106   108    1
    42   102   103    1
    43    12     9   am
    44    48    49    2
    45    48    47    1
    46    41    40    2
    47   103   104    1
    48    91    92    1
    49    91    90    1
    50    47    46    1
    51    47    50    1
    52    10     9    2
    53    44    42    1
    54     9     8    1
    55    40    46   am
    56    40    39    1
    57    92    93    1
    58    53    52    1
    59    42    39    1
    60    42    43    1
    61   105   104    2
    62    87    86    1
    63    87    90    1
    64    87    88    1
    65    45    43    1
    66   104   109   am
    67    52    51    1
    68    50    51    1
    69    39    38    1
    70    11     8    1
    71     8     7    1
    72    88    89    2
    73    88    94   am
    74   109   110    1
    75    94    95    1
    76   112   111    2
    77   110   111    1
    78   110   113    1
    79    95    96    1
    80   111   116   am
    81    83    82    2
    82    37    35   ar
    83    37    36   ar
    84    82    81    1
    85    35    33   ar
    86   119   118    2
    87    27    28    1
    88   116   117    1
    89   117   118    1
    90    81    80    1
    91    81    84    1
    92     4     3    2
    93   115   113    1
    94    36    34   ar
    95   113   114    1
    96    33    32   ar
    97     3     2    1
    98    96    98   am
    99    96    97    2
   100    98    99    1
   101    84    85    1
   102    28    31    1
   103    28    29    1
   104    34    32   ar
   105     6     5    1
   106    32    31    1
   107    30    29    2
   108     2     5    1
   109     2     1    1
   110    99   100    1
   111   101   100    2
