@<TRIPOS>MOLECULE
tmp/2y2jA00.pdb
 103 95 0 0 0
SMALL
GASTEIGER

@<TRIPOS>ATOM
      1  N         12.9070   15.8540   46.8710 N.3   138  SER138     -0.1217
      2  CA        13.2500   14.8790   45.8390 C.3   138  SER138      0.1889
      3  C         13.1360   15.4570   44.4090 C.2   138  SER138      0.2288
      4  O         12.0950   16.0020   44.0380 O.2   138  SER138     -0.2866
      5  CB        12.3810   13.6190   45.9520 C.3   138  SER138      0.2089
      6  OG        12.7650   12.7510   44.9050 O.3   138  SER138     -0.2183
      7  N         12.9330   13.4800   41.8170 N.3   140  ALA140     -0.1231
      8  CA        12.0000   12.5830   41.1860 C.3   140  ALA140      0.1694
      9  C         12.6440   12.0870   39.9170 C.2   140  ALA140      0.2592
     10  O         13.8650   11.9380   39.8580 O.2   140  ALA140     -0.2718
     11  CB        10.6370   13.2850   40.9190 C.3   140  ALA140      0.0304
     12  N         11.8690   11.9380   38.8530 N.am  141  SER141     -0.1952
     13  CA        12.4130   11.3830   37.6150 C.3   141  SER141      0.1924
     14  C         13.3940   12.2340   36.8200 C.2   141  SER141      0.2314
     15  O         14.0190   11.7310   35.8690 O.2   141  SER141     -0.2863
     16  CB        11.2570   10.9890   36.7080 C.3   141  SER141      0.2116
     17  OG        10.6000    9.8730   37.2680 O.3   141  SER141     -0.2180
     18  N         16.8570   10.6880   36.4450 N.3   144  LYS144     -0.1245
     19  CA        17.1930    9.5860   35.5630 C.3   144  LYS144      0.1561
     20  C         18.2540    9.9080   34.5030 C.2   144  LYS144      0.2260
     21  O         19.1250    9.0580   34.2480 O.2   144  LYS144     -0.2867
     22  CB        15.9380    8.9970   34.8730 C.3   144  LYS144      0.0271
     23  CG        14.9400    8.5060   35.8720 C.3   144  LYS144      0.0035
     24  CD        13.5550    8.4160   35.3030 C.3   144  LYS144      0.0206
     25  CE        12.8170    7.3560   36.1600 C.3   144  LYS144      0.1093
     26  NZ        11.3180    7.5180   36.0160 N.3   144  LYS144     -0.1314
     27  N         10.2500   -4.4850   43.9420 N.3   171  PHE171     -0.1241
     28  CA        11.3310   -4.1340   44.8770 C.3   171  PHE171      0.1605
     29  C         11.7240   -5.3500   45.7030 C.2   171  PHE171      0.2264
     30  O         11.0300   -6.3490   45.7120 O.2   171  PHE171     -0.2867
     31  CB        10.9040   -2.9840   45.7820 C.3   171  PHE171      0.0534
     32  CG        10.8440   -1.6610   45.0770 C.ar  171  PHE171     -0.0203
     33  CD1       11.9640   -1.1570   44.4030 C.ar  171  PHE171     -0.0042
     34  CD2        9.6670   -0.9280   45.0530 C.ar  171  PHE171     -0.0042
     35  CE1       11.9250    0.0710   43.7630 C.ar  171  PHE171     -0.0003
     36  CE2        9.6050    0.2890   44.3980 C.ar  171  PHE171     -0.0003
     37  CZ        10.7340    0.8030   43.7570 C.ar  171  PHE171     -0.0000
     38  N          4.4210    2.7220   38.1450 N.3   179  TYR179     -0.1241
     39  CA         4.6230    4.0030   37.5190 C.3   179  TYR179      0.1605
     40  C          3.2900    4.5110   37.1330 C.2   179  TYR179      0.2264
     41  O          2.5640    3.8280   36.4290 O.2   179  TYR179     -0.2867
     42  CB         5.5530    3.9340   36.3200 C.3   179  TYR179      0.0534
     43  CG         5.6050    5.2690   35.6120 C.ar  179  TYR179     -0.0201
     44  CD1        6.2220    6.3590   36.2000 C.ar  179  TYR179     -0.0009
     45  CD2        4.9100    5.4670   34.4260 C.ar  179  TYR179     -0.0009
     46  CE1        6.2330    7.6130   35.5780 C.ar  179  TYR179      0.0417
     47  CE2        4.8350    6.7230   33.8300 C.ar  179  TYR179      0.0417
     48  CZ         5.5480    7.7730   34.3820 C.ar  179  TYR179      0.1957
     49  OH         5.5160    8.9970   33.7780 O.3   179  TYR179     -0.2866
     50  N          8.9620    8.4740   30.8890 N.3   197  SER197     -0.1217
     51  CA         9.4690    8.4570   32.2800 C.3   197  SER197      0.1889
     52  C          9.1050    7.2190   33.0900 C.2   197  SER197      0.2288
     53  O          8.9470    7.2890   34.2840 O.2   197  SER197     -0.2866
     54  CB         9.0090    9.7010   33.0480 C.3   197  SER197      0.2089
     55  OG         9.9910   10.1110   33.9820 O.3   197  SER197     -0.2183
     56  N          9.4560    3.8550   35.2680 N.3   199  ASN199     -0.1240
     57  CA        10.3200    3.5900   36.4040 C.3   199  ASN199      0.1653
     58  C         11.2130    2.3670   36.2820 C.2   199  ASN199      0.2266
     59  O         12.4130    2.4480   36.5940 O.2   199  ASN199     -0.2867
     60  CB         9.5000    3.5370   37.7030 C.3   199  ASN199      0.1155
     61  CG         9.2020    4.9200   38.2190 C.2   199  ASN199      0.2627
     62  OD1        9.9350    5.8720   37.9180 O.2   199  ASN199     -0.2716
     63  ND2        8.1450    5.0540   38.9830 N.am  199  ASN199     -0.0877
     64  N         15.5740    2.6910   44.5530 N.3   234  SER234     -0.1217
     65  CA        14.9030    3.7800   43.8610 C.3   234  SER234      0.1889
     66  C         15.7360    5.0510   43.6810 C.2   234  SER234      0.2288
     67  O         15.1990    6.0940   43.2750 O.2   234  SER234     -0.2866
     68  CB        13.5730    4.1020   44.5340 C.3   234  SER234      0.2089
     69  OG        13.7590    4.5590   45.8500 O.3   234  SER234     -0.2183
     70  N         15.2400    7.0600   40.4470 N.3   237  MET237     -0.1230
     71  CA        13.9420    7.6760   40.2850 C.3   237  MET237      0.1702
     72  C         13.7760    8.8610   41.2030 C.2   237  MET237      0.2593
     73  O         12.7340    9.4530   41.1740 O.2   237  MET237     -0.2718
     74  CB        12.8510    6.6950   40.7220 C.3   237  MET237      0.0401
     75  CG        12.5900    5.6630   39.7070 C.3   237  MET237      0.0596
     76  SD        13.2770    4.1350   40.2310 S.3   237  MET237     -0.1393
     77  CE        11.8460    3.4580   40.9720 C.3   237  MET237      0.0692
     78  N         14.7190    9.1010   42.1150 N.am  238  GLY238     -0.1942
     79  CA        14.6510   10.2760   42.9820 C.3   238  GLY238      0.2014
     80  C         14.6020    9.9060   44.4430 C.2   238  GLY238      0.2639
     81  O         14.5960   10.7870   45.3090 O.2   238  GLY238     -0.2714
     82  N         14.5720    8.6060   44.7340 N.am  239  GLY239     -0.1954
     83  CA        14.5120    8.1510   46.1130 C.3   239  GLY239      0.1869
     84  C         15.8360    8.3610   46.8070 C.2   239  GLY239      0.2309
     85  O         16.8670    8.0260   46.2620 O.2   239  GLY239     -0.2863
     86  N          7.9890   13.8440   38.7650 N.3   335  THR335     -0.1203
     87  CA         6.7800   13.8240   39.5810 C.3   335  THR335      0.1994
     88  C          7.0880   12.8600   40.7350 C.2   335  THR335      0.2619
     89  O          7.4730   11.7090   40.4850 O.2   335  THR335     -0.2717
     90  CB         5.6310   13.1830   38.7560 C.3   335  THR335      0.1784
     91  OG1        5.4350   13.9160   37.5480 O.3   335  THR335     -0.2211
     92  CG2        4.3640   13.0600   39.5540 C.3   335  THR335      0.0376
     93  N          6.9020   13.2790   41.9820 N.am  336  THR336     -0.1938
     94  CA         7.1030   12.3240   43.0620 C.3   336  THR336      0.2028
     95  C          5.8900   11.4090   43.2380 C.2   336  THR336      0.2642
     96  O          4.8390   11.5990   42.5970 O.2   336  THR336     -0.2714
     97  CB         7.5170   12.9910   44.4330 C.3   336  THR336      0.1808
     98  OG1        6.5680   13.9950   44.7700 O.3   336  THR336     -0.2208
     99  CG2        8.9200   13.6170   44.3510 C.3   336  THR336      0.0379
    100  N          6.0250   10.4320   44.1310 N.am  337  GLY337     -0.1954
    101  CA         5.0450    9.3250   44.2080 C.3   337  GLY337      0.1869
    102  C          3.6090    9.6840   44.4990 C.2   337  GLY337      0.2309
    103  O          2.6870    9.0850   43.9390 O.2   337  GLY337     -0.2863
@<TRIPOS>BOND
     1    50    51    1
     2    51    54    1
     3    51    52    1
     4    54    55    1
     5    52    53    2
     6    49    48    1
     7    47    48   ar
     8    47    45   ar
     9    21    20    2
    10    48    46   ar
    11    45    43   ar
    12    20    19    1
    13    22    19    1
    14    22    23    1
    15    56    57    1
    16    24    23    1
    17    24    25    1
    18    19    18    1
    19    46    44   ar
    20    43    44   ar
    21    43    42    1
    22    15    14    2
    23    26    25    1
    24    58    57    1
    25    58    59    2
    26    42    39    1
    27    57    60    1
    28    41    40    2
    29    16    17    1
    30    16    13    1
    31    14    13    1
    32    40    39    1
    33    39    38    1
    34    91    90    1
    35    13    12    1
    36    60    61    1
    37    62    61    2
    38    61    63   am
    39    90    92    1
    40    90    87    1
    41    86    87    1
    42    12     9   am
    43    87    88    1
    44    75    76    1
    45    75    74    1
    46    10     9    2
    47     9     8    1
    48    76    77    1
    49    71    70    1
    50    71    74    1
    51    71    72    1
    52    89    88    2
    53    88    93   am
    54    11     8    1
    55    73    72    2
    56     8     7    1
    57    72    78   am
    58    93    94    1
    59    78    79    1
    60    96    95    2
    61    79    80    1
    62    94    95    1
    63    94    97    1
    64    95   100   am
    65    67    66    2
    66    66    65    1
    67    37    35   ar
    68    37    36   ar
    69    35    33   ar
    70    65    68    1
    71    65    64    1
    72   103   102    2
    73    27    28    1
    74     4     3    2
    75   100   101    1
    76   101   102    1
    77    99    97    1
    78    36    34   ar
    79    33    32   ar
    80     3     2    1
    81    97    98    1
    82    80    82   am
    83    80    81    2
    84    68    69    1
    85    82    83    1
    86    28    29    1
    87    28    31    1
    88     6     5    1
    89    34    32   ar
    90    32    31    1
    91    29    30    2
    92     2     5    1
    93     2     1    1
    94    83    84    1
    95    85    84    2
