@<TRIPOS>MOLECULE
tmp/2y2lB00.pdb
 116 108 0 0 0
SMALL
GASTEIGER

@<TRIPOS>ATOM
      1  N         94.6050   61.1790   58.5950 N.3   143  SER143     -0.1217
      2  CA        93.6490   60.9440   59.6670 C.3   143  SER143      0.1889
      3  C         92.2180   61.0530   59.1550 C.2   143  SER143      0.2288
      4  O         91.8600   62.0480   58.5330 O.2   143  SER143     -0.2866
      5  CB        93.8130   61.9570   60.8020 C.3   143  SER143      0.2089
      6  OG        92.8290   61.7140   61.8080 O.3   143  SER143     -0.2183
      7  N         89.7770   61.5330   61.0080 N.3   145  ALA145     -0.1231
      8  CA        89.1990   62.6060   61.7950 C.3   145  ALA145      0.1694
      9  C         87.8800   62.1360   62.4000 C.2   145  ALA145      0.2592
     10  O         87.7720   60.9880   62.8520 O.2   145  ALA145     -0.2718
     11  CB        88.9990   63.9190   60.9130 C.3   145  ALA145      0.0304
     12  N         86.8780   63.0240   62.4310 N.am  146  SER146     -0.1952
     13  CA        85.5810   62.6730   63.0110 C.3   146  SER146      0.1924
     14  C         84.7820   61.5630   62.2830 C.2   146  SER146      0.2314
     15  O         83.8260   61.0730   62.8540 O.2   146  SER146     -0.2863
     16  CB        84.7010   63.9170   63.1010 C.3   146  SER146      0.2116
     17  OG        85.2360   64.8380   64.0000 O.3   146  SER146     -0.2180
     18  N         84.3510   58.5750   64.4280 N.3   149  LYS149     -0.1245
     19  CA        83.4680   58.5210   65.5960 C.3   149  LYS149      0.1561
     20  C         82.4170   57.3920   65.5570 C.2   149  LYS149      0.2260
     21  O         82.2340   56.6930   66.5520 O.2   149  LYS149     -0.2867
     22  CB        82.8180   59.8900   65.8360 C.3   149  LYS149      0.0271
     23  CG        83.8510   60.9410   66.2640 C.3   149  LYS149      0.0035
     24  CD        83.2910   62.3730   66.3830 C.3   149  LYS149      0.0206
     25  CE        84.3730   63.2640   67.0190 C.3   149  LYS149      0.1093
     26  NZ        84.2420   64.6690   66.5370 N.3   149  LYS149     -0.1314
     27  N         91.9020   67.4190   78.5030 N.3   176  PHE176     -0.1241
     28  CA        92.8220   66.2910   78.3950 C.3   176  PHE176      0.1605
     29  C         93.6510   66.1410   79.6370 C.2   176  PHE176      0.2264
     30  O         93.7010   67.0420   80.4480 O.2   176  PHE176     -0.2867
     31  CB        93.7250   66.4350   77.1650 C.3   176  PHE176      0.0534
     32  CG        92.9800   66.3300   75.8380 C.ar  176  PHE176     -0.0203
     33  CD1       92.4460   65.1140   75.4170 C.ar  176  PHE176     -0.0042
     34  CD2       92.7700   67.4520   75.0410 C.ar  176  PHE176     -0.0042
     35  CE1       91.8050   64.9950   74.1730 C.ar  176  PHE176     -0.0003
     36  CE2       92.0950   67.3400   73.8090 C.ar  176  PHE176     -0.0003
     37  CZ        91.6150   66.1060   73.3870 C.ar  176  PHE176     -0.0000
     38  N         88.6880   70.8160   72.5580 N.3   183  MET183     -0.1230
     39  CA        88.1250   71.9410   71.7860 C.3   183  MET183      0.1702
     40  C         87.3470   71.3410   70.6450 C.2   183  MET183      0.2592
     41  O         87.5530   70.1900   70.3060 O.2   183  MET183     -0.2718
     42  CB        89.2250   72.8680   71.2200 C.3   183  MET183      0.0401
     43  CG        90.0980   73.5770   72.2720 C.3   183  MET183      0.0596
     44  SD        88.9200   74.6140   73.2230 S.3   183  MET183     -0.1393
     45  CE        88.4760   75.9420   72.0660 C.3   183  MET183      0.0692
     46  N         86.3670   72.0670   70.1310 N.am  184  TYR184     -0.1962
     47  CA        85.7460   71.7050   68.8720 C.3   184  TYR184      0.1771
     48  C         85.5510   73.0350   68.1750 C.2   184  TYR184      0.2619
     49  O         84.8690   73.9050   68.7120 O.2   184  TYR184     -0.2715
     50  CB        84.3710   71.0090   69.0640 C.3   184  TYR184      0.0574
     51  CG        83.6630   70.7980   67.7460 C.ar  184  TYR184     -0.0198
     52  CD1       84.1600   69.8870   66.8170 C.ar  184  TYR184     -0.0009
     53  CD2       82.6260   71.6250   67.3450 C.ar  184  TYR184     -0.0009
     54  CE1       83.5740   69.7430   65.5830 C.ar  184  TYR184      0.0417
     55  CE2       82.0110   71.4690   66.0990 C.ar  184  TYR184      0.0417
     56  CZ        82.5040   70.5430   65.2280 C.ar  184  TYR184      0.1957
     57  OH        81.9390   70.3910   63.9860 O.3   184  TYR184     -0.2866
     58  N         86.1280   73.1780   66.9870 N.am  185  ALA185     -0.1977
     59  CA        86.4890   74.5000   66.4390 C.3   185  ALA185      0.1597
     60  C         87.0480   75.4480   67.5120 C.2   185  ALA185      0.2287
     61  O         88.1200   75.2050   68.1240 O.2   185  ALA185     -0.2864
     62  CB        85.3170   75.1160   65.7330 C.3   185  ALA185      0.0319
     63  N         79.0390   66.8680   65.1290 N.3   202  SER202     -0.1217
     64  CA        80.4000   66.3280   65.2390 C.3   202  SER202      0.1889
     65  C         81.1620   66.8490   66.4680 C.2   202  SER202      0.2288
     66  O         82.3620   67.0750   66.3850 O.2   202  SER202     -0.2866
     67  CB        81.2310   66.5930   63.9630 C.3   202  SER202      0.2089
     68  OG        82.1920   65.5650   63.7740 O.3   202  SER202     -0.2183
     69  N         83.3420   66.9270   69.9270 N.3   204  ASN204     -0.1240
     70  CA        84.4680   66.0660   70.3160 C.3   204  ASN204      0.1653
     71  C         84.3650   65.4170   71.7090 C.2   204  ASN204      0.2266
     72  O         84.6060   64.2150   71.8540 O.2   204  ASN204     -0.2867
     73  CB        85.7940   66.8240   70.2250 C.3   204  ASN204      0.1155
     74  CG        86.2980   66.9420   68.8060 C.2   204  ASN204      0.2627
     75  OD1       86.9190   67.9280   68.4510 O.2   204  ASN204     -0.2716
     76  ND2       85.9840   65.9630   67.9740 N.am  204  ASN204     -0.0877
     77  N         92.4780   60.9760   72.1350 N.3   239  SER239     -0.1217
     78  CA        91.7830   61.5580   70.9630 C.3   239  SER239      0.1889
     79  C         91.5950   60.5720   69.8100 C.2   239  SER239      0.2288
     80  O         91.1130   60.9370   68.7280 O.2   239  SER239     -0.2866
     81  CB        92.4980   62.8050   70.4590 C.3   239  SER239      0.2089
     82  OG        93.8060   62.4660   69.9930 O.3   239  SER239     -0.2183
     83  N         88.4580   60.7440   67.7860 N.3   242  MET242     -0.1230
     84  CA        88.3790   61.8760   66.9080 C.3   242  MET242      0.1702
     85  C         89.3820   61.7340   65.7680 C.2   242  MET242      0.2593
     86  O         89.4140   62.5400   64.8610 O.2   242  MET242     -0.2718
     87  CB        88.6000   63.1380   67.7100 C.3   242  MET242      0.0401
     88  CG        87.5840   63.3020   68.8340 C.3   242  MET242      0.0596
     89  SD        88.2490   62.9320   70.4430 S.3   242  MET242     -0.1393
     90  CE        88.9760   64.5230   70.8250 C.3   242  MET242      0.0692
     91  N         90.0950   60.6200   65.7260 N.am  243  GLY243     -0.1942
     92  CA        91.0270   60.3990   64.6300 C.3   243  GLY243      0.2014
     93  C         92.4900   60.6240   64.9890 C.2   243  GLY243      0.2639
     94  O         93.3620   60.5160   64.1280 O.2   243  GLY243     -0.2714
     95  N         92.7610   61.0050   66.2340 N.am  244  GLY244     -0.1954
     96  CA        94.1290   61.1290   66.6900 C.3   244  GLY244      0.1869
     97  C         94.7780   59.7460   66.6420 C.2   244  GLY244      0.2309
     98  O         94.2270   58.7820   67.1730 O.2   244  GLY244     -0.2863
     99  N         86.9690   66.4680   59.5580 N.3   340  THR340     -0.1203
    100  CA        87.8390   67.6480   59.3740 C.3   340  THR340      0.1994
    101  C         89.0090   67.5070   60.3580 C.2   340  THR340      0.2619
    102  O         88.7790   67.4050   61.5430 O.2   340  THR340     -0.2717
    103  CB        87.0820   68.9780   59.6890 C.3   340  THR340      0.1784
    104  OG1       85.8600   69.0170   58.9470 O.3   340  THR340     -0.2211
    105  CG2       87.9590   70.2480   59.3160 C.3   340  THR340      0.0376
    106  N         90.2500   67.4520   59.8830 N.am  341  THR341     -0.1938
    107  CA        91.3890   67.5000   60.7980 C.3   341  THR341      0.2028
    108  C         91.6100   68.9190   61.3990 C.2   341  THR341      0.2642
    109  O         91.0040   69.8880   60.9630 O.2   341  THR341     -0.2714
    110  CB        92.7070   66.9760   60.1540 C.3   341  THR341      0.1808
    111  OG1       93.0050   67.7610   58.9910 O.3   341  THR341     -0.2208
    112  CG2       92.5810   65.4910   59.7680 C.3   341  THR341      0.0379
    113  N         92.4590   69.0210   62.4260 N.am  342  GLY342     -0.1954
    114  CA        92.4320   70.1780   63.3300 C.3   342  GLY342      0.1869
    115  C         92.8460   71.5040   62.7230 C.2   342  GLY342      0.2309
    116  O         92.4420   72.5460   63.1930 O.2   342  GLY342     -0.2863
@<TRIPOS>BOND
     1     4     3    2
     2     1     2    1
     3   104   103    1
     4   111   110    1
     5     3     2    1
     6   105   103    1
     7   100    99    1
     8   100   103    1
     9   100   101    1
    10     2     5    1
    11   112   110    1
    12   106   101   am
    13   106   107    1
    14   110   107    1
    15   101   102    2
    16   107   108    1
    17     5     6    1
    18    11     8    1
    19   109   108    2
    20     7     8    1
    21   108   113   am
    22     8     9    1
    23    14    15    2
    24    14    13    1
    25     9    12   am
    26     9    10    2
    27   113   114    1
    28    12    13    1
    29   115   116    2
    30   115   114    1
    31    13    16    1
    32    16    17    1
    33    68    67    1
    34    67    64    1
    35    57    56    1
    36    94    93    2
    37    18    19    1
    38    92    93    1
    39    92    91    1
    40    86    85    2
    41    93    95   am
    42    63    64    1
    43    56    54   ar
    44    56    55   ar
    45    64    65    1
    46    20    19    1
    47    20    21    2
    48    54    52   ar
    49    19    22    1
    50    91    85   am
    51    62    59    1
    52    85    84    1
    53    22    23    1
    54    55    53   ar
    55    95    96    1
    56    23    24    1
    57    24    25    1
    58    66    65    2
    59    59    58    1
    60    59    60    1
    61    26    25    1
    62    97    96    1
    63    97    98    2
    64    52    51   ar
    65    84    87    1
    66    84    83    1
    67    58    48   am
    68    53    51   ar
    69    60    61    2
    70    87    88    1
    71    51    50    1
    72    76    74   am
    73    48    49    2
    74    48    47    1
    75    75    74    2
    76    80    79    2
    77    74    73    1
    78    88    89    1
    79    47    50    1
    80    47    46    1
    81    79    78    1
    82    69    70    1
    83    82    81    1
    84    46    40   am
    85    73    70    1
    86    41    40    2
    87    70    71    1
    88    89    90    1
    89    81    78    1
    90    40    39    1
    91    78    77    1
    92    42    39    1
    93    42    43    1
    94    71    72    2
    95    39    38    1
    96    45    44    1
    97    43    44    1
    98    37    36   ar
    99    37    35   ar
   100    36    34   ar
   101    35    33   ar
   102    34    32   ar
   103    33    32   ar
   104    32    31    1
   105    31    28    1
   106    28    27    1
   107    28    29    1
   108    29    30    2
