@<TRIPOS>MOLECULE
tmp/2y2mA00.pdb
 116 108 0 0 0
SMALL
GASTEIGER

@<TRIPOS>ATOM
      1  N         11.6210   11.5480  -10.0020 N.3   141  SER141     -0.1217
      2  CA        12.2120   10.9400  -11.2160 C.3   141  SER141      0.1889
      3  C         13.2490   11.8120  -11.9170 C.2   141  SER141      0.2288
      4  O         13.8830   11.3630  -12.8860 O.2   141  SER141     -0.2866
      5  CB        11.0890   10.5840  -12.2180 C.3   141  SER141      0.2089
      6  OG        10.4350    9.4320  -11.7430 O.3   141  SER141     -0.2183
      7  N         16.7720   10.4360  -12.2730 N.3   144  LYS144     -0.1245
      8  CA        17.1160    9.3580  -13.2070 C.3   144  LYS144      0.1561
      9  C         18.2420    9.7020  -14.2070 C.2   144  LYS144      0.2260
     10  O         19.1730    8.8720  -14.3950 O.2   144  LYS144     -0.2867
     11  CB        15.8350    8.8700  -13.9570 C.3   144  LYS144      0.0271
     12  CG        14.9920    8.0070  -13.0720 C.3   144  LYS144      0.0035
     13  CD        13.6050    7.7700  -13.7500 C.3   144  LYS144      0.0206
     14  CE        12.6210    7.1570  -12.7940 C.3   144  LYS144      0.1093
     15  NZ        11.2070    6.9740  -13.3880 N.3   144  LYS144     -0.1314
     16  N          6.1090   -0.1060   -9.2130 N.3   178  MET178     -0.1230
     17  CA         4.9050    0.3960   -9.8790 C.3   178  MET178      0.1702
     18  C          5.1860    1.6240  -10.7150 C.2   178  MET178      0.2592
     19  O          6.0840    2.3980  -10.4080 O.2   178  MET178     -0.2718
     20  CB         3.8250    0.7430   -8.8320 C.3   178  MET178      0.0401
     21  CG         3.2900   -0.4950   -8.0800 C.3   178  MET178      0.0596
     22  SD         2.5280   -1.8290   -9.0590 S.3   178  MET178     -0.1393
     23  CE         1.1430   -0.9010   -9.7700 C.3   178  MET178      0.0692
     24  N          4.3040    1.8860  -11.6930 N.am  179  TYR179     -0.1962
     25  CA         4.2920    3.1690  -12.4130 C.3   179  TYR179      0.1771
     26  C          2.8010    3.4960  -12.6000 C.2   179  TYR179      0.2619
     27  O          2.1010    2.7810  -13.3210 O.2   179  TYR179     -0.2715
     28  CB         4.9840    2.9870  -13.7690 C.3   179  TYR179      0.0574
     29  CG         4.8510    4.1680  -14.7130 C.ar  179  TYR179     -0.0198
     30  CD1        5.7660    5.2350  -14.6900 C.ar  179  TYR179     -0.0009
     31  CD2        3.7930    4.2100  -15.6350 C.ar  179  TYR179     -0.0009
     32  CE1        5.6530    6.2830  -15.5790 C.ar  179  TYR179      0.0417
     33  CE2        3.6890    5.2390  -16.5600 C.ar  179  TYR179      0.0417
     34  CZ         4.6150    6.2350  -16.5620 C.ar  179  TYR179      0.1957
     35  OH         4.4290    7.2920  -17.4350 O.3   179  TYR179     -0.2866
     36  N          2.3240    4.4860  -11.8360 N.am  180  ALA180     -0.1977
     37  CA         0.9000    4.5770  -11.4350 C.3   180  ALA180      0.1597
     38  C          0.2790    3.1950  -11.1520 C.2   180  ALA180      0.2287
     39  O          0.7760    2.4400  -10.2990 O.2   180  ALA180     -0.2864
     40  CB         0.1120    5.3280  -12.4940 C.3   180  ALA180      0.0319
     41  N          8.5650    8.4310  -20.8170 N.3   196  TYR196     -0.1227
     42  CA         7.4330    8.0520  -19.9480 C.3   196  TYR196      0.1736
     43  C          7.8120    8.1460  -18.4620 C.2   196  TYR196      0.2596
     44  O          6.9520    8.2760  -17.6040 O.2   196  TYR196     -0.2718
     45  CB         7.0020    6.6190  -20.2860 C.3   196  TYR196      0.0548
     46  CG         6.0680    6.6210  -21.4470 C.ar  196  TYR196     -0.0200
     47  CD1        6.5530    6.7700  -22.7540 C.ar  196  TYR196     -0.0009
     48  CD2        4.6850    6.4870  -21.2530 C.ar  196  TYR196     -0.0009
     49  CE1        5.6740    6.7560  -23.8540 C.ar  196  TYR196      0.0417
     50  CE2        3.8150    6.5090  -22.3310 C.ar  196  TYR196      0.0417
     51  CZ         4.3250    6.6460  -23.6140 C.ar  196  TYR196      0.1957
     52  OH         3.4730    6.6400  -24.6850 O.3   196  TYR196     -0.2866
     53  N          9.1070    8.1690  -18.1790 N.am  197  SER197     -0.1952
     54  CA         9.5980    8.0260  -16.7950 C.3   197  SER197      0.1924
     55  C          9.2190    6.7030  -16.1510 C.2   197  SER197      0.2314
     56  O          8.9310    6.6470  -14.9650 O.2   197  SER197     -0.2863
     57  CB         9.1160    9.2170  -15.9080 C.3   197  SER197      0.2116
     58  OG        10.1480    9.5450  -15.0020 O.3   197  SER197     -0.2180
     59  N          9.6230    3.2570  -14.2010 N.3   199  ASN199     -0.1240
     60  CA        10.4570    3.0480  -13.0230 C.3   199  ASN199      0.1653
     61  C         11.3250    1.7980  -13.0500 C.2   199  ASN199      0.2266
     62  O         12.4920    1.8800  -12.6950 O.2   199  ASN199     -0.2867
     63  CB         9.5850    3.0490  -11.7750 C.3   199  ASN199      0.1155
     64  CG         9.0510    4.4230  -11.5050 C.2   199  ASN199      0.2627
     65  OD1        9.7650    5.3890  -11.6800 O.2   199  ASN199     -0.2716
     66  ND2        7.7780    4.5240  -11.2180 N.am  199  ASN199     -0.0877
     67  N         14.4760    6.9760   -8.5000 N.3   237  MET237     -0.1245
     68  CA        13.1400    7.5130   -8.3790 C.3   237  MET237      0.1570
     69  C         13.0360    8.5520   -7.2620 C.2   237  MET237      0.2261
     70  O         11.9460    9.0390   -6.9890 O.2   237  MET237     -0.2867
     71  CB        12.1410    6.3720   -8.1240 C.3   237  MET237      0.0387
     72  CG        12.0460    5.3960   -9.3290 C.3   237  MET237      0.0595
     73  SD        13.4360    4.2050   -9.1790 S.3   237  MET237     -0.1393
     74  CE        12.6170    2.6610   -8.8200 C.3   237  MET237      0.0692
     75  N          4.9240   13.4020  -20.2160 N.3   310  THR310     -0.1218
     76  CA         4.8920   13.7210  -18.7630 C.3   310  THR310      0.1862
     77  C          4.7720   15.1880  -18.4300 C.2   310  THR310      0.2287
     78  O          4.6810   15.5780  -17.2540 O.2   310  THR310     -0.2866
     79  CB         6.0740   13.1340  -17.9930 C.3   310  THR310      0.1770
     80  OG1        7.2780   13.7160  -18.4670 O.3   310  THR310     -0.2211
     81  CG2        6.0640   11.5770  -18.1600 C.3   310  THR310      0.0375
     82  N          7.7840   13.2350  -10.2070 N.3   335  THR335     -0.1203
     83  CA         6.5640   13.1970   -9.3770 C.3   335  THR335      0.1994
     84  C          6.8370   12.2240   -8.2100 C.2   335  THR335      0.2619
     85  O          7.1380   11.0330   -8.4780 O.2   335  THR335     -0.2717
     86  CB         5.4090   12.5440  -10.2430 C.3   335  THR335      0.1784
     87  OG1        5.3200   13.1540  -11.5400 O.3   335  THR335     -0.2211
     88  CG2        4.0680   12.5890   -9.5290 C.3   335  THR335      0.0376
     89  N          6.6470   12.6270   -6.9470 N.am  336  THR336     -0.1938
     90  CA         6.8900   11.6420   -5.8950 C.3   336  THR336      0.2028
     91  C          5.6580   10.7270   -5.7600 C.2   336  THR336      0.2642
     92  O          4.5790   10.9830   -6.3370 O.2   336  THR336     -0.2714
     93  CB         7.3390   12.2710   -4.4820 C.3   336  THR336      0.1808
     94  OG1        6.4100   13.2820   -4.0950 O.3   336  THR336     -0.2208
     95  CG2        8.6980   12.9040   -4.5710 C.3   336  THR336      0.0379
     96  N          5.8330    9.6690   -4.9720 N.am  337  GLY337     -0.1954
     97  CA         4.8660    8.5550   -4.8910 C.3   337  GLY337      0.1869
     98  C          3.4190    8.9510   -4.6840 C.2   337  GLY337      0.2309
     99  O          2.5290    8.4350   -5.3800 O.2   337  GLY337     -0.2863
    100  N          2.3090   11.9870   -5.1050 N.3   339  ASP339     -0.1239
    101  CA         2.0750   13.2720   -5.7190 C.3   339  ASP339      0.1674
    102  C          2.3630   14.3780   -4.6720 C.2   339  ASP339      0.2266
    103  O          1.7770   15.4500   -4.7390 O.2   339  ASP339     -0.2867
    104  CB         0.5900   13.3820   -6.1510 C.3   339  ASP339      0.1410
    105  CG         0.2310   12.4830   -7.3670 C.2   339  ASP339      0.3668
    106  OD1        1.1390   12.0800   -8.1390 O.co2 339  ASP339     -0.2456
    107  OD2       -0.9870   12.2350   -7.5740 O.co2 339  ASP339     -0.2456
    108  N         -3.2830   14.8630   -9.3150 N.3   367  GLN367     -0.1245
    109  CA        -2.5080   13.9670  -10.1870 C.3   367  GLN367      0.1566
    110  C         -1.8620   14.7150  -11.3500 C.2   367  GLN367      0.2260
    111  O         -0.7920   14.3320  -11.8020 O.2   367  GLN367     -0.2867
    112  CB        -3.4050   12.8270  -10.7170 C.3   367  GLN367      0.0367
    113  CG        -3.8850   11.9230   -9.5770 C.3   367  GLN367      0.0905
    114  CD        -4.6480   10.7170  -10.0880 C.2   367  GLN367      0.2608
    115  OE1       -5.3490   10.7990  -11.1020 O.2   367  GLN367     -0.2717
    116  NE2       -4.4980    9.5840   -9.4070 N.am  367  GLN367     -0.0878
@<TRIPOS>BOND
     1    52    51    1
     2    49    51   ar
     3    49    47   ar
     4    51    50   ar
     5    47    46   ar
     6    50    48   ar
     7    46    48   ar
     8    46    45    1
     9    41    42    1
    10    45    42    1
    11    75    76    1
    12    42    43    1
    13    76    77    1
    14    76    79    1
    15    80    79    1
    16    43    53   am
    17    43    44    2
    18    77    78    2
    19    53    54    1
    20    81    79    1
    21    35    34    1
    22    54    55    1
    23    54    57    1
    24    34    33   ar
    25    34    32   ar
    26    33    31   ar
    27    55    56    2
    28    57    58    1
    29    31    29   ar
    30    32    30   ar
    31    29    30   ar
    32    29    28    1
    33    10     9    2
    34     9     8    1
    35    59    60    1
    36    11     8    1
    37    11    12    1
    38    28    25    1
    39    13    12    1
    40    13    14    1
    41    15    14    1
    42    27    26    2
    43     8     7    1
    44    61    60    1
    45    61    62    2
    46    60    63    1
    47     4     3    2
    48    26    25    1
    49    26    36   am
    50    40    37    1
    51    25    24    1
    52     5     6    1
    53     5     2    1
    54     3     2    1
    55    36    37    1
    56   111   110    2
    57    63    64    1
    58    24    18   am
    59    65    64    2
    60    87    86    1
    61    64    66   am
    62    37    38    1
    63   110   109    1
    64     2     1    1
    65    38    39    2
    66   115   114    2
    67   112   109    1
    68   112   113    1
    69    18    19    2
    70    18    17    1
    71    86    88    1
    72    86    83    1
    73    82    83    1
    74   109   108    1
    75   114   113    1
    76   114   116   am
    77    17    16    1
    78    17    20    1
    79    23    22    1
    80    83    84    1
    81    72    73    1
    82    72    71    1
    83    73    74    1
    84    22    21    1
    85    20    21    1
    86    67    68    1
    87    85    84    2
    88    68    71    1
    89    68    69    1
    90    84    89   am
    91   106   105   ar
    92   107   105   ar
    93   105   104    1
    94    69    70    2
    95    89    90    1
    96    92    91    2
    97   104   101    1
    98    90    91    1
    99    90    93    1
   100    91    96   am
   101   101   100    1
   102   101   102    1
   103    99    98    2
   104    96    97    1
   105    97    98    1
   106   103   102    2
   107    95    93    1
   108    93    94    1
