@<TRIPOS>MOLECULE
tmp/2y2nA00.pdb
 142 133 0 0 0
SMALL
GASTEIGER

@<TRIPOS>ATOM
      1  N         11.4460   11.6320  -10.0180 N.3   139  SER139     -0.1217
      2  CA        12.0210   11.1220  -11.2610 C.3   139  SER139      0.1889
      3  C         13.0140   12.0200  -11.9670 C.2   139  SER139      0.2288
      4  O         13.6670   11.5460  -12.9050 O.2   139  SER139     -0.2866
      5  CB        10.9470   10.7340  -12.2620 C.3   139  SER139      0.2089
      6  OG        10.1640    9.6640  -11.7590 O.3   139  SER139     -0.2183
      7  N         16.6630   10.5910  -12.2660 N.3   142  LYS142     -0.1245
      8  CA        16.9920    9.5030  -13.2060 C.3   142  LYS142      0.1561
      9  C         18.1270    9.8540  -14.1910 C.2   142  LYS142      0.2260
     10  O         19.1040    9.1060  -14.2870 O.2   142  LYS142     -0.2867
     11  CB        15.7390    9.0330  -13.9720 C.3   142  LYS142      0.0271
     12  CG        14.7990    8.1390  -13.1700 C.3   142  LYS142      0.0035
     13  CD        13.4370    7.9270  -13.8810 C.3   142  LYS142      0.0206
     14  CE        12.3430    7.7140  -12.8720 C.3   142  LYS142      0.1093
     15  NZ        11.1410    6.9780  -13.2790 N.3   142  LYS142     -0.1314
     16  N          5.7970    0.0640   -9.1240 N.3   176  MET176     -0.1230
     17  CA         4.6500    0.6640   -9.8040 C.3   176  MET176      0.1702
     18  C          4.9880    1.8830  -10.6700 C.2   176  MET176      0.2592
     19  O          5.9720    2.6140  -10.4570 O.2   176  MET176     -0.2718
     20  CB         3.5080    1.0060   -8.8270 C.3   176  MET176      0.0401
     21  CG         2.8920   -0.1680   -8.0310 C.3   176  MET176      0.0596
     22  SD         2.4410   -1.6180   -8.9780 S.3   176  MET176     -0.1393
     23  CE         0.9700   -1.0250   -9.8430 C.3   176  MET176      0.0692
     24  N          4.1660    2.0830  -11.6920 N.am  177  TYR177     -0.1962
     25  CA         4.1070    3.3650  -12.3890 C.3   177  TYR177      0.1771
     26  C          2.6400    3.6790  -12.5450 C.2   177  TYR177      0.2619
     27  O          1.9140    2.9240  -13.2150 O.2   177  TYR177     -0.2715
     28  CB         4.7600    3.2360  -13.7570 C.3   177  TYR177      0.0574
     29  CG         4.5820    4.4360  -14.6630 C.ar  177  TYR177     -0.0198
     30  CD1        3.4880    4.5170  -15.5300 C.ar  177  TYR177     -0.0009
     31  CD2        5.5580    5.4390  -14.7170 C.ar  177  TYR177     -0.0009
     32  CE1        3.3540    5.5830  -16.4100 C.ar  177  TYR177      0.0417
     33  CE2        5.4620    6.5460  -15.6200 C.ar  177  TYR177      0.0417
     34  CZ         4.2410    6.7220  -16.2770 C.ar  177  TYR177      0.1957
     35  OH         4.2270    7.5550  -17.3920 O.3   177  TYR177     -0.2866
     36  N          2.1810    4.7110  -11.8350 N.am  178  ALA178     -0.1977
     37  CA         0.7590    4.8380  -11.4810 C.3   178  ALA178      0.1597
     38  C          0.1190    3.4590  -11.2260 C.2   178  ALA178      0.2287
     39  O          0.5640    2.7300  -10.3450 O.2   178  ALA178     -0.2864
     40  CB         0.0060    5.6670  -12.5500 C.3   178  ALA178      0.0319
     41  N          8.3940    8.6200  -20.8570 N.3   194  TYR194     -0.1227
     42  CA         7.2850    8.2220  -19.9880 C.3   194  TYR194      0.1736
     43  C          7.6510    8.3320  -18.5130 C.2   194  TYR194      0.2596
     44  O          6.7720    8.4330  -17.6680 O.2   194  TYR194     -0.2718
     45  CB         6.8590    6.7870  -20.2800 C.3   194  TYR194      0.0548
     46  CG         5.9450    6.7410  -21.4640 C.ar  194  TYR194     -0.0200
     47  CD1        6.4640    6.8670  -22.7430 C.ar  194  TYR194     -0.0009
     48  CD2        4.5670    6.6750  -21.3110 C.ar  194  TYR194     -0.0009
     49  CE1        5.6690    6.8880  -23.8300 C.ar  194  TYR194      0.0417
     50  CE2        3.7480    6.6700  -22.4220 C.ar  194  TYR194      0.0417
     51  CZ         4.3240    6.8320  -23.6690 C.ar  194  TYR194      0.1957
     52  OH         3.5890    6.8300  -24.7970 O.3   194  TYR194     -0.2866
     53  N          8.9500    8.3210  -18.2180 N.am  195  SER195     -0.1952
     54  CA         9.4140    8.2180  -16.8280 C.3   195  SER195      0.1924
     55  C          9.0890    6.8720  -16.1530 C.2   195  SER195      0.2314
     56  O          8.8240    6.8220  -14.9550 O.2   195  SER195     -0.2863
     57  CB         8.8510    9.3760  -15.9790 C.3   195  SER195      0.2116
     58  OG         9.8860    9.8180  -15.0900 O.3   195  SER195     -0.2180
     59  N          9.4800    3.4970  -14.1910 N.3   197  ASN197     -0.1240
     60  CA        10.3530    3.2660  -13.0440 C.3   197  ASN197      0.1653
     61  C         11.2100    2.0100  -13.1370 C.2   197  ASN197      0.2266
     62  O         12.3890    2.0470  -12.8250 O.2   197  ASN197     -0.2867
     63  CB         9.5120    3.2890  -11.7860 C.3   197  ASN197      0.1155
     64  CG         8.9240    4.6660  -11.5520 C.2   197  ASN197      0.2627
     65  OD1        9.5860    5.6930  -11.8210 O.2   197  ASN197     -0.2716
     66  ND2        7.6950    4.7120  -11.0760 N.am  197  ASN197     -0.0877
     67  N         14.3030    7.1610   -8.4220 N.3   235  MET235     -0.1245
     68  CA        12.9330    7.7190   -8.3860 C.3   235  MET235      0.1570
     69  C         12.8060    8.7970   -7.2860 C.2   235  MET235      0.2261
     70  O         11.7090    9.2910   -7.0040 O.2   235  MET235     -0.2867
     71  CB        11.9210    6.5840   -8.1100 C.3   235  MET235      0.0387
     72  CG        11.7040    5.5790   -9.2460 C.3   235  MET235      0.0595
     73  SD        12.6600    4.0440   -9.1370 S.3   235  MET235     -0.1393
     74  CE        14.2690    4.6240   -9.5390 C.3   235  MET235      0.0692
     75  N          4.7850   13.7530  -23.1650 N.3   307  VAL307     -0.1231
     76  CA         4.1420   12.6770  -22.3990 C.3   307  VAL307      0.1692
     77  C          3.8990   13.0860  -20.9500 C.2   307  VAL307      0.2592
     78  O          2.7710   12.9700  -20.4440 O.2   307  VAL307     -0.2718
     79  CB         4.8800   11.3190  -22.5250 C.3   307  VAL307      0.0266
     80  CG1        4.1720   10.2280  -21.6490 C.3   307  VAL307      0.0020
     81  CG2        4.8800   10.8970  -24.0010 C.3   307  VAL307      0.0020
     82  N          4.9180   13.6630  -20.3040 N.am  308  THR308     -0.1953
     83  CA         4.8100   13.9450  -18.8710 C.3   308  THR308      0.1897
     84  C          4.6640   15.4160  -18.4750 C.2   308  THR308      0.2313
     85  O          4.5600   15.7420  -17.2830 O.2   308  THR308     -0.2863
     86  CB         5.9360   13.2570  -18.1030 C.3   308  THR308      0.1794
     87  OG1        7.1920   13.8180  -18.5010 O.3   308  THR308     -0.2208
     88  CG2        5.8920   11.7350  -18.3990 C.3   308  THR308      0.0378
     89  N         10.7660   16.0330  -16.0230 N.3   331  THR331     -0.1218
     90  CA         9.7460   16.1920  -14.9850 C.3   331  THR331      0.1862
     91  C         10.0150   15.2120  -13.8390 C.2   331  THR331      0.2287
     92  O         10.6810   14.1600  -14.0370 O.2   331  THR331     -0.2866
     93  CB         8.4310   15.7530  -15.5480 C.3   331  THR331      0.1770
     94  OG1        8.6170   14.4380  -16.1400 O.3   331  THR331     -0.2211
     95  CG2        8.0050   16.7630  -16.6060 C.3   331  THR331      0.0375
     96  N          7.6040   13.5030  -10.3120 N.3   333  THR333     -0.1203
     97  CA         6.3210   13.3810   -9.5960 C.3   333  THR333      0.1994
     98  C          6.5880   12.3950   -8.4410 C.2   333  THR333      0.2619
     99  O          7.0630   11.2860   -8.7190 O.2   333  THR333     -0.2717
    100  CB         5.2010   12.7470  -10.5330 C.3   333  THR333      0.1784
    101  OG1        5.1140   13.4330  -11.7990 O.3   333  THR333     -0.2211
    102  CG2        3.8500   12.7760   -9.8520 C.3   333  THR333      0.0376
    103  N          6.3440   12.7720   -7.1730 N.am  334  THR334     -0.1938
    104  CA         6.5180   11.7930   -6.0910 C.3   334  THR334      0.2028
    105  C          5.2630   10.9160   -5.9820 C.2   334  THR334      0.2642
    106  O          4.1510   11.3260   -6.3930 O.2   334  THR334     -0.2714
    107  CB         6.9050   12.3710   -4.6820 C.3   334  THR334      0.1808
    108  OG1        6.0490   13.4490   -4.3180 O.3   334  THR334     -0.2208
    109  CG2        8.3430   12.8020   -4.6030 C.3   334  THR334      0.0379
    110  N          5.4630    9.7360   -5.3910 N.am  335  GLY335     -0.1954
    111  CA         4.4900    8.6380   -5.3690 C.3   335  GLY335      0.1869
    112  C          3.0850    8.9830   -4.8950 C.2   335  GLY335      0.2309
    113  O          2.1140    8.3830   -5.3510 O.2   335  GLY335     -0.2863
    114  N          2.0510   12.1540   -5.1840 N.3   337  ASP337     -0.1239
    115  CA         1.8990   13.4890   -5.7350 C.3   337  ASP337      0.1674
    116  C          2.2380   14.5770   -4.7010 C.2   337  ASP337      0.2266
    117  O          1.5530   15.5940   -4.6560 O.2   337  ASP337     -0.2867
    118  CB         0.4420   13.7340   -6.1770 C.3   337  ASP337      0.1410
    119  CG        -0.0690   12.7130   -7.1980 C.2   337  ASP337      0.3668
    120  OD1        0.7100   12.2370   -8.0600 O.co2 337  ASP337     -0.2456
    121  OD2       -1.2920   12.4380   -7.1670 O.co2 337  ASP337     -0.2456
    122  N         -3.2700   15.0280   -9.1710 N.3   365  GLN365     -0.1245
    123  CA        -2.6180   14.1370  -10.1220 C.3   365  GLN365      0.1566
    124  C         -1.8990   14.8760  -11.2590 C.2   365  GLN365      0.2260
    125  O         -0.8480   14.4520  -11.7070 O.2   365  GLN365     -0.2867
    126  CB        -3.6910   13.1830  -10.6900 C.3   365  GLN365      0.0367
    127  CG        -3.2350   12.3340  -11.8540 C.3   365  GLN365      0.0905
    128  CD        -3.7180   10.9130  -11.7160 C.2   365  GLN365      0.2608
    129  OE1       -4.9250   10.6670  -11.6250 O.2   365  GLN365     -0.2717
    130  NE2       -2.7770    9.9700  -11.6220 N.am  365  GLN365     -0.0878
    131  N          2.1930   17.7600  -14.4960 N.3   369  TYR369     -0.1241
    132  CA         1.9880   17.5930  -15.9410 C.3   369  TYR369      0.1605
    133  C          1.4840   18.8810  -16.5980 C.2   369  TYR369      0.2264
    134  O          2.0610   19.3540  -17.5770 O.2   369  TYR369     -0.2867
    135  CB         0.9400   16.4920  -16.1360 C.3   369  TYR369      0.0534
    136  CG         0.3840   16.3750  -17.5380 C.ar  369  TYR369     -0.0201
    137  CD1        1.1870   15.9030  -18.5970 C.ar  369  TYR369     -0.0009
    138  CD2       -0.9420   16.7360  -17.8100 C.ar  369  TYR369     -0.0009
    139  CE1        0.6570   15.7460  -19.8840 C.ar  369  TYR369      0.0417
    140  CE2       -1.4850   16.5500  -19.0780 C.ar  369  TYR369      0.0417
    141  CZ        -0.6690   16.0720  -20.1010 C.ar  369  TYR369      0.1957
    142  OH        -1.1940   15.9420  -21.3390 O.3   369  TYR369     -0.2866
@<TRIPOS>BOND
     1    52    51    1
     2    81    79    1
     3    49    51   ar
     4    49    47   ar
     5    51    50   ar
     6    75    76    1
     7    47    46   ar
     8    79    76    1
     9    79    80    1
    10    50    48   ar
    11    76    77    1
    12    46    48   ar
    13    46    45    1
    14   142   141    1
    15    77    78    2
    16    77    82   am
    17    41    42    1
    18    82    83    1
    19    45    42    1
    20   141   139   ar
    21   141   140   ar
    22    42    43    1
    23   139   137   ar
    24   140   138   ar
    25    83    84    1
    26    83    86    1
    27   137   136   ar
    28    43    53   am
    29    43    44    2
    30    87    86    1
    31    84    85    2
    32    88    86    1
    33    53    54    1
    34   138   136   ar
    35   134   133    2
    36   136   135    1
    37    35    34    1
    38    54    55    1
    39    54    57    1
    40    95    93    1
    41   133   132    1
    42    32    34   ar
    43    32    30   ar
    44    34    33   ar
    45    55    56    2
    46    94    93    1
    47   135   132    1
    48    89    90    1
    49    57    58    1
    50   132   131    1
    51    33    31   ar
    52    93    90    1
    53    30    29   ar
    54    90    91    1
    55    31    29   ar
    56    29    28    1
    57    10     9    2
    58     9     8    1
    59    59    60    1
    60    92    91    2
    61    11     8    1
    62    11    12    1
    63    13    12    1
    64    13    14    1
    65    28    25    1
    66    15    14    1
    67    27    26    2
    68     8     7    1
    69    61    60    1
    70    61    62    2
    71    60    63    1
    72     4     3    2
    73    40    37    1
    74    26    25    1
    75    26    36   am
    76    25    24    1
    77     5     6    1
    78     5     2    1
    79     3     2    1
    80   127   128    1
    81   127   126    1
    82    36    37    1
    83    65    64    2
    84   101   100    1
    85    63    64    1
    86   128   129    2
    87   128   130   am
    88   125   124    2
    89    24    18   am
    90    64    66   am
    91    37    38    1
    92     2     1    1
    93   124   123    1
    94    38    39    2
    95   126   123    1
    96    18    19    2
    97    18    17    1
    98   100   102    1
    99   100    97    1
   100    96    97    1
   101   123   122    1
   102    23    22    1
   103    17    16    1
   104    17    20    1
   105    97    98    1
   106    74    73    1
   107    72    73    1
   108    72    71    1
   109    22    21    1
   110    20    21    1
   111    99    98    2
   112    98   103   am
   113    67    68    1
   114    68    71    1
   115    68    69    1
   116   120   119   ar
   117    69    70    2
   118   119   121   ar
   119   119   118    1
   120   103   104    1
   121   106   105    2
   122   118   115    1
   123   104   105    1
   124   104   107    1
   125   105   110   am
   126   115   114    1
   127   115   116    1
   128   110   111    1
   129   111   112    1
   130   113   112    2
   131   116   117    2
   132   107   109    1
   133   107   108    1
