@<TRIPOS>MOLECULE
tmp/2y2pA00.pdb
 127 119 0 0 0
SMALL
GASTEIGER

@<TRIPOS>ATOM
      1  N         37.1140   63.0080   39.3720 N.3   139  SER139     -0.1217
      2  CA        36.5280   63.5090   38.1010 C.3   139  SER139      0.1889
      3  C         35.5250   62.5880   37.4250 C.2   139  SER139      0.2288
      4  O         34.8590   63.0260   36.4880 O.2   139  SER139     -0.2866
      5  CB        37.6000   63.9000   37.0630 C.3   139  SER139      0.2089
      6  OG        38.3400   65.0370   37.5350 O.3   139  SER139     -0.2183
      7  N         32.0040   64.0460   37.1300 N.3   142  LYS142     -0.1245
      8  CA        31.6550   65.1230   36.1740 C.3   142  LYS142      0.1561
      9  C         30.5010   64.8210   35.1950 C.2   142  LYS142      0.2260
     10  O         29.5720   65.6580   35.0530 O.2   142  LYS142     -0.2867
     11  CB        32.8990   65.6810   35.4490 C.3   142  LYS142      0.0271
     12  CG        33.8330   66.4920   36.3470 C.3   142  LYS142      0.0035
     13  CD        35.2110   66.7270   35.6590 C.3   142  LYS142      0.0206
     14  CE        36.2180   67.3170   36.6280 C.3   142  LYS142      0.1093
     15  NZ        37.5900   67.4900   36.0150 N.3   142  LYS142     -0.1314
     16  N         42.7800   74.6330   40.1170 N.3   176  MET176     -0.1230
     17  CA        43.9860   74.0830   39.4920 C.3   176  MET176      0.1702
     18  C         43.6810   72.8020   38.7190 C.2   176  MET176      0.2592
     19  O         42.7250   72.0740   39.0140 O.2   176  MET176     -0.2718
     20  CB        45.0830   73.7990   40.5360 C.3   176  MET176      0.0401
     21  CG        45.6600   75.0500   41.2410 C.3   176  MET176      0.0596
     22  SD        46.4500   76.3100   40.1710 S.3   176  MET176     -0.1393
     23  CE        47.8060   75.3630   39.4690 C.3   176  MET176      0.0692
     24  N         44.4450   72.5730   37.6630 N.am  177  TYR177     -0.1962
     25  CA        44.4150   71.2830   36.9860 C.3   177  TYR177      0.1771
     26  C         45.8550   70.8380   36.8110 C.2   177  TYR177      0.2619
     27  O         46.5960   71.4230   36.0050 O.2   177  TYR177     -0.2715
     28  CB        43.6810   71.4190   35.6410 C.3   177  TYR177      0.0574
     29  CG        43.8520   70.2490   34.6950 C.ar  177  TYR177     -0.0198
     30  CD1       43.0010   69.1580   34.7530 C.ar  177  TYR177     -0.0009
     31  CD2       44.8270   70.2780   33.6940 C.ar  177  TYR177     -0.0009
     32  CE1       43.1410   68.0920   33.8670 C.ar  177  TYR177      0.0417
     33  CE2       44.9740   69.2270   32.8020 C.ar  177  TYR177      0.0417
     34  CZ        44.1210   68.1430   32.8830 C.ar  177  TYR177      0.1957
     35  OH        44.2710   67.0930   31.9930 O.3   177  TYR177     -0.2866
     36  N         46.2830   69.8840   37.6410 N.am  178  ALA178     -0.1977
     37  CA        47.7070   69.6680   37.9040 C.3   178  ALA178      0.1597
     38  C         48.3960   71.0020   38.2170 C.2   178  ALA178      0.2287
     39  O         48.0930   71.6570   39.2140 O.2   178  ALA178     -0.2864
     40  CB        48.3800   68.9990   36.7090 C.3   178  ALA178      0.0319
     41  N         40.2830   66.0290   28.4380 N.3   194  TYR194     -0.1227
     42  CA        41.3900   66.4220   29.2950 C.3   194  TYR194      0.1736
     43  C         41.0140   66.3350   30.7710 C.2   194  TYR194      0.2596
     44  O         41.8880   66.2760   31.6300 O.2   194  TYR194     -0.2718
     45  CB        41.8200   67.8390   28.9340 C.3   194  TYR194      0.0548
     46  CG        42.7180   67.8450   27.7440 C.ar  194  TYR194     -0.0200
     47  CD1       42.2000   67.6820   26.4520 C.ar  194  TYR194     -0.0009
     48  CD2       44.1010   67.8880   27.9020 C.ar  194  TYR194     -0.0009
     49  CE1       43.0130   67.6800   25.3570 C.ar  194  TYR194      0.0417
     50  CE2       44.9290   67.8940   26.8030 C.ar  194  TYR194      0.0417
     51  CZ        44.3770   67.7710   25.5370 C.ar  194  TYR194      0.1957
     52  OH        45.1890   67.7730   24.4420 O.3   194  TYR194     -0.2866
     53  N         39.7220   66.3100   31.0610 N.am  195  SER195     -0.1952
     54  CA        39.2470   66.3870   32.4590 C.3   195  SER195      0.1924
     55  C         39.6020   67.7150   33.1520 C.2   195  SER195      0.2314
     56  O         39.9100   67.7690   34.3370 O.2   195  SER195     -0.2863
     57  CB        39.7240   65.1710   33.2760 C.3   195  SER195      0.2116
     58  OG        38.8310   64.9010   34.3450 O.3   195  SER195     -0.2180
     59  N         39.1800   71.1970   35.0880 N.3   197  ASN197     -0.1240
     60  CA        38.3340   71.4310   36.2610 C.3   197  ASN197      0.1653
     61  C         37.4550   72.6940   36.1900 C.2   197  ASN197      0.2266
     62  O         36.2760   72.6460   36.5340 O.2   197  ASN197     -0.2867
     63  CB        39.1910   71.4360   37.5220 C.3   197  ASN197      0.1155
     64  CG        39.7570   70.0580   37.8420 C.2   197  ASN197      0.2627
     65  OD1       39.0720   69.0470   37.7150 O.2   197  ASN197     -0.2716
     66  ND2       41.0120   70.0210   38.2760 N.am  197  ASN197     -0.0877
     67  N         34.2480   67.7220   40.9960 N.3   235  MET235     -0.1245
     68  CA        35.5930   67.1320   41.1450 C.3   235  MET235      0.1570
     69  C         35.6880   66.0380   42.2140 C.2   235  MET235      0.2261
     70  O         36.7690   65.5400   42.5120 O.2   235  MET235     -0.2867
     71  CB        36.6420   68.2220   41.3810 C.3   235  MET235      0.0387
     72  CG        36.8240   69.1360   40.1900 C.3   235  MET235      0.0595
     73  SD        35.4610   70.3200   40.0000 S.3   235  MET235     -0.1393
     74  CE        36.2130   71.7980   40.6950 C.3   235  MET235      0.0692
     75  N         43.8390   60.9550   29.1180 N.3   308  THR308     -0.1218
     76  CA        43.9420   60.6720   30.5700 C.3   308  THR308      0.1862
     77  C         44.0690   59.1800   30.8900 C.2   308  THR308      0.2287
     78  O         44.1190   58.7850   32.0720 O.2   308  THR308     -0.2866
     79  CB        42.7510   61.2920   31.3430 C.3   308  THR308      0.1770
     80  OG1       41.5150   60.7470   30.8510 O.3   308  THR308     -0.2211
     81  CG2       42.7540   62.8310   31.1300 C.3   308  THR308      0.0375
     82  N         37.9190   58.6270   33.3650 N.3   331  THR331     -0.1203
     83  CA        38.8980   58.4820   34.4400 C.3   331  THR331      0.1994
     84  C         38.6390   59.4800   35.5730 C.2   331  THR331      0.2618
     85  O         38.0140   60.5580   35.3470 O.2   331  THR331     -0.2717
     86  CB        40.3040   58.8200   33.9330 C.3   331  THR331      0.1784
     87  OG1       40.2630   60.1210   33.3110 O.3   331  THR331     -0.2211
     88  CG2       40.7350   57.7870   32.8920 C.3   331  THR331      0.0376
     89  N         39.2260   59.1830   36.7290 N.am  332  GLY332     -0.1942
     90  CA        39.2670   60.0980   37.8810 C.3   332  GLY332      0.2014
     91  C         40.5440   60.0370   38.6800 C.2   332  GLY332      0.2640
     92  O         41.1390   58.9570   38.8490 O.2   332  GLY332     -0.2714
     93  N         40.9770   61.1970   39.1980 N.am  333  THR333     -0.1936
     94  CA        42.2180   61.2240   40.0000 C.3   333  THR333      0.2028
     95  C         42.0060   62.2240   41.1430 C.2   333  THR333      0.2643
     96  O         41.6490   63.3740   40.8780 O.2   333  THR333     -0.2714
     97  CB        43.4210   61.7590   39.1180 C.3   333  THR333      0.1808
     98  OG1       43.5970   60.9430   37.9510 O.3   333  THR333     -0.2208
     99  CG2       44.7240   61.8430   39.9350 C.3   333  THR333      0.0379
    100  N         42.2140   61.8200   42.3960 N.am  334  THR334     -0.1936
    101  CA        41.9500   62.7650   43.4850 C.3   334  THR334      0.2028
    102  C         43.1850   63.6130   43.8400 C.2   334  THR334      0.2642
    103  O         44.2930   63.4040   43.3020 O.2   334  THR334     -0.2714
    104  CB        41.3470   62.0880   44.7540 C.3   334  THR334      0.1808
    105  OG1       42.3190   61.2120   45.3300 O.3   334  THR334     -0.2208
    106  CG2       40.1250   61.2770   44.4050 C.3   334  THR334      0.0379
    107  N         43.0000   64.4800   44.8330 N.am  335  GLY335     -0.1954
    108  CA        43.8690   65.6290   45.0810 C.3   335  GLY335      0.1869
    109  C         45.3440   65.3520   45.2630 C.2   335  GLY335      0.2309
    110  O         46.1860   66.0780   44.7160 O.2   335  GLY335     -0.2863
    111  N         46.7310   62.4470   44.4430 N.3   337  ASP337     -0.1239
    112  CA        46.8710   61.1630   43.7840 C.3   337  ASP337      0.1674
    113  C         46.6000   60.0290   44.7790 C.2   337  ASP337      0.2266
    114  O         47.2620   58.9790   44.7410 O.2   337  ASP337     -0.2867
    115  CB        48.2910   60.9850   43.2260 C.3   337  ASP337      0.1410
    116  CG        48.6100   61.9340   42.0780 C.2   337  ASP337      0.3668
    117  OD1       47.6960   62.3150   41.3000 O.co2 337  ASP337     -0.2456
    118  OD2       49.8110   62.2220   41.9060 O.co2 337  ASP337     -0.2456
    119  N         52.1680   59.5510   40.1310 N.3   365  GLN365     -0.1245
    120  CA        51.4980   60.4610   39.1990 C.3   365  GLN365      0.1566
    121  C         50.7980   59.6970   38.0600 C.2   365  GLN365      0.2260
    122  O         49.7030   60.0630   37.6380 O.2   365  GLN365     -0.2867
    123  CB        52.5480   61.4360   38.6400 C.3   365  GLN365      0.0367
    124  CG        51.9980   62.4790   37.6830 C.3   365  GLN365      0.0905
    125  CD        52.8760   63.7190   37.6180 C.2   365  GLN365      0.2608
    126  OE1       54.0670   63.6710   37.9340 O.2   365  GLN365     -0.2717
    127  NE2       52.2850   64.8400   37.2180 N.am  365  GLN365     -0.0878
@<TRIPOS>BOND
     1    52    51    1
     2    49    51   ar
     3    49    47   ar
     4    51    50   ar
     5    47    46   ar
     6    50    48   ar
     7    46    48   ar
     8    46    45    1
     9    41    42    1
    10    45    42    1
    11    75    76    1
    12    42    43    1
    13    76    77    1
    14    76    79    1
    15    43    53   am
    16    43    44    2
    17    80    79    1
    18    77    78    2
    19    53    54    1
    20    81    79    1
    21    35    34    1
    22    54    55    1
    23    54    57    1
    24    33    34   ar
    25    33    31   ar
    26    34    32   ar
    27    88    86    1
    28    55    56    2
    29    57    58    1
    30    87    86    1
    31    82    83    1
    32    31    29   ar
    33    32    30   ar
    34    86    83    1
    35    83    84    1
    36    29    30   ar
    37    29    28    1
    38    10     9    2
    39    59    60    1
    40     9     8    1
    41    85    84    2
    42    11     8    1
    43    11    12    1
    44    84    89   am
    45    28    25    1
    46    13    12    1
    47    13    14    1
    48    27    26    2
    49    15    14    1
    50     8     7    1
    51    61    60    1
    52    61    62    2
    53    60    63    1
    54     4     3    2
    55    40    37    1
    56    89    90    1
    57    26    25    1
    58    26    36   am
    59    25    24    1
    60     5     6    1
    61     5     2    1
    62   127   125   am
    63     3     2    1
    64    63    64    1
    65   125   124    1
    66   125   126    2
    67   122   121    2
    68    36    37    1
    69    24    18   am
    70   124   123    1
    71    65    64    2
    72    64    66   am
    73    90    91    1
    74    37    38    1
    75    98    97    1
    76   121   120    1
    77     2     1    1
    78    38    39    2
    79   123   120    1
    80    91    92    2
    81    91    93   am
    82    18    19    2
    83    18    17    1
    84    97    99    1
    85    97    94    1
    86    93    94    1
    87   120   119    1
    88    23    22    1
    89    17    16    1
    90    17    20    1
    91    94    95    1
    92    73    72    1
    93    73    74    1
    94    22    21    1
    95    72    71    1
    96    20    21    1
    97    96    95    2
    98    67    68    1
    99    95   100   am
   100    68    71    1
   101    68    69    1
   102   117   116   ar
   103   118   116   ar
   104   116   115    1
   105    69    70    2
   106   100   101    1
   107   115   112    1
   108   103   102    2
   109   101   102    1
   110   101   104    1
   111   112   111    1
   112   112   113    1
   113   102   107   am
   114   106   104    1
   115   110   109    2
   116   114   113    2
   117   104   105    1
   118   107   108    1
   119   108   109    1
