@<TRIPOS>MOLECULE
tmp/2y2qA00.pdb
 99 92 0 0 0
SMALL
GASTEIGER

@<TRIPOS>ATOM
      1  N         55.1500   65.7800   15.6220 N.3   138  ALA138     -0.1231
      2  CA        55.8020   66.5170   14.5360 C.3   138  ALA138      0.1694
      3  C         57.1180   65.8580   14.1240 C.2   138  ALA138      0.2592
      4  O         57.1800   64.6300   13.9500 O.2   138  ALA138     -0.2718
      5  CB        56.0120   67.9640   14.9230 C.3   138  ALA138      0.0304
      6  N         58.1800   66.6500   13.9760 N.am  139  SER139     -0.1952
      7  CA        59.4210   66.1040   13.4080 C.3   139  SER139      0.1924
      8  C         60.1750   65.1400   14.3190 C.2   139  SER139      0.2314
      9  O         61.1030   64.4800   13.8680 O.2   139  SER139     -0.2863
     10  CB        60.3530   67.1930   12.9110 C.3   139  SER139      0.2116
     11  OG        59.7190   67.9770   11.9060 O.3   139  SER139     -0.2180
     12  N         60.5450   61.5480   13.1270 N.3   142  LYS142     -0.1245
     13  CA        61.4030   61.1280   12.0210 C.3   142  LYS142      0.1561
     14  C         62.4540   60.0820   12.4380 C.2   142  LYS142      0.2260
     15  O         62.5990   59.0680   11.7670 O.2   142  LYS142     -0.2867
     16  CB        62.0620   62.3280   11.3340 C.3   142  LYS142      0.0271
     17  CG        61.0970   63.2390   10.6180 C.3   142  LYS142      0.0035
     18  CD        61.6920   64.6290   10.3580 C.3   142  LYS142      0.0206
     19  CE        60.6940   65.4480    9.5500 C.3   142  LYS142      0.1093
     20  NZ        60.9900   66.9140    9.4850 N.3   142  LYS142     -0.1314
     21  N         56.3670   71.2570    1.9020 N.3   176  MET176     -0.1230
     22  CA        57.0530   72.4470    2.4040 C.3   176  MET176      0.1702
     23  C         57.9160   72.1430    3.6050 C.2   176  MET176      0.2592
     24  O         57.7130   71.1540    4.2900 O.2   176  MET176     -0.2718
     25  CB        56.0300   73.5210    2.7850 C.3   176  MET176      0.0401
     26  CG        55.1900   73.9670    1.6190 C.3   176  MET176      0.0596
     27  SD        56.2650   74.6640    0.3560 S.3   176  MET176     -0.1393
     28  CE        56.7260   76.1990    1.1520 C.3   176  MET176      0.0692
     29  N         58.8540   73.0320    3.8860 N.am  177  TYR177     -0.1962
     30  CA        59.4520   73.1190    5.2070 C.3   177  TYR177      0.1771
     31  C         59.7320   74.5840    5.5470 C.2   177  TYR177      0.2619
     32  O         60.2910   75.3210    4.7280 O.2   177  TYR177     -0.2715
     33  CB        60.7510   72.3300    5.2440 C.3   177  TYR177      0.0574
     34  CG        61.5600   72.5920    6.5030 C.ar  177  TYR177     -0.0198
     35  CD1       61.3040   71.8870    7.6880 C.ar  177  TYR177     -0.0009
     36  CD2       62.5780   73.5440    6.5080 C.ar  177  TYR177     -0.0009
     37  CE1       62.0570   72.1260    8.8470 C.ar  177  TYR177      0.0417
     38  CE2       63.3380   73.7790    7.6440 C.ar  177  TYR177      0.0417
     39  CZ        63.0640   73.0850    8.8100 C.ar  177  TYR177      0.1957
     40  OH        63.8030   73.3590    9.9320 O.3   177  TYR177     -0.2866
     41  N         59.3180   75.0270    6.7290 N.am  178  ALA178     -0.1977
     42  CA        59.2620   76.4550    6.9770 C.3   178  ALA178      0.1597
     43  C         58.6030   77.0830    5.7520 C.2   178  ALA178      0.2287
     44  O         57.5460   76.6310    5.3300 O.2   178  ALA178     -0.2864
     45  CB        60.6630   76.9900    7.1670 C.3   178  ALA178      0.0319
     46  N         66.1080   69.3200   10.0700 N.3   195  SER195     -0.1217
     47  CA        64.7460   68.7940   10.1650 C.3   195  SER195      0.1889
     48  C         63.9310   68.9310    8.8770 C.2   195  SER195      0.2288
     49  O         62.7280   69.1720    8.9250 O.2   195  SER195     -0.2866
     50  CB        63.9970   69.4580   11.3230 C.3   195  SER195      0.2089
     51  OG        63.0820   68.5500   11.8980 O.3   195  SER195     -0.2183
     52  N         61.7370   68.0460    5.5160 N.3   197  ASN197     -0.1240
     53  CA        60.6230   67.1000    5.3680 C.3   197  ASN197      0.1653
     54  C         60.7470   66.1560    4.1950 C.2   197  ASN197      0.2266
     55  O         60.3660   64.9780    4.2720 O.2   197  ASN197     -0.2867
     56  CB        59.2860   67.8360    5.2970 C.3   197  ASN197      0.1155
     57  CG        58.8950   68.4200    6.6260 C.2   197  ASN197      0.2627
     58  OD1       59.1050   67.7980    7.6620 O.2   197  ASN197     -0.2716
     59  ND2       58.4140   69.6450    6.6170 N.am  197  ASN197     -0.0877
     60  N         52.4240   62.1040    4.9800 N.3   232  SER232     -0.1217
     61  CA        53.1190   62.9620    5.9480 C.3   232  SER232      0.1889
     62  C         53.3100   62.2530    7.2740 C.2   232  SER232      0.2288
     63  O         53.8720   62.8260    8.2080 O.2   232  SER232     -0.2866
     64  CB        52.3670   64.2800    6.1750 C.3   232  SER232      0.2089
     65  OG        51.0030   64.0240    6.5100 O.3   232  SER232     -0.2183
     66  N         56.3660   62.8590    9.3220 N.3   235  MET235     -0.1230
     67  CA        56.5340   64.2350    9.7960 C.3   235  MET235      0.1702
     68  C         55.6000   64.5080   10.9590 C.2   235  MET235      0.2593
     69  O         55.5230   65.6360   11.4540 O.2   235  MET235     -0.2718
     70  CB        56.2280   65.2390    8.6880 C.3   235  MET235      0.0401
     71  CG        57.2640   65.3200    7.5840 C.3   235  MET235      0.0596
     72  SD        56.6810   64.5220    6.0850 S.3   235  MET235     -0.1393
     73  CE        55.8170   65.8790    5.2880 C.3   235  MET235      0.0692
     74  N         54.8610   63.4810   11.3620 N.am  236  GLY236     -0.1942
     75  CA        54.0470   63.5410   12.5670 C.3   236  GLY236      0.2014
     76  C         52.5800   63.7560   12.2450 C.2   236  GLY236      0.2639
     77  O         51.7810   63.9700   13.1410 O.2   236  GLY236     -0.2714
     78  N         52.2250   63.7040   10.9620 N.am  237  GLY237     -0.1954
     79  CA        50.8380   63.8900   10.5430 C.3   237  GLY237      0.1869
     80  C         50.0520   62.6060   10.6600 C.2   237  GLY237      0.2309
     81  O         50.5480   61.5460   10.2850 O.2   237  GLY237     -0.2863
     82  N         58.3710   70.6860   15.6880 N.3   333  THR333     -0.1203
     83  CA        57.5930   71.9100   15.5030 C.3   333  THR333      0.1994
     84  C         56.4660   71.5600   14.5420 C.2   333  THR333      0.2619
     85  O         56.7260   71.0790   13.4420 O.2   333  THR333     -0.2717
     86  CB        58.4440   73.0270   14.8420 C.3   333  THR333      0.1784
     87  OG1       59.7140   73.1370   15.5070 O.3   333  THR333     -0.2211
     88  CG2       57.7070   74.3850   14.8680 C.3   333  THR333      0.0376
     89  N         55.2180   71.7680   14.9590 N.am  334  THR334     -0.1938
     90  CA        54.0870   71.5110   14.0700 C.3   334  THR334      0.2028
     91  C         53.9220   72.6390   13.0680 C.2   334  THR334      0.2642
     92  O         54.3860   73.7640   13.2980 O.2   334  THR334     -0.2714
     93  CB        52.7500   71.2790   14.8230 C.3   334  THR334      0.1808
     94  OG1       52.5960   72.2410   15.8730 O.3   334  THR334     -0.2208
     95  CG2       52.6750   69.8590   15.3940 C.3   334  THR334      0.0379
     96  N         53.2420   72.3290   11.9670 N.am  335  GLY335     -0.1954
     97  CA        53.2640   73.1610   10.7640 C.3   335  GLY335      0.1869
     98  C         52.8010   74.5950   10.9640 C.2   335  GLY335      0.2309
     99  O         53.2290   75.4860   10.2310 O.2   335  GLY335     -0.2863
@<TRIPOS>BOND
     1    27    28    1
     2    27    26    1
     3    26    25    1
     4    21    22    1
     5    22    25    1
     6    22    23    1
     7    23    29   am
     8    23    24    2
     9    29    30    1
    10    54    55    2
    11    54    53    1
    12    32    31    2
    13    60    61    1
    14    30    33    1
    15    30    31    1
    16    33    34    1
    17    73    72    1
    18    56    53    1
    19    56    57    1
    20    44    43    2
    21    53    52    1
    22    31    41   am
    23    43    42    1
    24    61    64    1
    25    61    62    1
    26    72    71    1
    27    64    65    1
    28    34    36   ar
    29    34    35   ar
    30    36    38   ar
    31    59    57   am
    32    57    58    2
    33    41    42    1
    34    42    45    1
    35    62    63    2
    36    71    70    1
    37    38    39   ar
    38    35    37   ar
    39    70    67    1
    40    39    37   ar
    41    39    40    1
    42    48    49    2
    43    48    47    1
    44    66    67    1
    45    20    19    1
    46    19    18    1
    47    67    68    1
    48    46    47    1
    49    47    50    1
    50    99    98    2
    51    81    80    2
    52    18    17    1
    53    79    80    1
    54    79    78    1
    55    17    16    1
    56    97    98    1
    57    97    96    1
    58    68    74   am
    59    68    69    2
    60    78    76   am
    61    50    51    1
    62    16    13    1
    63    74    75    1
    64    15    14    2
    65    11    10    1
    66    96    91   am
    67    13    14    1
    68    13    12    1
    69    76    75    1
    70    76    77    2
    71    10     7    1
    72    91    92    2
    73    91    90    1
    74     7     6    1
    75     7     8    1
    76    85    84    2
    77     9     8    2
    78     4     3    2
    79     6     3   am
    80    90    93    1
    81    90    89    1
    82     3     2    1
    83     2     5    1
    84     2     1    1
    85    84    89   am
    86    84    83    1
    87    93    95    1
    88    93    94    1
    89    86    88    1
    90    86    83    1
    91    86    87    1
    92    83    82    1
