@<TRIPOS>MOLECULE
tmp/2y2vB03.pdb
 122 124 0 0 0
SMALL
GASTEIGER

@<TRIPOS>ATOM
      1  N         11.4580   -9.8870  -46.4720 N.3    69  TYR69      -0.1241
      2  CA        11.1580  -10.8830  -45.4500 C.3    69  TYR69       0.1605
      3  C          9.6780  -10.8860  -45.0750 C.2    69  TYR69       0.2264
      4  O          9.0150   -9.8420  -45.0600 O.2    69  TYR69      -0.2867
      5  CB        11.9870  -10.5720  -44.2080 C.3    69  TYR69       0.0534
      6  CG        11.8090  -11.5350  -43.0700 C.ar   69  TYR69      -0.0201
      7  CD1       12.4040  -12.7970  -43.1020 C.ar   69  TYR69      -0.0009
      8  CD2       11.0640  -11.1850  -41.9520 C.ar   69  TYR69      -0.0009
      9  CE1       12.2530  -13.6830  -42.0490 C.ar   69  TYR69       0.0417
     10  CE2       10.8980  -12.0700  -40.8940 C.ar   69  TYR69       0.0417
     11  CZ        11.5000  -13.3110  -40.9440 C.ar   69  TYR69       0.1957
     12  OH        11.3420  -14.1890  -39.8970 O.3    69  TYR69      -0.2866
     13  N          6.9280  -12.2320  -42.0930 N.3    71  ASP71      -0.1239
     14  CA         6.9270  -12.6690  -40.7010 C.3    71  ASP71       0.1674
     15  C          6.3340  -14.0560  -40.5040 C.2    71  ASP71       0.2266
     16  O          5.3700  -14.4270  -41.1640 O.2    71  ASP71      -0.2867
     17  CB         6.2060  -11.6720  -39.8000 C.3    71  ASP71       0.1410
     18  CG         6.6730  -11.7690  -38.3650 C.2    71  ASP71       0.3668
     19  OD1        7.7970  -11.3010  -38.0790 O.co2  71  ASP71      -0.2456
     20  OD2        5.9450  -12.3590  -37.5420 O.co2  71  ASP71      -0.2456
     21  N         13.1440   -2.9900  -43.6330 N.3   121  TYR121     -0.1241
     22  CA        13.2680   -4.3480  -44.1790 C.3   121  TYR121      0.1605
     23  C         11.9370   -4.9280  -44.6850 C.2   121  TYR121      0.2264
     24  O         11.9070   -6.0160  -45.2490 O.2   121  TYR121     -0.2867
     25  CB        13.8950   -5.3160  -43.1620 C.3   121  TYR121      0.0534
     26  CG        12.9430   -5.7310  -42.0630 C.ar  121  TYR121     -0.0201
     27  CD1       11.9830   -6.7100  -42.2780 C.ar  121  TYR121     -0.0009
     28  CD2       12.9970   -5.1310  -40.8100 C.ar  121  TYR121     -0.0009
     29  CE1       11.1090   -7.0790  -41.2780 C.ar  121  TYR121      0.0417
     30  CE2       12.1220   -5.4930  -39.8020 C.ar  121  TYR121      0.0417
     31  CZ        11.1830   -6.4640  -40.0390 C.ar  121  TYR121      0.1957
     32  OH        10.3200   -6.8250  -39.0300 O.3   121  TYR121     -0.2866
     33  N         19.1000  -11.6090  -41.9270 N.3   275  TRP275     -0.1241
     34  CA        19.1170  -11.5400  -40.4670 C.3   275  TRP275      0.1605
     35  C         20.4160  -12.0550  -39.8520 C.2   275  TRP275      0.2264
     36  O         20.6450  -11.8990  -38.6550 O.2   275  TRP275     -0.2867
     37  CB        17.9150  -12.2630  -39.8610 C.3   275  TRP275      0.0550
     38  CG        16.6310  -11.5380  -40.1410 C.ar  275  TRP275      0.0003
     39  CD1       15.6190  -11.9400  -40.9710 C.ar  275  TRP275      0.0946
     40  CD2       16.2330  -10.2650  -39.6110 C.ar  275  TRP275      0.0152
     41  NE1       14.6150  -11.0030  -40.9790 N.ar  275  TRP275     -0.2442
     42  CE2       14.9650   -9.9670  -40.1510 C.ar  275  TRP275      0.0810
     43  CE3       16.8240   -9.3520  -38.7260 C.ar  275  TRP275      0.0012
     44  CZ2       14.2750   -8.7920  -39.8340 C.ar  275  TRP275      0.0191
     45  CZ3       16.1400   -8.1860  -38.4170 C.ar  275  TRP275      0.0001
     46  CH2       14.8810   -7.9170  -38.9710 C.ar  275  TRP275      0.0015
     47  N         16.9780   -6.9490  -30.3630 N.3   283  ILE283     -0.1231
     48  CA        15.6680   -6.5990  -30.8780 C.3   283  ILE283      0.1692
     49  C         15.7350   -5.1280  -31.2940 C.2   283  ILE283      0.2592
     50  O         16.6820   -4.4250  -30.9350 O.2   283  ILE283     -0.2718
     51  CB        14.5520   -6.8460  -29.8470 C.3   283  ILE283      0.0266
     52  CG1       14.9020   -6.2000  -28.5020 C.3   283  ILE283      0.0019
     53  CG2       14.3190   -8.3420  -29.6580 C.3   283  ILE283      0.0020
     54  CD1       13.7560   -6.2100  -27.5130 C.3   283  ILE283      0.0001
     55  N         14.7540   -4.6790  -32.0740 N.am  284  PHE284     -0.1962
     56  CA        14.7040   -3.2990  -32.5660 C.3   284  PHE284      0.1771
     57  C         16.0280   -2.9020  -33.2140 C.2   284  PHE284      0.2619
     58  O         16.5300   -1.7960  -33.0190 O.2   284  PHE284     -0.2715
     59  CB        14.3380   -2.3230  -31.4350 C.3   284  PHE284      0.0574
     60  CG        13.4310   -1.1890  -31.8680 C.ar  284  PHE284     -0.0200
     61  CD1       13.7260   -0.4290  -32.9950 C.ar  284  PHE284     -0.0042
     62  CD2       12.2800   -0.8870  -31.1440 C.ar  284  PHE284     -0.0042
     63  CE1       12.8930    0.6000  -33.3980 C.ar  284  PHE284     -0.0003
     64  CE2       11.4350    0.1450  -31.5340 C.ar  284  PHE284     -0.0003
     65  CZ        11.7440    0.8930  -32.6650 C.ar  284  PHE284     -0.0000
     66  N         16.5950   -3.8290  -33.9740 N.am  285  ARG285     -0.1963
     67  CA        17.7910   -3.5680  -34.7480 C.3   285  ARG285      0.1729
     68  C         17.6090   -4.2720  -36.1030 C.2   285  ARG285      0.2616
     69  O         16.9990   -5.3450  -36.1780 O.2   285  ARG285     -0.2715
     70  CB        19.0340   -4.0640  -34.0000 C.3   285  ARG285      0.0348
     71  CG        20.2570   -3.1450  -34.1130 C.3   285  ARG285      0.0492
     72  CD        20.5480   -2.3370  -32.8400 C.3   285  ARG285      0.2205
     73  NE        19.3500   -1.7050  -32.3160 N.pl3 285  ARG285     -0.0865
     74  CZ        19.2900   -0.9190  -31.2420 C.cat 285  ARG285      0.5346
     75  NH1       20.3660   -0.6170  -30.5190 N.pl3 285  ARG285      0.1354
     76  NH2       18.1220   -0.4300  -30.8890 N.pl3 285  ARG285      0.1354
     77  N         18.1260   -3.6650  -37.1700 N.am  286  PHE286     -0.1974
     78  CA        17.8240   -4.1030  -38.5390 C.3   286  PHE286      0.1639
     79  C         19.0690   -4.0870  -39.4140 C.2   286  PHE286      0.2290
     80  O         19.9060   -3.1830  -39.3140 O.2   286  PHE286     -0.2864
     81  CB        16.7150   -3.2320  -39.1410 C.3   286  PHE286      0.0560
     82  CG        15.5480   -3.0360  -38.2090 C.ar  286  PHE286     -0.0200
     83  CD1       14.6710   -4.0850  -37.9400 C.ar  286  PHE286     -0.0042
     84  CD2       15.3570   -1.8280  -37.5570 C.ar  286  PHE286     -0.0042
     85  CE1       13.6080   -3.9140  -37.0620 C.ar  286  PHE286     -0.0003
     86  CE2       14.2940   -1.6520  -36.6690 C.ar  286  PHE286     -0.0003
     87  CZ        13.4180   -2.6950  -36.4270 C.ar  286  PHE286     -0.0000
     88  N          5.7240   -4.5690  -28.1140 N.3   326  TYR326     -0.1227
     89  CA         5.7870   -5.3220  -29.3720 C.3   326  TYR326      0.1736
     90  C          7.0730   -6.1130  -29.5860 C.2   326  TYR326      0.2595
     91  O          7.0250   -7.2840  -29.9440 O.2   326  TYR326     -0.2718
     92  CB         5.6170   -4.3490  -30.5380 C.3   326  TYR326      0.0548
     93  CG         5.3220   -4.9710  -31.8770 C.ar  326  TYR326     -0.0200
     94  CD1        6.3480   -5.4160  -32.7100 C.ar  326  TYR326     -0.0009
     95  CD2        4.0160   -5.0900  -32.3240 C.ar  326  TYR326     -0.0009
     96  CE1        6.0690   -5.9800  -33.9540 C.ar  326  TYR326      0.0417
     97  CE2        3.7230   -5.6500  -33.5650 C.ar  326  TYR326      0.0417
     98  CZ         4.7470   -6.0940  -34.3750 C.ar  326  TYR326      0.1957
     99  OH         4.4330   -6.6450  -35.5990 O.3   326  TYR326     -0.2866
    100  N          8.2140   -5.4670  -29.3650 N.am  327  PHE327     -0.1976
    101  CA         9.5090   -6.0170  -29.7570 C.3   327  PHE327      0.1639
    102  C         10.0430   -7.0930  -28.8280 C.2   327  PHE327      0.2290
    103  O         10.9290   -7.8640  -29.2080 O.2   327  PHE327     -0.2864
    104  CB        10.5370   -4.8910  -29.8800 C.3   327  PHE327      0.0560
    105  CG        10.1580   -3.8600  -30.8910 C.ar  327  PHE327     -0.0200
    106  CD1        9.2940   -2.8270  -30.5540 C.ar  327  PHE327     -0.0042
    107  CD2       10.6300   -3.9450  -32.1970 C.ar  327  PHE327     -0.0042
    108  CE1        8.9160   -1.8920  -31.4990 C.ar  327  PHE327     -0.0003
    109  CE2       10.2650   -3.0080  -33.1420 C.ar  327  PHE327     -0.0003
    110  CZ         9.3990   -1.9830  -32.7910 C.ar  327  PHE327     -0.0000
    111  N         10.0090  -10.7360  -29.7930 N.3   330  TYR330     -0.1241
    112  CA        10.8660  -11.1090  -30.9190 C.3   330  TYR330      0.1605
    113  C         12.2810  -11.4810  -30.5180 C.2   330  TYR330      0.2264
    114  O         13.2110  -11.3100  -31.3030 O.2   330  TYR330     -0.2867
    115  CB        10.9100  -10.0080  -31.9840 C.3   330  TYR330      0.0534
    116  CG         9.7120  -10.0350  -32.8970 C.ar  330  TYR330     -0.0201
    117  CD1        8.5390   -9.3670  -32.5560 C.ar  330  TYR330     -0.0009
    118  CD2        9.7410  -10.7490  -34.0890 C.ar  330  TYR330     -0.0009
    119  CE1        7.4370   -9.3940  -33.3850 C.ar  330  TYR330      0.0417
    120  CE2        8.6470  -10.7890  -34.9200 C.ar  330  TYR330      0.0417
    121  CZ         7.4940  -10.1110  -34.5670 C.ar  330  TYR330      0.1957
    122  OH         6.3980  -10.1480  -35.4010 O.3   330  TYR330     -0.2866
@<TRIPOS>BOND
     1     1     2    1
     2     2     3    1
     3     2     5    1
     4    24    23    2
     5     3     4    2
     6    23    22    1
     7     5     6    1
     8    22    21    1
     9    22    25    1
    10    25    26    1
    11     7     6   ar
    12     7     9   ar
    13     6     8   ar
    14    27    26   ar
    15    27    29   ar
    16    13    14    1
    17    26    28   ar
    18     9    11   ar
    19     8    10   ar
    20    33    34    1
    21    29    31   ar
    22    16    15    2
    23    41    39   ar
    24    41    42   ar
    25    39    38   ar
    26    11    10   ar
    27    11    12    1
    28    28    30   ar
    29    14    15    1
    30    14    17    1
    31    34    37    1
    32    34    35    1
    33    42    44   ar
    34    42    40   ar
    35    38    37    1
    36    38    40   ar
    37    31    30   ar
    38    31    32    1
    39    35    36    2
    40    44    46   ar
    41    17    18    1
    42    40    43   ar
    43    79    80    2
    44    79    78    1
    45    81    78    1
    46    81    82    1
    47    46    45   ar
    48    43    45   ar
    49    78    77    1
    50    18    19   ar
    51    18    20   ar
    52    82    83   ar
    53    82    84   ar
    54    83    85   ar
    55    84    86   ar
    56    77    68   am
    57    85    87   ar
    58    86    87   ar
    59    69    68    2
    60    68    67    1
    61    99    98    1
    62   122   121    1
    63   120   121   ar
    64   120   118   ar
    65    67    70    1
    66    67    66    1
    67   121   119   ar
    68    98    96   ar
    69    98    97   ar
    70    71    70    1
    71    71    72    1
    72   118   116   ar
    73    66    57   am
    74    96    94   ar
    75    97    95   ar
    76    63    61   ar
    77    63    65   ar
    78   119   117   ar
    79    57    58    2
    80    57    56    1
    81   109   110   ar
    82   109   107   ar
    83    61    60   ar
    84   116   117   ar
    85   116   115    1
    86    72    73    1
    87   110   108   ar
    88    94    93   ar
    89    65    64   ar
    90    56    55    1
    91    56    59    1
    92    95    93   ar
    93    73    74    2
    94   107   105   ar
    95    55    49   am
    96   115   112    1
    97    93    92    1
    98    60    59    1
    99    60    62   ar
   100    64    62   ar
   101   108   106   ar
   102   114   113    2
   103    49    50    2
   104    49    48    1
   105    74    76    1
   106    74    75    1
   107   112   113    1
   108   112   111    1
   109   105   106   ar
   110   105   104    1
   111    48    47    1
   112    48    51    1
   113    92    89    1
   114    91    90    2
   115   104   101    1
   116    51    53    1
   117    51    52    1
   118   101   100    1
   119   101   102    1
   120    90    89    1
   121    90   100   am
   122    89    88    1
   123   103   102    2
   124    52    54    1
