@<TRIPOS>MOLECULE
tmp/2y2vA02.pdb
 122 124 0 0 0
SMALL
GASTEIGER

@<TRIPOS>ATOM
      1  N         39.2740   22.8020   17.5410 N.3    72  TYR72      -0.1241
      2  CA        38.9250   23.9250   16.6990 C.3    72  TYR72       0.1605
      3  C         37.6540   24.6140   17.1970 C.2    72  TYR72       0.2264
      4  O         36.6860   23.9520   17.5650 O.2    72  TYR72      -0.2867
      5  CB        38.7200   23.4270   15.2660 C.3    72  TYR72       0.0534
      6  CG        38.3470   24.5140   14.2860 C.ar   72  TYR72      -0.0201
      7  CD1       39.3050   25.4130   13.8190 C.ar   72  TYR72      -0.0009
      8  CD2       37.0370   24.6450   13.8250 C.ar   72  TYR72      -0.0009
      9  CE1       38.9710   26.4090   12.9220 C.ar   72  TYR72       0.0417
     10  CE2       36.6900   25.6380   12.9240 C.ar   72  TYR72       0.0417
     11  CZ        37.6620   26.5170   12.4750 C.ar   72  TYR72       0.1957
     12  OH        37.3270   27.5160   11.5840 O.3    72  TYR72      -0.2866
     13  N         34.6620   27.3450   16.2110 N.3    74  ASP74      -0.1239
     14  CA        34.0400   27.8540   14.9860 C.3    74  ASP74       0.1674
     15  C         33.9270   29.3790   14.9430 C.2    74  ASP74       0.2266
     16  O         33.6270   30.0240   15.9520 O.2    74  ASP74      -0.2867
     17  CB        32.6680   27.2220   14.7820 C.3    74  ASP74       0.1410
     18  CG        32.1060   27.4890   13.4010 C.2    74  ASP74       0.3668
     19  OD1       31.4890   28.5610   13.2030 O.co2  74  ASP74      -0.2456
     20  OD2       32.2960   26.6300   12.5140 O.co2  74  ASP74      -0.2456
     21  N         36.1880   16.2890   15.2470 N.3   124  TYR124     -0.1241
     22  CA        37.1450   17.3940   15.4430 C.3   124  TYR124      0.1605
     23  C         36.6700   18.3970   16.4970 C.2   124  TYR124      0.2264
     24  O         37.3900   19.3210   16.8540 O.2   124  TYR124     -0.2867
     25  CB        37.4280   18.1350   14.1220 C.3   124  TYR124      0.0534
     26  CG        36.2890   19.0200   13.6710 C.ar  124  TYR124     -0.0201
     27  CD1       36.1330   20.3080   14.1860 C.ar  124  TYR124     -0.0009
     28  CD2       35.3560   18.5650   12.7360 C.ar  124  TYR124     -0.0009
     29  CE1       35.0770   21.1190   13.7860 C.ar  124  TYR124      0.0417
     30  CE2       34.2990   19.3660   12.3280 C.ar  124  TYR124      0.0417
     31  CZ        34.1670   20.6440   12.8590 C.ar  124  TYR124      0.1957
     32  OH        33.1290   21.4430   12.4550 O.3   124  TYR124     -0.2866
     33  N         43.0810   21.8060    9.4210 N.3   278  TRP278     -0.1241
     34  CA        42.2750   21.8540    8.1950 C.3   278  TRP278      0.1605
     35  C         43.0840   21.9110    6.9020 C.2   278  TRP278      0.2264
     36  O         42.5190   21.8790    5.8180 O.2   278  TRP278     -0.2867
     37  CB        41.2700   23.0070    8.2480 C.3   278  TRP278      0.0550
     38  CG        40.2540   22.7710    9.3040 C.ar  278  TRP278      0.0003
     39  CD1       40.2390   23.2940   10.5640 C.ar  278  TRP278      0.0946
     40  CD2       39.1310   21.8860    9.2220 C.ar  278  TRP278      0.0152
     41  NE1       39.1620   22.8080   11.2640 N.ar  278  TRP278     -0.2442
     42  CE2       38.4640   21.9430   10.4610 C.ar  278  TRP278      0.0810
     43  CE3       38.6180   21.0610    8.2130 C.ar  278  TRP278      0.0012
     44  CZ2       37.3090   21.2140   10.7180 C.ar  278  TRP278      0.0191
     45  CZ3       37.4710   20.3460    8.4640 C.ar  278  TRP278      0.0001
     46  CH2       36.8280   20.4240    9.7120 C.ar  278  TRP278      0.0015
     47  N         33.3250   20.0070    1.5090 N.3   286  ILE286     -0.1231
     48  CA        32.5300   20.1080    2.7330 C.3   286  ILE286      0.1692
     49  C         32.1840   18.6950    3.2460 C.2   286  ILE286      0.2592
     50  O         32.3300   17.7120    2.5220 O.2   286  ILE286     -0.2718
     51  CB        31.2600   20.9610    2.5480 C.3   286  ILE286      0.0266
     52  CG1       30.4230   20.4430    1.3840 C.3   286  ILE286      0.0019
     53  CG2       31.6180   22.4470    2.3600 C.3   286  ILE286      0.0020
     54  CD1       29.0900   21.1480    1.2580 C.3   286  ILE286      0.0001
     55  N         31.7580   18.5980    4.5000 N.am  287  PHE287     -0.1962
     56  CA        31.4570   17.3100    5.1200 C.3   287  PHE287      0.1771
     57  C         32.6420   16.3430    5.0250 C.2   287  PHE287      0.2619
     58  O         32.4700   15.1510    4.7640 O.2   287  PHE287     -0.2715
     59  CB        30.2020   16.6830    4.4930 C.3   287  PHE287      0.0574
     60  CG        29.2760   16.0370    5.4950 C.ar  287  PHE287     -0.0200
     61  CD1       29.7610   15.0990    6.4140 C.ar  287  PHE287     -0.0042
     62  CD2       27.9140   16.3660    5.5180 C.ar  287  PHE287     -0.0042
     63  CE1       28.9110   14.4980    7.3390 C.ar  287  PHE287     -0.0003
     64  CE2       27.0550   15.7790    6.4360 C.ar  287  PHE287     -0.0003
     65  CZ        27.5450   14.8380    7.3500 C.ar  287  PHE287     -0.0000
     66  N         33.8460   16.8770    5.2030 N.am  288  ARG288     -0.1963
     67  CA        35.0550   16.0700    5.3040 C.3   288  ARG288      0.1729
     68  C         35.8740   16.5860    6.4800 C.2   288  ARG288      0.2616
     69  O         35.9590   17.7890    6.7210 O.2   288  ARG288     -0.2715
     70  CB        35.8970   16.1190    4.0200 C.3   288  ARG288      0.0348
     71  CG        35.2730   15.4510    2.8190 C.3   288  ARG288      0.0492
     72  CD        35.0110   13.9630    3.0520 C.3   288  ARG288      0.2205
     73  NE        34.5080   13.3370    1.8300 N.pl3 288  ARG288     -0.0865
     74  CZ        33.2210   13.2630    1.4970 C.cat 288  ARG288      0.5346
     75  NH1       32.2860   13.7520    2.3080 N.pl3 288  ARG288      0.1354
     76  NH2       32.8650   12.6980    0.3570 N.pl3 288  ARG288      0.1354
     77  N         36.4930   15.6730    7.2060 N.am  289  PHE289     -0.1974
     78  CA        37.1880   16.0520    8.4230 C.3   289  PHE289      0.1639
     79  C         38.5320   15.3800    8.4220 C.2   289  PHE289      0.2290
     80  O         38.6460   14.2400    7.9870 O.2   289  PHE289     -0.2864
     81  CB        36.3390   15.6650    9.6220 C.3   289  PHE289      0.0560
     82  CG        34.8880   15.9590    9.4130 C.ar  289  PHE289     -0.0200
     83  CD1       34.4320   17.2790    9.3810 C.ar  289  PHE289     -0.0042
     84  CD2       33.9880   14.9380    9.1850 C.ar  289  PHE289     -0.0042
     85  CE1       33.1030   17.5610    9.1600 C.ar  289  PHE289     -0.0003
     86  CE2       32.6390   15.2230    8.9600 C.ar  289  PHE289     -0.0003
     87  CZ        32.2010   16.5300    8.9580 C.ar  289  PHE289     -0.0000
     88  N         22.9810   22.6870    6.2140 N.3   329  TYR329     -0.1227
     89  CA        23.9340   23.2480    7.1710 C.3   329  TYR329      0.1736
     90  C         25.3200   23.4150    6.5540 C.2   329  TYR329      0.2595
     91  O         25.9410   24.4770    6.6340 O.2   329  TYR329     -0.2718
     92  CB        24.0140   22.2970    8.3720 C.3   329  TYR329      0.0548
     93  CG        24.7580   22.8010    9.5790 C.ar  329  TYR329     -0.0200
     94  CD1       26.1370   22.6780    9.6700 C.ar  329  TYR329     -0.0009
     95  CD2       24.0780   23.3620   10.6490 C.ar  329  TYR329     -0.0009
     96  CE1       26.8230   23.1320   10.7860 C.ar  329  TYR329      0.0417
     97  CE2       24.7540   23.8210   11.7740 C.ar  329  TYR329      0.0417
     98  CZ        26.1260   23.7040   11.8370 C.ar  329  TYR329      0.1957
     99  OH        26.8020   24.1520   12.9530 O.3   329  TYR329     -0.2866
    100  N         25.7870   22.3500    5.9210 N.am  330  PHE330     -0.1976
    101  CA        27.1600   22.2700    5.4340 C.3   330  PHE330      0.1639
    102  C         27.5100   23.2060    4.2670 C.2   330  PHE330      0.2290
    103  O         28.6780   23.5530    4.0840 O.2   330  PHE330     -0.2864
    104  CB        27.5120   20.8220    5.1250 C.3   330  PHE330      0.0560
    105  CG        27.3500   19.9170    6.3070 C.ar  330  PHE330     -0.0200
    106  CD1       26.1310   19.3090    6.5700 C.ar  330  PHE330     -0.0042
    107  CD2       28.4000   19.7170    7.1850 C.ar  330  PHE330     -0.0042
    108  CE1       25.9740   18.4980    7.6780 C.ar  330  PHE330     -0.0003
    109  CE2       28.2580   18.8960    8.2850 C.ar  330  PHE330     -0.0003
    110  CZ        27.0440   18.2850    8.5370 C.ar  330  PHE330     -0.0000
    111  N         29.4820   26.4410    4.7010 N.3   333  TYR333     -0.1241
    112  CA        30.8460   26.2380    5.1530 C.3   333  TYR333      0.1605
    113  C         31.8050   25.9480    4.0070 C.2   333  TYR333      0.2264
    114  O         32.8380   25.3000    4.2100 O.2   333  TYR333     -0.2867
    115  CB        30.9170   25.1150    6.1990 C.3   333  TYR333      0.0534
    116  CG        30.5140   25.5800    7.5690 C.ar  333  TYR333     -0.0201
    117  CD1       31.4270   26.2220    8.3960 C.ar  333  TYR333     -0.0009
    118  CD2       29.2160   25.4120    8.0250 C.ar  333  TYR333     -0.0009
    119  CE1       31.0660   26.6700    9.6410 C.ar  333  TYR333      0.0417
    120  CE2       28.8420   25.8610    9.2750 C.ar  333  TYR333      0.0417
    121  CZ        29.7720   26.4880   10.0790 C.ar  333  TYR333      0.1957
    122  OH        29.4090   26.9350   11.3280 O.3   333  TYR333     -0.2866
@<TRIPOS>BOND
     1    76    74    1
     2    54    52    1
     3    52    51    1
     4    74    73    2
     5    74    75    1
     6    47    48    1
     7    73    72    1
     8    53    51    1
     9    50    49    2
    10    51    48    1
    11    48    49    1
    12    71    72    1
    13    71    70    1
    14    49    55   am
    15   113   114    2
    16   113   112    1
    17    70    67    1
    18   103   102    2
    19   102   101    1
    20    59    56    1
    21    59    60    1
    22    55    56    1
    23   111   112    1
    24    58    57    2
    25    57    56    1
    26    57    66   am
    27   104   101    1
    28   104   105    1
    29   112   115    1
    30    66    67    1
    31    67    68    1
    32   101   100    1
    33    60    62   ar
    34    60    61   ar
    35    62    64   ar
    36    36    35    2
    37   100    90   am
    38   115   116    1
    39    88    89    1
    40   105   106   ar
    41   105   107   ar
    42    61    63   ar
    43    64    65   ar
    44    68    69    2
    45    68    77   am
    46    90    91    2
    47    90    89    1
    48   106   108   ar
    49    35    34    1
    50    89    92    1
    51   107   109   ar
    52    77    78    1
    53    63    65   ar
    54   116   118   ar
    55   116   117   ar
    56   108   110   ar
    57    80    79    2
    58   118   120   ar
    59    34    37    1
    60    34    33    1
    61    43    45   ar
    62    43    40   ar
    63    37    38    1
    64   109   110   ar
    65    92    93    1
    66   117   119   ar
    67    79    78    1
    68    78    81    1
    69    45    46   ar
    70    87    86   ar
    71    87    85   ar
    72    86    84   ar
    73    85    83   ar
    74    84    82   ar
    75    40    38   ar
    76    40    42   ar
    77   120   121   ar
    78    38    39   ar
    79    83    82   ar
    80    82    81    1
    81    93    94   ar
    82    93    95   ar
    83   119   121   ar
    84    94    96   ar
    85    46    44   ar
    86   121   122    1
    87    42    44   ar
    88    42    41   ar
    89    39    41   ar
    90    95    97   ar
    91    96    98   ar
    92    12    11    1
    93    97    98   ar
    94    98    99    1
    95    30    28   ar
    96    30    31   ar
    97    32    31    1
    98    11     9   ar
    99    11    10   ar
   100    20    18   ar
   101    28    26   ar
   102    31    29   ar
   103     9     7   ar
   104    10     8   ar
   105    19    18   ar
   106    18    17    1
   107    26    25    1
   108    26    27   ar
   109    29    27   ar
   110     7     6   ar
   111     8     6   ar
   112    25    22    1
   113     6     5    1
   114    17    14    1
   115    15    14    1
   116    15    16    2
   117    14    13    1
   118    21    22    1
   119     5     2    1
   120    22    23    1
   121    23    24    2
   122     2     3    1
   123     2     1    1
   124     3     4    2
