@<TRIPOS>MOLECULE
tmp/2y2xB01.pdb
 90 85 0 0 0
SMALL
GASTEIGER

@<TRIPOS>ATOM
      1  N        -17.8120  -24.2490  -28.5210 N.3    35  LYS35      -0.1231
      2  CA       -19.1460  -23.8780  -28.0640 C.3    35  LYS35       0.1693
      3  C        -19.6640  -22.7000  -28.8640 C.2    35  LYS35       0.2592
      4  O        -19.0490  -21.6360  -28.8720 O.2    35  LYS35      -0.2718
      5  CB       -19.1260  -23.5320  -26.5760 C.3    35  LYS35       0.0285
      6  CG       -18.8290  -24.7110  -25.6690 C.3    35  LYS35       0.0035
      7  CD       -18.7390  -24.2600  -24.2180 C.3    35  LYS35       0.0206
      8  CE       -18.3390  -25.3900  -23.2990 C.3    35  LYS35       0.1093
      9  NZ       -18.2340  -24.9130  -21.8860 N.3    35  LYS35      -0.1314
     10  N        -20.8060  -22.9040  -29.5260 N.am   36  PHE36      -0.1962
     11  CA       -21.4970  -21.8610  -30.2700 C.3    36  PHE36       0.1771
     12  C        -22.7610  -21.5240  -29.5080 C.2    36  PHE36       0.2620
     13  O        -23.6560  -22.3580  -29.4110 O.2    36  PHE36      -0.2715
     14  CB       -21.9340  -22.3760  -31.6380 C.3    36  PHE36       0.0574
     15  CG       -20.8220  -22.5640  -32.6160 C.ar   36  PHE36      -0.0200
     16  CD1      -19.6400  -21.8610  -32.5010 C.ar   36  PHE36      -0.0042
     17  CD2      -20.9770  -23.4390  -33.6780 C.ar   36  PHE36      -0.0042
     18  CE1      -18.6230  -22.0420  -33.4220 C.ar   36  PHE36      -0.0003
     19  CE2      -19.9680  -23.6230  -34.5990 C.ar   36  PHE36      -0.0003
     20  CZ       -18.7890  -22.9220  -34.4730 C.ar   36  PHE36      -0.0000
     21  N        -22.8450  -20.3100  -28.9760 N.am   37  SER37      -0.1950
     22  CA       -24.0310  -19.8890  -28.2410 C.3    37  SER37       0.1924
     23  C        -24.6340  -18.6720  -28.9140 C.2    37  SER37       0.2314
     24  O        -23.9800  -17.6390  -29.0270 O.2    37  SER37      -0.2863
     25  CB       -23.6670  -19.5620  -26.7920 C.3    37  SER37       0.2116
     26  OG       -24.8110  -19.1820  -26.0470 O.3    37  SER37      -0.2180
     27  N        -27.9430  -23.2520  -29.0550 N.3    50  ASP50      -0.1225
     28  CA       -26.5710  -23.5140  -28.6370 C.3    50  ASP50       0.1805
     29  C        -26.1060  -24.7970  -29.3170 C.2    50  ASP50       0.2598
     30  O        -26.8870  -25.7320  -29.5020 O.2    50  ASP50      -0.2718
     31  CB       -26.4900  -23.7360  -27.1230 C.3    50  ASP50       0.1424
     32  CG       -26.7110  -22.4710  -26.3170 C.2    50  ASP50       0.3668
     33  OD1      -26.5780  -21.3590  -26.8680 O.co2  50  ASP50      -0.2456
     34  OD2      -26.9950  -22.6000  -25.1070 O.co2  50  ASP50      -0.2456
     35  N        -24.8310  -24.8450  -29.6750 N.am   51  ALA51      -0.1966
     36  CA       -24.2490  -26.0770  -30.1830 C.3    51  ALA51       0.1728
     37  C        -22.9080  -26.3190  -29.5050 C.2    51  ALA51       0.2616
     38  O        -22.2210  -25.3760  -29.1030 O.2    51  ALA51      -0.2715
     39  CB       -24.0920  -26.0230  -31.6940 C.3    51  ALA51       0.0334
     40  N        -22.5430  -27.5870  -29.3600 N.am   52  ILE52      -0.1977
     41  CA       -21.2260  -27.9120  -28.8280 C.3    52  ILE52       0.1596
     42  C        -20.6050  -28.9720  -29.7170 C.2    52  ILE52       0.2287
     43  O        -21.2670  -29.9310  -30.1270 O.2    52  ILE52      -0.2864
     44  CB       -21.2890  -28.3760  -27.3550 C.3    52  ILE52       0.0276
     45  CG1      -19.8820  -28.5320  -26.7820 C.3    52  ILE52       0.0022
     46  CG2      -22.1000  -29.6670  -27.2190 C.3    52  ILE52       0.0022
     47  CD1      -19.8620  -28.7420  -25.2750 C.3    52  ILE52       0.0001
     48  N        -23.4930  -31.6940  -30.3350 N.3    84  GLY84      -0.1225
     49  CA       -24.7770  -31.5960  -29.6660 C.3    84  GLY84       0.1811
     50  C        -25.3900  -30.2340  -29.9140 C.2    84  GLY84       0.2280
     51  O        -24.6840  -29.2430  -30.0430 O.2    84  GLY84      -0.2866
     52  N        -28.7640  -27.5680  -28.6420 N.3    86  ALA86      -0.1245
     53  CA       -29.9060  -27.3190  -27.7660 C.3    86  ALA86       0.1562
     54  C        -30.6560  -26.0980  -28.2630 C.2    86  ALA86       0.2260
     55  O        -30.0410  -25.0810  -28.6060 O.2    86  ALA86      -0.2867
     56  CB       -29.4520  -27.0990  -26.3200 C.3    86  ALA86       0.0290
     57  N        -34.3440  -24.7850  -21.9990 N.3    97  LYS97      -0.1245
     58  CA       -33.4440  -25.3260  -23.0120 C.3    97  LYS97       0.1561
     59  C        -33.8030  -26.7830  -23.2820 C.2    97  LYS97       0.2260
     60  O        -34.0880  -27.5300  -22.3530 O.2    97  LYS97      -0.2867
     61  CB       -31.9870  -25.1960  -22.5680 C.3    97  LYS97       0.0271
     62  CG       -31.5890  -23.7700  -22.2260 C.3    97  LYS97       0.0035
     63  CD       -30.0770  -23.6120  -22.1640 C.3    97  LYS97       0.0206
     64  CE       -29.4770  -24.4900  -21.0810 C.3    97  LYS97       0.1093
     65  NZ       -28.0130  -24.2560  -20.9430 N.3    97  LYS97      -0.1314
     66  N        -29.1270  -31.0950  -26.0650 N.3   100  GLU100     -0.1231
     67  CA       -27.8830  -31.5420  -25.4310 C.3   100  GLU100      0.1699
     68  C        -27.2350  -30.3760  -24.6900 C.2   100  GLU100      0.2592
     69  O        -27.0780  -29.2890  -25.2420 O.2   100  GLU100     -0.2718
     70  CB       -26.9340  -32.1370  -26.4830 C.3   100  GLU100      0.0402
     71  CG       -25.6120  -32.6600  -25.9180 C.3   100  GLU100      0.1161
     72  CD       -24.9700  -33.7130  -26.8050 C.2   100  GLU100      0.3649
     73  OE1      -25.6070  -34.1290  -27.8010 O.co2 100  GLU100     -0.2457
     74  OE2      -23.8370  -34.1260  -26.5080 O.co2 100  GLU100     -0.2457
     75  N        -26.8780  -30.5920  -23.4270 N.am  101  MET101     -0.1965
     76  CA       -26.3300  -29.5090  -22.6160 C.3   101  MET101      0.1736
     77  C        -25.4280  -30.0440  -21.4990 C.2   101  MET101      0.2616
     78  O        -25.2040  -31.2510  -21.4020 O.2   101  MET101     -0.2715
     79  CB       -27.4610  -28.6330  -22.0660 C.3   101  MET101      0.0427
     80  CG       -28.4410  -29.3610  -21.1580 C.3   101  MET101      0.0599
     81  SD       -30.0650  -28.5450  -21.0240 S.3   101  MET101     -0.1393
     82  CE       -30.8190  -29.0280  -22.5670 C.3   101  MET101      0.0692
     83  N        -24.9020  -29.1290  -20.6880 N.am  102  LEU102     -0.1977
     84  CA       -23.9500  -29.4470  -19.6300 C.3   102  LEU102      0.1596
     85  C        -24.5430  -29.0420  -18.2720 C.2   102  LEU102      0.2287
     86  O        -24.2370  -27.9780  -17.7350 O.2   102  LEU102     -0.2864
     87  CB       -22.6500  -28.6740  -19.8620 C.3   102  LEU102      0.0297
     88  CG       -21.9180  -28.8890  -21.1880 C.3   102  LEU102      0.0022
     89  CD1      -20.8910  -27.7830  -21.4040 C.3   102  LEU102      0.0001
     90  CD2      -21.2420  -30.2280  -21.1770 C.3   102  LEU102      0.0001
@<TRIPOS>BOND
     1    19    20   ar
     2    19    17   ar
     3    20    18   ar
     4    17    15   ar
     5    18    16   ar
     6    15    16   ar
     7    15    14    1
     8    39    36    1
     9    14    11    1
    10    48    49    1
    11    11    10    1
    12    11    12    1
    13    36    35    1
    14    36    37    1
    15    43    42    2
    16    51    50    2
    17    50    49    1
    18    42    41    1
    19    35    29   am
    20    10     3   am
    21    12    13    2
    22    12    21   am
    23    37    40   am
    24    37    38    2
    25    30    29    2
    26    40    41    1
    27    29    28    1
    28    27    28    1
    29    24    23    2
    30    21    22    1
    31    23    22    1
    32     4     3    2
    33     3     2    1
    34    41    44    1
    35    52    53    1
    36    28    31    1
    37    55    54    2
    38     1     2    1
    39    54    53    1
    40    22    25    1
    41     2     5    1
    42    73    72   ar
    43    53    56    1
    44    44    46    1
    45    44    45    1
    46    31    32    1
    47    33    32   ar
    48    72    74   ar
    49    72    71    1
    50    25    26    1
    51    45    47    1
    52     5     6    1
    53    70    71    1
    54    70    67    1
    55    32    34   ar
    56    66    67    1
    57     6     7    1
    58    67    68    1
    59    69    68    2
    60    68    75   am
    61     7     8    1
    62    75    76    1
    63     8     9    1
    64    59    58    1
    65    59    60    2
    66    58    61    1
    67    58    57    1
    68    76    79    1
    69    76    77    1
    70    61    62    1
    71    82    81    1
    72    62    63    1
    73    63    64    1
    74    79    80    1
    75    77    78    2
    76    77    83   am
    77    89    88    1
    78    88    90    1
    79    88    87    1
    80    80    81    1
    81    64    65    1
    82    83    84    1
    83    87    84    1
    84    84    85    1
    85    85    86    2
