@<TRIPOS>MOLECULE
tmp/2y2xB04.pdb
 92 90 0 0 0
SMALL
GASTEIGER

@<TRIPOS>ATOM
      1  N        -13.6740  -21.4990  -28.4920 N.3    10  LEU10      -0.1245
      2  CA       -12.9550  -22.7250  -28.7840 C.3    10  LEU10       0.1561
      3  C        -11.8880  -22.9180  -27.7160 C.2    10  LEU10       0.2260
      4  O        -11.1290  -21.9990  -27.4200 O.2    10  LEU10      -0.2867
      5  CB       -12.3050  -22.6360  -30.1660 C.3    10  LEU10       0.0270
      6  CG       -11.3560  -23.7680  -30.5770 C.3    10  LEU10       0.0019
      7  CD1      -12.0930  -25.0890  -30.6870 C.3    10  LEU10       0.0001
      8  CD2      -10.6670  -23.4340  -31.8980 C.3    10  LEU10       0.0001
      9  N        -10.4580  -30.7270  -28.5880 N.3    32  PHE32      -0.1241
     10  CA       -11.0140  -29.4910  -29.1200 C.3    32  PHE32       0.1605
     11  C        -12.4450  -29.3880  -28.6120 C.2    32  PHE32       0.2264
     12  O        -13.2380  -30.3090  -28.7970 O.2    32  PHE32      -0.2867
     13  CB       -11.0230  -29.5150  -30.6560 C.3    32  PHE32       0.0534
     14  CG        -9.6780  -29.7760  -31.2720 C.ar   32  PHE32      -0.0203
     15  CD1       -9.1930  -31.0670  -31.3750 C.ar   32  PHE32      -0.0042
     16  CD2       -8.9050  -28.7310  -31.7550 C.ar   32  PHE32      -0.0042
     17  CE1       -7.9510  -31.3200  -31.9480 C.ar   32  PHE32      -0.0003
     18  CE2       -7.6550  -28.9740  -32.3270 C.ar   32  PHE32      -0.0003
     19  CZ        -7.1840  -30.2720  -32.4200 C.ar   32  PHE32      -0.0000
     20  N        -15.6460  -26.8540  -28.8480 N.3    34  LEU34      -0.1245
     21  CA       -16.1570  -25.6820  -29.5440 C.3    34  LEU34       0.1561
     22  C        -17.5780  -25.4250  -29.0940 C.2    34  LEU34       0.2260
     23  O        -18.4380  -26.2860  -29.2360 O.2    34  LEU34      -0.2867
     24  CB       -16.1120  -25.9080  -31.0540 C.3    34  LEU34       0.0270
     25  CG       -16.7320  -24.8290  -31.9420 C.3    34  LEU34       0.0019
     26  CD1      -15.9350  -23.5420  -31.8340 C.3    34  LEU34       0.0001
     27  CD2      -16.7850  -25.3160  -33.3890 C.3    34  LEU34       0.0001
     28  N        -19.3430  -28.7680  -30.0560 N.3    53  GLY53      -0.1210
     29  CA       -18.6330  -29.7310  -30.8630 C.3    53  GLY53       0.1956
     30  C        -17.4370  -30.2070  -30.0660 C.2    53  GLY53       0.2612
     31  O        -16.6590  -29.3940  -29.5710 O.2    53  GLY53      -0.2717
     32  N        -17.3030  -31.5230  -29.9570 N.am   54  LEU54      -0.1965
     33  CA       -16.2320  -32.1350  -29.1690 C.3    54  LEU54       0.1728
     34  C        -15.4300  -33.0840  -30.0360 C.2    54  LEU54       0.2616
     35  O        -15.9900  -33.9270  -30.7410 O.2    54  LEU54      -0.2715
     36  CB       -16.8270  -32.9400  -28.0120 C.3    54  LEU54       0.0311
     37  CG       -17.8350  -32.2300  -27.1180 C.3    54  LEU54       0.0022
     38  CD1      -18.4340  -33.2160  -26.1020 C.3    54  LEU54       0.0001
     39  CD2      -17.1850  -31.0400  -26.4210 C.3    54  LEU54       0.0001
     40  N        -14.1080  -32.9630  -29.9860 N.am   55  PHE55      -0.1974
     41  CA       -13.2720  -33.8450  -30.7940 C.3    55  PHE55       0.1639
     42  C        -11.9720  -34.1140  -30.0580 C.2    55  PHE55       0.2290
     43  O        -11.3280  -33.1870  -29.5410 O.2    55  PHE55      -0.2864
     44  CB       -13.0110  -33.2380  -32.1820 C.3    55  PHE55       0.0560
     45  CG       -12.2850  -34.1610  -33.1330 C.ar   55  PHE55      -0.0200
     46  CD1      -12.8750  -35.3370  -33.5630 C.ar   55  PHE55      -0.0042
     47  CD2      -11.0160  -33.8450  -33.5940 C.ar   55  PHE55      -0.0042
     48  CE1      -12.2140  -36.1850  -34.4380 C.ar   55  PHE55      -0.0003
     49  CE2      -10.3470  -34.6940  -34.4860 C.ar   55  PHE55      -0.0003
     50  CZ       -10.9510  -35.8650  -34.8940 C.ar   55  PHE55      -0.0000
     51  N         -9.3320  -41.5380  -32.3850 N.3    79  ASN79      -0.1225
     52  CA       -10.0400  -40.2840  -32.1720 C.3    79  ASN79       0.1785
     53  C        -11.5010  -40.5460  -31.8460 C.2    79  ASN79       0.2597
     54  O        -12.0040  -41.6570  -32.0290 O.2    79  ASN79      -0.2718
     55  CB        -9.9310  -39.3940  -33.4060 C.3    79  ASN79       0.1169
     56  CG       -10.5160  -40.0440  -34.6330 C.2    79  ASN79       0.2627
     57  OD1      -11.7250  -40.2190  -34.7280 O.2    79  ASN79      -0.2716
     58  ND2       -9.6550  -40.4100  -35.5830 N.am   79  ASN79      -0.0877
     59  N        -12.1890  -39.5190  -31.3600 N.am   80  TYR80      -0.1962
     60  CA       -13.6160  -39.6290  -31.1070 C.3    80  TYR80       0.1771
     61  C        -14.2200  -38.2520  -30.9670 C.2    80  TYR80       0.2620
     62  O        -13.5150  -37.2820  -30.7040 O.2    80  TYR80      -0.2715
     63  CB       -13.8960  -40.4660  -29.8520 C.3    80  TYR80       0.0574
     64  CG       -13.6430  -39.7900  -28.5090 C.ar   80  TYR80      -0.0198
     65  CD1      -12.3720  -39.3760  -28.1360 C.ar   80  TYR80      -0.0009
     66  CD2      -14.6800  -39.6200  -27.5950 C.ar   80  TYR80      -0.0009
     67  CE1      -12.1440  -38.7810  -26.8900 C.ar   80  TYR80       0.0417
     68  CE2      -14.4620  -39.0300  -26.3510 C.ar   80  TYR80       0.0417
     69  CZ       -13.1960  -38.6130  -26.0090 C.ar   80  TYR80       0.1957
     70  OH       -12.9700  -38.0320  -24.7740 O.3    80  TYR80      -0.2866
     71  N        -15.5250  -38.1580  -31.1620 N.am   81  GLY81      -0.1940
     72  CA       -16.1840  -36.8890  -30.9520 C.3    81  GLY81       0.2014
     73  C        -17.6560  -36.9150  -31.2580 C.2    81  GLY81       0.2639
     74  O        -18.2060  -37.9200  -31.7030 O.2    81  GLY81      -0.2714
     75  N        -18.3070  -35.7920  -31.0070 N.am   82  ARG82      -0.1963
     76  CA       -19.7280  -35.6860  -31.2630 C.3    82  ARG82       0.1729
     77  C        -20.1300  -34.2260  -31.3060 C.2    82  ARG82       0.2616
     78  O        -19.3760  -33.3460  -30.8830 O.2    82  ARG82      -0.2715
     79  CB       -20.5320  -36.4360  -30.1920 C.3    82  ARG82       0.0348
     80  CG       -20.3710  -35.8890  -28.7740 C.3    82  ARG82       0.0492
     81  CD       -21.3140  -36.5970  -27.7840 C.3    82  ARG82       0.2205
     82  NE       -22.7140  -36.2610  -28.0180 N.pl3  82  ARG82      -0.0865
     83  CZ       -23.5940  -37.0460  -28.6380 C.cat  82  ARG82       0.5346
     84  NH1      -23.2380  -38.2470  -29.0870 N.pl3  82  ARG82       0.1354
     85  NH2      -24.8430  -36.6290  -28.8020 N.pl3  82  ARG82       0.1354
     86  N        -21.3170  -33.9750  -31.8350 N.am   83  VAL83      -0.1977
     87  CA       -21.8730  -32.6310  -31.8660 C.3    83  VAL83       0.1596
     88  C        -23.2390  -32.6610  -31.2100 C.2    83  VAL83       0.2287
     89  O        -24.0360  -33.5620  -31.4630 O.2    83  VAL83      -0.2864
     90  CB       -21.9960  -32.1040  -33.3110 C.3    83  VAL83       0.0276
     91  CG1      -22.7590  -30.7750  -33.3420 C.3    83  VAL83       0.0022
     92  CG2      -20.6170  -31.9490  -33.9320 C.3    83  VAL83       0.0022
@<TRIPOS>BOND
     1    58    56   am
     2    50    49   ar
     3    50    48   ar
     4    57    56    2
     5    56    55    1
     6    49    47   ar
     7    48    46   ar
     8    92    90    1
     9    47    45   ar
    10    46    45   ar
    11    55    52    1
    12    27    25    1
    13    91    90    1
    14    90    87    1
    15    45    44    1
    16    19    18   ar
    17    19    17   ar
    18    51    52    1
    19    18    16   ar
    20    44    41    1
    21    52    53    1
    22    54    53    2
    23    17    15   ar
    24    25    26    1
    25    25    24    1
    26     8     6    1
    27    87    86    1
    28    87    88    1
    29    53    59   am
    30    86    77   am
    31    16    14   ar
    32    74    73    2
    33    89    88    2
    34    15    14   ar
    35    59    60    1
    36    77    76    1
    37    77    78    2
    38    14    13    1
    39    76    75    1
    40    76    79    1
    41    73    75   am
    42    73    72    1
    43    71    61   am
    44    71    72    1
    45    60    61    1
    46    60    63    1
    47    24    21    1
    48    61    62    2
    49    29    30    1
    50    29    28    1
    51    41    42    1
    52    41    40    1
    53    35    34    2
    54     7     6    1
    55    13    10    1
    56     6     5    1
    57    79    80    1
    58     5     2    1
    59    30    32   am
    60    30    31    2
    61    42    43    2
    62    34    40   am
    63    34    33    1
    64    32    33    1
    65    63    64    1
    66    21    22    1
    67    21    20    1
    68    23    22    2
    69    33    36    1
    70    10    11    1
    71    10     9    1
    72    84    83    1
    73    85    83    1
    74    12    11    2
    75     2     1    1
    76     2     3    1
    77    80    81    1
    78    83    82    2
    79    64    65   ar
    80    64    66   ar
    81    65    67   ar
    82    82    81    1
    83    36    37    1
    84     3     4    2
    85    66    68   ar
    86    37    39    1
    87    37    38    1
    88    67    69   ar
    89    68    69   ar
    90    69    70    1
