@<TRIPOS>MOLECULE
tmp/2y30B01.pdb
 149 145 0 0 0
SMALL
GASTEIGER

@<TRIPOS>ATOM
      1  N         29.2400   36.0600  -32.3420 N.3   146  ASN146     -0.1240
      2  CA        30.2350   35.1210  -31.8020 C.3   146  ASN146      0.1653
      3  C         31.2060   34.5990  -32.8610 C.2   146  ASN146      0.2266
      4  O         32.3760   34.3700  -32.5660 O.2   146  ASN146     -0.2867
      5  CB        29.5730   33.9420  -31.1280 C.3   146  ASN146      0.1155
      6  CG        30.5750   32.8870  -30.6770 C.2   146  ASN146      0.2627
      7  OD1       30.7140   31.7990  -31.2910 O.2   146  ASN146     -0.2716
      8  ND2       31.2920   33.1980  -29.6060 N.am  146  ASN146     -0.0877
      9  N         35.3130   35.0670  -32.9540 N.3   150  TRP150     -0.1241
     10  CA        36.3810   34.0830  -33.1080 C.3   150  TRP150      0.1605
     11  C         37.4330   34.5310  -34.1430 C.2   150  TRP150      0.2264
     12  O         38.6270   34.3800  -33.9320 O.2   150  TRP150     -0.2867
     13  CB        35.8310   32.7330  -33.5170 C.3   150  TRP150      0.0550
     14  CG        35.2700   31.9210  -32.3960 C.ar  150  TRP150      0.0003
     15  CD1       33.9610   31.5560  -32.2140 C.ar  150  TRP150      0.0946
     16  CD2       35.9990   31.3310  -31.3100 C.ar  150  TRP150      0.0152
     17  NE1       33.8410   30.7690  -31.0860 N.ar  150  TRP150     -0.2442
     18  CE2       35.0740   30.6280  -30.5110 C.ar  150  TRP150      0.0810
     19  CE3       37.3410   31.3240  -30.9400 C.ar  150  TRP150      0.0012
     20  CZ2       35.4540   29.9340  -29.3680 C.ar  150  TRP150      0.0191
     21  CZ3       37.7130   30.6350  -29.7730 C.ar  150  TRP150      0.0001
     22  CH2       36.7810   29.9490  -29.0280 C.ar  150  TRP150      0.0015
     23  N         38.5660   28.7100  -33.0340 N.3   161  MET161     -0.1245
     24  CA        37.6360   27.9000  -32.1970 C.3   161  MET161      0.1570
     25  C         38.0640   26.4550  -31.9600 C.2   161  MET161      0.2261
     26  O         38.0040   25.9690  -30.8350 O.2   161  MET161     -0.2867
     27  CB        36.2010   27.8980  -32.7500 C.3   161  MET161      0.0387
     28  CG        35.2780   26.8300  -32.1310 C.3   161  MET161      0.0595
     29  SD        33.5600   27.2480  -32.3770 S.3   161  MET161     -0.1393
     30  CE        32.6970   26.0340  -31.3670 C.3   161  MET161      0.0692
     31  N         41.2920   26.4210  -29.7810 N.3   164  TRP164     -0.1227
     32  CA        40.9510   26.8050  -28.4100 C.3   164  TRP164      0.1737
     33  C         40.2750   25.6620  -27.6620 C.2   164  TRP164      0.2595
     34  O         40.5390   25.4640  -26.4870 O.2   164  TRP164     -0.2718
     35  CB        40.0400   28.0260  -28.4110 C.3   164  TRP164      0.0564
     36  CG        39.8100   28.5720  -27.0960 C.ar  164  TRP164      0.0003
     37  CD1       40.5210   29.5530  -26.4970 C.ar  164  TRP164      0.0946
     38  CD2       38.7900   28.1780  -26.1680 C.ar  164  TRP164      0.0152
     39  NE1       40.0100   29.7950  -25.2440 N.ar  164  TRP164     -0.2442
     40  CE2       38.9480   28.9620  -25.0240 C.ar  164  TRP164      0.0810
     41  CE3       37.7580   27.2330  -26.2000 C.ar  164  TRP164      0.0012
     42  CZ2       38.1020   28.8450  -23.9050 C.ar  164  TRP164      0.0191
     43  CZ3       36.9330   27.1050  -25.0870 C.ar  164  TRP164      0.0001
     44  CH2       37.1170   27.9110  -23.9520 C.ar  164  TRP164      0.0015
     45  N         39.4190   24.8970  -28.3350 N.am  165  MET165     -0.1965
     46  CA        38.7160   23.7940  -27.6500 C.3   165  MET165      0.1736
     47  C         39.6650   22.6970  -27.1990 C.2   165  MET165      0.2616
     48  O         39.5080   22.1400  -26.1070 O.2   165  MET165     -0.2715
     49  CB        37.6220   23.1720  -28.5210 C.3   165  MET165      0.0427
     50  CG        36.3100   23.9460  -28.4920 C.3   165  MET165      0.0599
     51  SD        35.2050   23.3480  -29.7590 S.3   165  MET165     -0.1393
     52  CE        34.8760   21.7170  -29.0930 C.3   165  MET165      0.0692
     53  N         40.6300   22.3870  -28.0560 N.am  166  ARG166     -0.1977
     54  CA        41.6460   21.3920  -27.7610 C.3   166  ARG166      0.1597
     55  C         42.5310   21.8740  -26.5840 C.2   166  ARG166      0.2287
     56  O         42.7500   21.1300  -25.6270 O.2   166  ARG166     -0.2864
     57  CB        42.4820   21.1280  -29.0350 C.3   166  ARG166      0.0334
     58  CG        43.5440   20.0490  -28.9330 C.3   166  ARG166      0.0492
     59  CD        44.4740   20.0200  -30.1780 C.3   166  ARG166      0.2205
     60  NE        45.4170   21.1660  -30.2370 N.pl3 166  ARG166     -0.0865
     61  CZ        46.5500   21.2620  -29.5220 C.cat 166  ARG166      0.5346
     62  NH1       46.9260   20.2930  -28.6880 N.pl3 166  ARG166      0.1354
     63  NH2       47.3240   22.3370  -29.6380 N.pl3 166  ARG166      0.1354
     64  N         41.8900   24.0210  -24.3230 N.3   168  SER168     -0.1202
     65  CA        41.1650   24.2910  -23.1050 C.3   168  SER168      0.2020
     66  C         40.8290   22.9880  -22.4160 C.2   168  SER168      0.2619
     67  O         40.1960   22.9860  -21.3880 O.2   168  SER168     -0.2717
     68  CB        39.8750   25.0900  -23.3890 C.3   168  SER168      0.2103
     69  OG        38.7710   24.2090  -23.6180 O.3   168  SER168     -0.2182
     70  N         41.2350   21.8730  -23.0010 N.am  169  GLY169     -0.1956
     71  CA        40.8590   20.5590  -22.4880 C.3   169  GLY169      0.1869
     72  C         41.2330   20.3840  -21.0330 C.2   169  GLY169      0.2309
     73  O         40.3870   20.0170  -20.1980 O.2   169  GLY169     -0.2863
     74  N         39.2110   22.5050  -18.6660 N.3   172  ALA172     -0.1231
     75  CA        37.8700   21.9240  -18.6090 C.3   172  ALA172      0.1694
     76  C         37.8180   20.7360  -17.6610 C.2   172  ALA172      0.2591
     77  O         36.8390   20.5560  -16.9210 O.2   172  ALA172     -0.2718
     78  CB        37.4180   21.4970  -20.0090 C.3   172  ALA172      0.0304
     79  N         38.8510   19.9000  -17.7000 N.am  173  GLN173     -0.1979
     80  CA        38.9050   18.7240  -16.8230 C.3   173  GLN173      0.1601
     81  C         39.0580   19.1490  -15.3540 C.2   173  GLN173      0.2287
     82  O         38.5210   18.5160  -14.4310 O.2   173  GLN173     -0.2864
     83  CB        40.0560   17.8020  -17.2340 C.3   173  GLN173      0.0394
     84  CG        40.0450   16.4120  -16.5650 C.3   173  GLN173      0.0908
     85  CD        38.7860   15.6270  -16.8440 C.2   173  GLN173      0.2608
     86  OE1       38.4520   15.3680  -18.0010 O.2   173  GLN173     -0.2717
     87  NE2       38.0670   15.2490  -15.7810 N.am  173  GLN173     -0.0878
     88  N         35.6170   20.1790  -14.2140 N.3   176  VAL176     -0.1245
     89  CA        34.8410   18.9690  -13.9600 C.3   176  VAL176      0.1561
     90  C         35.2950   18.3510  -12.6490 C.2   176  VAL176      0.2260
     91  O         34.4760   18.0610  -11.7930 O.2   176  VAL176     -0.2867
     92  CB        34.9860   17.9590  -15.0920 C.3   176  VAL176      0.0252
     93  CG1       34.3460   16.6170  -14.7100 C.3   176  VAL176      0.0019
     94  CG2       34.3640   18.5200  -16.3360 C.3   176  VAL176      0.0019
     95  N         27.5680   22.1080  -16.2950 N.3   184  PHE184     -0.1241
     96  CA        28.6740   22.3580  -17.2310 C.3   184  PHE184      0.1605
     97  C         29.2620   21.0330  -17.7200 C.2   184  PHE184      0.2264
     98  O         29.4640   20.8600  -18.9290 O.2   184  PHE184     -0.2867
     99  CB        29.7250   23.1970  -16.5250 C.3   184  PHE184      0.0534
    100  CG        30.9780   23.4830  -17.3210 C.ar  184  PHE184     -0.0203
    101  CD1       30.9980   24.4490  -18.2880 C.ar  184  PHE184     -0.0042
    102  CD2       32.1790   22.8710  -16.9970 C.ar  184  PHE184     -0.0042
    103  CE1       32.1740   24.7410  -18.9900 C.ar  184  PHE184     -0.0003
    104  CE2       33.3640   23.1660  -17.6990 C.ar  184  PHE184     -0.0003
    105  CZ        33.3540   24.0950  -18.6820 C.ar  184  PHE184     -0.0000
    106  N         26.9660   19.2860  -20.0810 N.3   187  VAL187     -0.1231
    107  CA        27.1090   19.9530  -21.3630 C.3   187  VAL187      0.1692
    108  C         28.3780   19.4630  -22.0760 C.2   187  VAL187      0.2592
    109  O         28.3190   19.0890  -23.2340 O.2   187  VAL187     -0.2718
    110  CB        27.1150   21.5130  -21.2700 C.3   187  VAL187      0.0266
    111  CG1       27.5440   22.1040  -22.5690 C.3   187  VAL187      0.0020
    112  CG2       25.7470   22.0580  -20.8850 C.3   187  VAL187      0.0020
    113  N         29.5140   19.4320  -21.3930 N.am  188  LEU188     -0.1966
    114  CA        30.7590   18.9850  -22.0400 C.3   188  LEU188      0.1728
    115  C         30.7200   17.5120  -22.4750 C.2   188  LEU188      0.2616
    116  O         31.3180   17.1390  -23.4840 O.2   188  LEU188     -0.2715
    117  CB        31.9430   19.1690  -21.1210 C.3   188  LEU188      0.0311
    118  CG        32.4810   20.5760  -20.9650 C.3   188  LEU188      0.0022
    119  CD1       33.8270   20.4510  -20.2980 C.3   188  LEU188      0.0001
    120  CD2       32.6280   21.2960  -22.2820 C.3   188  LEU188      0.0001
    121  N         30.0460   16.6730  -21.7020 N.am  189  ALA189     -0.1977
    122  CA        29.9210   15.2550  -22.0500 C.3   189  ALA189      0.1597
    123  C         28.9610   15.0070  -23.2370 C.2   189  ALA189      0.2287
    124  O         29.1130   14.0250  -23.9440 O.2   189  ALA189     -0.2864
    125  CB        29.4490   14.4360  -20.8150 C.3   189  ALA189      0.0319
    126  N         27.1950   17.5950  -25.5650 N.3   191  THR191     -0.1218
    127  CA        26.8970   18.5300  -26.6460 C.3   191  THR191      0.1862
    128  C         27.4880   18.0190  -27.9520 C.2   191  THR191      0.2287
    129  O         28.5530   17.4270  -27.9500 O.2   191  THR191     -0.2866
    130  CB        27.3760   20.0070  -26.3420 C.3   191  THR191      0.1770
    131  OG1       27.0580   20.8540  -27.4600 O.3   191  THR191     -0.2211
    132  CG2       28.8540   20.0900  -26.0840 C.3   191  THR191      0.0375
    133  N         29.3170   22.0620  -30.9630 N.3   194  PRO194     -0.2102
    134  CA        30.6060   22.7110  -31.1570 C.3   194  PRO194      0.1504
    135  C         31.5260   21.9620  -32.0950 C.2   194  PRO194      0.2575
    136  O         32.4520   22.5880  -32.6550 O.2   194  PRO194     -0.2718
    137  CB        31.2070   22.7490  -29.7510 C.3   194  PRO194      0.0282
    138  CG        30.0820   22.5560  -28.8410 C.3   194  PRO194      0.0208
    139  CD        29.0320   21.8030  -29.5460 C.3   194  PRO194      0.0893
    140  N         31.2720   20.6550  -32.2520 N.am  195  HIS195     -0.1976
    141  CA        32.0280   19.7870  -33.1790 C.3   195  HIS195      0.1656
    142  C         31.5240   19.8030  -34.6230 C.2   195  HIS195      0.2291
    143  O         32.1490   19.2320  -35.5240 O.2   195  HIS195     -0.2864
    144  CB        32.0260   18.3360  -32.6760 C.3   195  HIS195      0.0771
    145  CG        32.4370   18.2070  -31.2430 C.ar  195  HIS195      0.0820
    146  ND1       33.7100   18.5030  -30.8110 N.ar  195  HIS195     -0.2267
    147  CD2       31.7380   17.8390  -30.1400 C.ar  195  HIS195      0.1154
    148  CE1       33.7800   18.3210  -29.5040 C.ar  195  HIS195      0.1986
    149  NE2       32.6020   17.9020  -29.0760 N.ar  195  HIS195     -0.2212
@<TRIPOS>BOND
     1   143   142    2
     2   142   141    1
     3    11    12    2
     4    11    10    1
     5    13    10    1
     6    13    14    1
     7   141   144    1
     8   141   140    1
     9    10     9    1
    10    23    24    1
    11     3     4    2
    12     3     2    1
    13    27    24    1
    14    27    28    1
    15   144   145    1
    16   136   135    2
    17    14    15   ar
    18    14    16   ar
    19    29    28    1
    20    29    30    1
    21     1     2    1
    22   140   135   am
    23    15    17   ar
    24    24    25    1
    25   135   134    1
    26    25    26    2
    27     2     5    1
    28    16    19   ar
    29    16    18   ar
    30     7     6    2
    31   145   146   ar
    32   145   147   ar
    33   134   133    1
    34   134   137    1
    35     5     6    1
    36    17    18   ar
    37   133   139    1
    38    19    21   ar
    39   146   148   ar
    40     6     8   am
    41    18    20   ar
    42    60    59    1
    43    60    61    2
    44    59    58    1
    45   147   149   ar
    46    31    32    1
    47    21    22   ar
    48    51    52    1
    49    51    50    1
    50   137   138    1
    51    63    61    1
    52   139   138    1
    53    61    62    1
    54   148   149   ar
    55    20    22   ar
    56    57    58    1
    57    57    54    1
    58    49    50    1
    59    49    46    1
    60    35    32    1
    61    35    36    1
    62    32    33    1
    63    45    33   am
    64    45    46    1
    65    53    54    1
    66    53    47   am
    67   128   129    2
    68   128   127    1
    69    54    55    1
    70    33    34    2
    71    46    47    1
    72   131   130    1
    73    47    48    2
    74    36    37   ar
    75    36    38   ar
    76   127   130    1
    77   127   126    1
    78    55    56    2
    79    37    39   ar
    80   130   132    1
    81    41    38   ar
    82    41    43   ar
    83    38    40   ar
    84    39    40   ar
    85    43    44   ar
    86    40    42   ar
    87    64    65    1
    88    44    42   ar
    89   124   123    2
    90    69    68    1
    91   116   115    2
    92    68    65    1
    93   123   122    1
    94   109   108    2
    95    65    66    1
    96    70    71    1
    97    70    66   am
    98   111   110    1
    99    71    72    1
   100   115   114    1
   101   115   121   am
   102    66    67    2
   103   120   118    1
   104   108   113   am
   105   108   107    1
   106   122   121    1
   107   122   125    1
   108   114   113    1
   109   114   117    1
   110   107   110    1
   111   107   106    1
   112   110   112    1
   113   117   118    1
   114    72    73    2
   115   118   119    1
   116    78    75    1
   117   103   105   ar
   118   103   101   ar
   119    98    97    2
   120   105   104   ar
   121    74    75    1
   122    75    76    1
   123   101   100   ar
   124    86    85    2
   125    97    96    1
   126    79    76   am
   127    79    80    1
   128   104   102   ar
   129    76    77    2
   130   100   102   ar
   131   100    99    1
   132    83    80    1
   133    83    84    1
   134    96    99    1
   135    96    95    1
   136    85    84    1
   137    85    87   am
   138    80    81    1
   139    94    92    1
   140    81    82    2
   141    92    93    1
   142    92    89    1
   143    88    89    1
   144    89    90    1
   145    90    91    2
