@<TRIPOS>MOLECULE
tmp/2y30B00.pdb
 173 163 0 0 0
SMALL
GASTEIGER

@<TRIPOS>ATOM
      1  N         23.6030   47.0630  -46.2230 N.3    59  ILE59      -0.1245
      2  CA        22.3530   46.3290  -46.2870 C.3    59  ILE59       0.1561
      3  C         21.7190   46.4380  -47.7100 C.2    59  ILE59       0.2260
      4  O         21.0290   45.5170  -48.1730 O.2    59  ILE59      -0.2867
      5  CB        21.3610   46.8100  -45.1930 C.3    59  ILE59       0.0252
      6  CG1       21.8660   46.3660  -43.7960 C.3    59  ILE59       0.0019
      7  CG2       19.9870   46.2740  -45.4790 C.3    59  ILE59       0.0019
      8  CD1       21.2220   47.0740  -42.6070 C.3    59  ILE59       0.0001
      9  N         22.2130   43.6020  -50.3420 N.3    62  THR62      -0.1218
     10  CA        21.4370   42.3950  -50.2110 C.3    62  THR62       0.1862
     11  C         20.0690   42.5860  -50.7950 C.2    62  THR62       0.2287
     12  O         19.5040   43.6580  -50.7540 O.2    62  THR62      -0.2866
     13  CB        21.2430   41.9630  -48.7070 C.3    62  THR62       0.1770
     14  OG1       20.4050   42.9130  -48.0330 O.3    62  THR62      -0.2211
     15  CG2       22.5890   41.8350  -47.9990 C.3    62  THR62       0.0375
     16  N         16.3690   40.5890  -50.8560 N.3    64  LEU64      -0.1245
     17  CA        15.3980   39.5260  -50.5980 C.3    64  LEU64       0.1561
     18  C         14.2090   39.6770  -51.6010 C.2    64  LEU64       0.2260
     19  O         14.0430   40.7410  -52.1890 O.2    64  LEU64      -0.2867
     20  CB        14.8980   39.6540  -49.1590 C.3    64  LEU64       0.0270
     21  CG        15.9740   39.3910  -48.0870 C.3    64  LEU64       0.0019
     22  CD1       15.6410   40.0660  -46.7980 C.3    64  LEU64       0.0001
     23  CD2       16.1200   37.9260  -47.8530 C.3    64  LEU64       0.0001
     24  N         16.4380   34.7310  -45.2200 N.3    79  ALA79      -0.1245
     25  CA        16.8840   35.9630  -44.5820 C.3    79  ALA79       0.1562
     26  C         18.0900   35.6580  -43.6560 C.2    79  ALA79       0.2260
     27  O         19.1230   36.3270  -43.7200 O.2    79  ALA79      -0.2867
     28  CB        15.7420   36.6300  -43.8450 C.3    79  ALA79       0.0290
     29  N         21.2870   35.2130  -45.7540 N.3    82  GLU82      -0.1231
     30  CA        21.7260   36.5100  -46.2510 C.3    82  GLU82       0.1699
     31  C         22.3900   37.3590  -45.1750 C.2    82  GLU82       0.2592
     32  O         23.3990   38.0120  -45.4320 O.2    82  GLU82      -0.2718
     33  CB        20.6020   37.2790  -46.9220 C.3    82  GLU82       0.0402
     34  CG        20.2860   36.6770  -48.2850 C.3    82  GLU82       0.1161
     35  CD        19.5760   37.6270  -49.2300 C.2    82  GLU82       0.3649
     36  OE1       19.5230   38.8490  -48.9640 O.co2  82  GLU82      -0.2457
     37  OE2       19.0390   37.1350  -50.2220 O.co2  82  GLU82      -0.2457
     38  N         21.8380   37.3580  -43.9750 N.am   83  LYS83      -0.1980
     39  CA        22.2950   38.2540  -42.9280 C.3    83  LYS83       0.1596
     40  C         23.6420   37.7530  -42.3950 C.2    83  LYS83       0.2287
     41  O         24.5520   38.5210  -42.1510 O.2    83  LYS83      -0.2864
     42  CB        21.2610   38.3290  -41.7790 C.3    83  LYS83       0.0298
     43  CG        21.7580   39.1570  -40.5650 C.3    83  LYS83       0.0038
     44  CD        20.5990   39.6150  -39.6880 C.3    83  LYS83       0.0206
     45  CE        21.0620   40.5040  -38.5630 C.3    83  LYS83       0.1093
     46  NZ        19.8960   40.9810  -37.7660 N.3    83  LYS83      -0.1314
     47  N         26.2760   38.6250  -44.8200 N.3    86  LEU86      -0.1245
     48  CA        26.5610   40.0820  -44.8220 C.3    86  LEU86       0.1561
     49  C         27.4620   40.4460  -43.6480 C.2    86  LEU86       0.2260
     50  O         28.3900   41.2360  -43.7900 O.2    86  LEU86      -0.2867
     51  CB        25.2810   40.9110  -44.7860 C.3    86  LEU86       0.0270
     52  CG        25.4800   42.4130  -44.9550 C.3    86  LEU86       0.0019
     53  CD1       25.9160   42.7770  -46.3690 C.3    86  LEU86       0.0001
     54  CD2       24.2640   43.1760  -44.5640 C.3    86  LEU86       0.0001
     55  N         21.1770   53.4830  -28.8960 N.3   100  GLY100     -0.1210
     56  CA        19.8460   52.9660  -28.6120 C.3   100  GLY100      0.1956
     57  C         18.8250   53.0760  -29.7460 C.2   100  GLY100      0.2612
     58  O         18.0430   52.1580  -29.9590 O.2   100  GLY100     -0.2717
     59  N         18.8460   54.1850  -30.4750 N.am  101  HIS101     -0.1962
     60  CA        17.8440   54.4450  -31.5230 C.3   101  HIS101      0.1772
     61  C         17.9990   53.5180  -32.7460 C.2   101  HIS101      0.2462
     62  O         19.1050   53.1520  -33.1410 O.2   101  HIS101     -0.2730
     63  CB        17.8200   55.9360  -31.8920 C.3   101  HIS101      0.0785
     64  CG        18.8940   56.3880  -32.8340 C.ar  101  HIS101      0.0821
     65  ND1       19.9250   57.2090  -32.4410 N.ar  101  HIS101     -0.2267
     66  CD2       19.0550   56.2050  -34.1690 C.ar  101  HIS101      0.1154
     67  CE1       20.6990   57.4780  -33.4820 C.ar  101  HIS101      0.1986
     68  NE2       20.1880   56.8850  -34.5430 N.ar  101  HIS101     -0.2212
     69  N         16.8870   53.0950  -33.3290 N.am  102  PRO102     -0.2727
     70  CA        17.0290   52.1520  -34.4410 C.3   102  PRO102      0.1402
     71  C         17.4080   52.9010  -35.7160 C.2   102  PRO102      0.2269
     72  O         17.1840   54.1020  -35.7900 O.2   102  PRO102     -0.2865
     73  CB        15.6350   51.5930  -34.5700 C.3   102  PRO102      0.0296
     74  CG        14.7450   52.7910  -34.1620 C.3   102  PRO102      0.0237
     75  CD        15.5390   53.6870  -33.2910 C.3   102  PRO102      0.0939
     76  N         16.7480   53.8990  -39.3550 N.3   104  TRP104     -0.1241
     77  CA        15.5460   53.9460  -40.2120 C.3   104  TRP104      0.1605
     78  C         15.8670   54.3920  -41.6290 C.2   104  TRP104      0.2264
     79  O         15.1820   55.2370  -42.2140 O.2   104  TRP104     -0.2867
     80  CB        14.4910   54.8460  -39.5760 C.3   104  TRP104      0.0550
     81  CG        13.7190   54.2300  -38.4290 C.ar  104  TRP104      0.0003
     82  CD1       13.7830   52.9140  -37.9690 C.ar  104  TRP104      0.0946
     83  CD2       12.6980   54.8780  -37.6370 C.ar  104  TRP104      0.0152
     84  NE1       12.8880   52.7600  -36.9060 N.ar  104  TRP104     -0.2442
     85  CE2       12.2120   53.9370  -36.7080 C.ar  104  TRP104      0.0810
     86  CE3       12.1670   56.1680  -37.6230 C.ar  104  TRP104      0.0012
     87  CZ2       11.1990   54.2360  -35.7940 C.ar  104  TRP104      0.0191
     88  CZ3       11.1540   56.4830  -36.6830 C.ar  104  TRP104      0.0001
     89  CH2       10.6860   55.5100  -35.7940 C.ar  104  TRP104      0.0015
     90  N         17.5570   49.2800  -44.6410 N.3   108  SER108     -0.1217
     91  CA        17.2200   48.6210  -43.3700 C.3   108  SER108      0.1889
     92  C         15.7290   48.3240  -43.2770 C.2   108  SER108      0.2288
     93  O         15.3440   47.2120  -43.0210 O.2   108  SER108     -0.2866
     94  CB        17.6010   49.5270  -42.1520 C.3   108  SER108      0.2089
     95  OG        19.0080   49.6410  -42.0370 O.3   108  SER108     -0.2183
     96  N         14.3130   45.5540  -45.7020 N.3   111  GLN111     -0.1231
     97  CA        14.6080   44.1740  -45.2720 C.3   111  GLN111      0.1698
     98  C         13.7350   43.7980  -44.0950 C.2   111  GLN111      0.2592
     99  O         13.2880   42.6840  -44.0010 O.2   111  GLN111     -0.2718
    100  CB        16.0550   43.9510  -44.8740 C.3   111  GLN111      0.0381
    101  CG        17.1920   44.4680  -45.8310 C.3   111  GLN111      0.0905
    102  CD        17.0950   44.0480  -47.3090 C.2   111  GLN111      0.2608
    103  OE1       16.2370   43.2790  -47.7210 O.2   111  GLN111     -0.2717
    104  NE2       18.0070   44.5790  -48.1120 N.am  111  GLN111     -0.0878
    105  N         13.4660   44.7360  -43.2010 N.am  112  GLN112     -0.1979
    106  CA        12.5830   44.4490  -42.0720 C.3   112  GLN112      0.1601
    107  C         11.1830   44.2100  -42.5830 C.2   112  GLN112      0.2287
    108  O         10.4700   43.3930  -42.0450 O.2   112  GLN112     -0.2864
    109  CB        12.6240   45.5840  -41.0270 C.3   112  GLN112      0.0394
    110  CG        13.9180   45.5980  -40.2560 C.3   112  GLN112      0.0908
    111  CD        14.0270   46.8170  -39.3280 C.2   112  GLN112      0.2608
    112  OE1       13.0360   47.2030  -38.6350 O.2   112  GLN112     -0.2717
    113  NE2       15.2270   47.4360  -39.3060 N.am  112  GLN112     -0.0878
    114  N         11.2860   40.5370  -43.2690 N.3   115  VAL115     -0.1231
    115  CA        11.4020   39.6750  -42.1040 C.3   115  VAL115      0.1692
    116  C         10.1170   39.7830  -41.2520 C.2   115  VAL115      0.2591
    117  O          9.5210   38.7760  -40.9350 O.2   115  VAL115     -0.2718
    118  CB        12.7050   39.9260  -41.3090 C.3   115  VAL115      0.0266
    119  CG1       12.6690   39.1600  -39.9640 C.3   115  VAL115      0.0020
    120  CG2       13.9890   39.4540  -42.1600 C.3   115  VAL115      0.0020
    121  N          9.6600   40.9850  -40.9490 N.am  116  LEU116     -0.1980
    122  CA         8.3800   41.1360  -40.2420 C.3   116  LEU116      0.1596
    123  C          7.2530   40.5680  -41.0990 C.2   116  LEU116      0.2287
    124  O          6.3120   39.9600  -40.5920 O.2   116  LEU116     -0.2864
    125  CB         8.0820   42.5910  -39.8990 C.3   116  LEU116      0.0297
    126  CG         9.0710   43.2610  -38.9180 C.3   116  LEU116      0.0022
    127  CD1        8.7830   44.8090  -38.9220 C.3   116  LEU116      0.0001
    128  CD2        8.9920   42.6650  -37.4630 C.3   116  LEU116      0.0001
    129  N          6.5920   40.8140  -32.8510 N.3   130  LEU130     -0.1245
    130  CA         7.9220   41.3440  -32.5760 C.3   130  LEU130      0.1561
    131  C          8.6970   40.4270  -31.6070 C.2   130  LEU130      0.2260
    132  O          9.9430   40.2940  -31.6930 O.2   130  LEU130     -0.2867
    133  CB         7.8070   42.7410  -32.0150 C.3   130  LEU130      0.0270
    134  CG         7.3180   43.8500  -32.9570 C.3   130  LEU130      0.0019
    135  CD1        7.1040   45.1980  -32.1170 C.3   130  LEU130      0.0001
    136  CD2        8.3120   44.0700  -34.1680 C.3   130  LEU130      0.0001
    137  N          9.7730   37.3780  -33.7920 N.3   133  ILE133     -0.1245
    138  CA        10.8560   37.8440  -34.6490 C.3   133  ILE133      0.1561
    139  C         12.1280   38.1630  -33.8120 C.2   133  ILE133      0.2260
    140  O         13.2880   37.9000  -34.2430 O.2   133  ILE133     -0.2867
    141  CB        10.3950   39.0470  -35.5000 C.3   133  ILE133      0.0252
    142  CG1        9.3920   38.5610  -36.5610 C.3   133  ILE133      0.0019
    143  CG2       11.6040   39.7980  -36.1090 C.3   133  ILE133      0.0019
    144  CD1        9.8830   37.3860  -37.4730 C.3   133  ILE133      0.0001
    145  N         14.1380   35.0680  -33.3390 N.3   136  TYR136     -0.1227
    146  CA        14.7500   34.6530  -34.5970 C.3   136  TYR136      0.1736
    147  C         15.9780   35.5030  -34.8450 C.2   136  TYR136      0.2595
    148  O         17.0370   35.0090  -35.1480 O.2   136  TYR136     -0.2718
    149  CB        13.7770   34.8180  -35.8090 C.3   136  TYR136      0.0548
    150  CG        14.5020   35.1080  -37.1110 C.ar  136  TYR136     -0.0200
    151  CD1       15.1080   34.0970  -37.8430 C.ar  136  TYR136     -0.0009
    152  CD2       14.6070   36.3940  -37.5900 C.ar  136  TYR136     -0.0009
    153  CE1       15.8040   34.3910  -39.0220 C.ar  136  TYR136      0.0417
    154  CE2       15.3050   36.6930  -38.7420 C.ar  136  TYR136      0.0417
    155  CZ        15.8890   35.6980  -39.4620 C.ar  136  TYR136      0.1957
    156  OH        16.5910   36.0370  -40.6090 O.3   136  TYR136     -0.2866
    157  N         15.8020   36.8000  -34.7050 N.am  137  ASN137     -0.1974
    158  CA        16.8690   37.7220  -34.9500 C.3   137  ASN137      0.1688
    159  C         17.9920   37.6200  -33.9090 C.2   137  ASN137      0.2292
    160  O         19.1820   37.7180  -34.2540 O.2   137  ASN137     -0.2864
    161  CB        16.3180   39.1220  -34.9970 C.3   137  ASN137      0.1181
    162  CG        17.2100   40.0310  -35.7290 C.2   137  ASN137      0.2629
    163  OD1       17.5180   39.8010  -36.9080 O.2   137  ASN137     -0.2716
    164  ND2       17.6990   41.0460  -35.0390 N.am  137  ASN137     -0.0877
    165  N         21.9170   36.8720  -34.8430 N.3   141  GLU141     -0.1245
    166  CA        22.9170   37.8340  -34.3660 C.3   141  GLU141      0.1567
    167  C         23.8880   37.2990  -33.3140 C.2   141  GLU141      0.2260
    168  O         25.0990   37.5340  -33.4370 O.2   141  GLU141     -0.2867
    169  CB        22.2610   39.1100  -33.8580 C.3   141  GLU141      0.0388
    170  CG        21.7060   39.9770  -34.9760 C.3   141  GLU141      0.1160
    171  CD        21.1910   41.3220  -34.4730 C.2   141  GLU141      0.3649
    172  OE1       21.4400   41.6500  -33.2910 O.co2 141  GLU141     -0.2457
    173  OE2       20.5430   42.0510  -35.2500 O.co2 141  GLU141     -0.2457
@<TRIPOS>BOND
     1    19    18    2
     2    18    17    1
     3    16    17    1
     4    11    12    2
     5    11    10    1
     6    17    20    1
     7     9    10    1
     8    37    35   ar
     9    10    13    1
    10    35    36   ar
    11    35    34    1
    12    20    21    1
    13    13    14    1
    14    13    15    1
    15    34    33    1
    16     4     3    2
    17   104   102   am
    18    21    23    1
    19    21    22    1
    20   103   102    2
    21     3     2    1
    22   102   101    1
    23    33    30    1
    24    53    52    1
    25     2     1    1
    26     2     5    1
    27    30    29    1
    28    30    31    1
    29   101   100    1
    30    96    97    1
    31     7     5    1
    32    32    31    2
    33    97   100    1
    34    97    98    1
    35    24    25    1
    36     5     6    1
    37    31    38   am
    38    52    51    1
    39    52    54    1
    40    48    47    1
    41    48    51    1
    42    48    49    1
    43    90    91    1
    44    25    28    1
    45    25    26    1
    46    98    99    2
    47    98   105   am
    48    38    39    1
    49     6     8    1
    50    50    49    2
    51    27    26    2
    52    91    92    1
    53    91    94    1
    54    92    93    2
    55   114   115    1
    56   105   106    1
    57    39    40    1
    58    39    42    1
    59   107   106    1
    60   107   108    2
    61    40    41    2
    62    79    78    2
    63   120   118    1
    64    94    95    1
    65   115   118    1
    66   115   116    1
    67   106   109    1
    68    42    43    1
    69    78    77    1
    70   118   119    1
    71   116   121   am
    72   116   117    2
    73   123   124    2
    74   123   122    1
    75   109   110    1
    76   121   122    1
    77   156   155    1
    78    43    44    1
    79   110   111    1
    80   122   125    1
    81    77    80    1
    82    77    76    1
    83   125   126    1
    84    44    45    1
    85    80    81    1
    86   155   153   ar
    87   155   154   ar
    88   111   113   am
    89   111   112    2
    90   153   151   ar
    91   127   126    1
    92   126   128    1
    93   154   152   ar
    94    45    46    1
    95    81    82   ar
    96    81    83   ar
    97    82    84   ar
    98   151   150   ar
    99    83    86   ar
   100    83    85   ar
   101    86    88   ar
   102   152   150   ar
   103   144   142    1
   104   150   149    1
   105   163   162    2
   106    84    85   ar
   107    85    87   ar
   108    88    89   ar
   109   142   141    1
   110   143   141    1
   111   149   146    1
   112    89    87   ar
   113    72    71    2
   114   162   164   am
   115   162   161    1
   116    71    70    1
   117   141   138    1
   118   173   171   ar
   119   148   147    2
   120   161   158    1
   121   170   171    1
   122   170   169    1
   123   158   157    1
   124   158   159    1
   125   147   157   am
   126   147   146    1
   127   165   166    1
   128   138   139    1
   129   138   137    1
   130   146   145    1
   131    73    70    1
   132    73    74    1
   133    68    66   ar
   134    68    67   ar
   135   171   172   ar
   136    70    69    1
   137   166   169    1
   138   166   167    1
   139   160   159    2
   140   140   139    2
   141    66    64   ar
   142   136   134    1
   143    74    75    1
   144    67    65   ar
   145   168   167    2
   146    69    75    1
   147    69    61   am
   148    62    61    2
   149   134   135    1
   150   134   133    1
   151   129   130    1
   152    64    65   ar
   153    64    63    1
   154    61    60    1
   155   130   133    1
   156   130   131    1
   157    63    60    1
   158   132   131    2
   159    60    59    1
   160    59    57   am
   161    58    57    2
   162    57    56    1
   163    55    56    1
