@<TRIPOS>MOLECULE
tmp/2y31A00.pdb
 138 134 0 0 0
SMALL
GASTEIGER

@<TRIPOS>ATOM
      1  N         31.5690  -29.9310    8.1760 N.3   165  ASN165     -0.1240
      2  CA        32.4130  -30.9900    7.6230 C.3   165  ASN165      0.1653
      3  C         32.9870  -31.9120    8.7130 C.2   165  ASN165      0.2266
      4  O         32.9780  -33.1440    8.5520 O.2   165  ASN165     -0.2867
      5  CB        33.5300  -30.3970    6.7580 C.3   165  ASN165      0.1155
      6  CG        34.5120  -31.4500    6.2970 C.2   165  ASN165      0.2627
      7  OD1       35.5490  -31.6640    6.9290 O.2   165  ASN165     -0.2716
      8  ND2       34.1880  -32.1210    5.2150 N.am  165  ASN165     -0.0877
      9  N         32.1540  -35.9500    9.0390 N.3   169  TRP169     -0.1241
     10  CA        33.1140  -37.0440    9.1540 C.3   169  TRP169      0.1605
     11  C         32.7130  -37.9690   10.2820 C.2   169  TRP169      0.2264
     12  O         32.8650  -39.1680   10.1800 O.2   169  TRP169     -0.2867
     13  CB        34.5420  -36.5580    9.4100 C.3   169  TRP169      0.0550
     14  CG        35.2960  -36.2060    8.1680 C.ar  169  TRP169      0.0003
     15  CD1       35.7270  -34.9470    7.7890 C.ar  169  TRP169      0.0946
     16  CD2       35.7320  -37.1070    7.1220 C.ar  169  TRP169      0.0152
     17  NE1       36.3730  -35.0230    6.5870 N.ar  169  TRP169     -0.2442
     18  CE2       36.4010  -36.3300    6.1600 C.ar  169  TRP169      0.0810
     19  CE3       35.6210  -38.4800    6.9190 C.ar  169  TRP169      0.0012
     20  CZ2       36.9570  -36.8860    4.9960 C.ar  169  TRP169      0.0191
     21  CZ3       36.1570  -39.0320    5.7620 C.ar  169  TRP169      0.0001
     22  CH2       36.8160  -38.2350    4.8170 C.ar  169  TRP169      0.0015
     23  N         38.3950  -39.5410    8.8340 N.3   180  MET180     -0.1245
     24  CA        39.0610  -38.7270    7.8550 C.3   180  MET180      0.1570
     25  C         40.4730  -39.2360    7.5660 C.2   180  MET180      0.2261
     26  O         40.8620  -39.3560    6.4080 O.2   180  MET180     -0.2867
     27  CB        39.1000  -37.2570    8.2780 C.3   180  MET180      0.0387
     28  CG        39.8030  -36.3790    7.2950 C.3   180  MET180      0.0595
     29  SD        40.0040  -34.6670    7.8360 S.3   180  MET180     -0.1393
     30  CE        40.4400  -33.9570    6.2470 C.3   180  MET180      0.0692
     31  N         40.3140  -42.3660    5.6760 N.3   183  TRP183     -0.1227
     32  CA        39.8300  -42.1200    4.3210 C.3   183  TRP183      0.1737
     33  C         40.9760  -41.5860    3.4780 C.2   183  TRP183      0.2595
     34  O         41.1160  -41.9710    2.3390 O.2   183  TRP183     -0.2718
     35  CB        38.6630  -41.1430    4.3010 C.3   183  TRP183      0.0564
     36  CG        38.0080  -41.0410    3.0010 C.ar  183  TRP183      0.0003
     37  CD1       36.9160  -41.7420    2.5770 C.ar  183  TRP183      0.0946
     38  CD2       38.3840  -40.1910    1.9090 C.ar  183  TRP183      0.0152
     39  NE1       36.5880  -41.3750    1.2980 N.ar  183  TRP183     -0.2442
     40  CE2       37.4600  -40.4130    0.8700 C.ar  183  TRP183      0.0810
     41  CE3       39.4060  -39.2480    1.7170 C.ar  183  TRP183      0.0012
     42  CZ2       37.5240  -39.7360   -0.3640 C.ar  183  TRP183      0.0191
     43  CZ3       39.4620  -38.5500    0.4950 C.ar  183  TRP183      0.0001
     44  CH2       38.5350  -38.8230   -0.5400 C.ar  183  TRP183      0.0015
     45  N         41.8100  -40.7270    4.0570 N.am  184  MET184     -0.1979
     46  CA        42.9610  -40.2050    3.3490 C.3   184  MET184      0.1605
     47  C         43.9590  -41.3110    3.0030 C.2   184  MET184      0.2287
     48  O         44.5940  -41.2540    1.9790 O.2   184  MET184     -0.2864
     49  CB        43.6750  -39.1280    4.1540 C.3   184  MET184      0.0413
     50  CG        42.8930  -37.8440    4.2740 C.3   184  MET184      0.0598
     51  SD        43.5240  -36.7740    5.5960 S.3   184  MET184     -0.1393
     52  CE        45.2270  -36.4180    5.0670 C.3   184  MET184      0.0692
     53  N         42.3620  -43.5970    0.2000 N.3   187  SER187     -0.1202
     54  CA        42.1890  -42.8650   -1.0670 C.3   187  SER187      0.2020
     55  C         43.5260  -42.5580   -1.7770 C.2   187  SER187      0.2619
     56  O         43.5410  -42.0460   -2.9040 O.2   187  SER187     -0.2717
     57  CB        41.4640  -41.5360   -0.7890 C.3   187  SER187      0.2103
     58  OG        40.1780  -41.8100   -0.2510 O.3   187  SER187     -0.2182
     59  N         44.6390  -42.8410   -1.1010 N.am  188  GLY188     -0.1956
     60  CA        45.9590  -42.5730   -1.6520 C.3   188  GLY188      0.1869
     61  C         46.1340  -43.0450   -3.0960 C.2   188  GLY188      0.2309
     62  O         46.3920  -42.2220   -3.9850 O.2   188  GLY188     -0.2863
     63  N         44.1010  -41.1570   -5.5540 N.3   191  ALA191     -0.1231
     64  CA        44.6360  -39.7840   -5.6530 C.3   191  ALA191      0.1694
     65  C         45.8960  -39.7660   -6.5230 C.2   191  ALA191      0.2591
     66  O         46.1330  -38.8280   -7.3230 O.2   191  ALA191     -0.2718
     67  CB        44.9430  -39.1850   -4.2230 C.3   191  ALA191      0.0304
     68  N         46.7210  -40.7870   -6.3490 N.am  192  GLN192     -0.1979
     69  CA        47.9400  -40.8880   -7.1340 C.3   192  GLN192      0.1601
     70  C         47.5670  -41.1490   -8.5890 C.2   192  GLN192      0.2287
     71  O         48.1830  -40.5670   -9.4660 O.2   192  GLN192     -0.2864
     72  CB        48.9030  -41.9720   -6.6210 C.3   192  GLN192      0.0394
     73  CG        50.2760  -41.9850   -7.3790 C.3   192  GLN192      0.0908
     74  CD        51.0440  -40.6650   -7.1880 C.2   192  GLN192      0.2608
     75  OE1       51.3670  -40.3090   -6.0670 O.2   192  GLN192     -0.2717
     76  NE2       51.2550  -39.9130   -8.2640 N.am  192  GLN192     -0.0878
     77  N         46.6030  -37.7050   -9.9710 N.3   195  VAL195     -0.1245
     78  CA        47.7990  -36.9090  -10.1760 C.3   195  VAL195      0.1561
     79  C         48.5110  -37.4020  -11.4420 C.2   195  VAL195      0.2260
     80  O         48.7940  -36.6100  -12.3170 O.2   195  VAL195     -0.2867
     81  CB        48.7240  -36.9460   -8.9690 C.3   195  VAL195      0.0252
     82  CG1       50.1330  -36.3470   -9.2990 C.3   195  VAL195      0.0019
     83  CG2       48.0430  -36.2500   -7.7650 C.3   195  VAL195      0.0019
     84  N         44.9920  -29.5940   -8.2020 N.3   203  PHE203     -0.1241
     85  CA        44.7850  -30.7020   -7.2730 C.3   203  PHE203      0.1605
     86  C         46.1220  -31.3810   -6.8560 C.2   203  PHE203      0.2264
     87  O         46.3700  -31.5920   -5.6630 O.2   203  PHE203     -0.2867
     88  CB        43.8470  -31.7230   -7.9280 C.3   203  PHE203      0.0534
     89  CG        43.5080  -32.9090   -7.0720 C.ar  203  PHE203     -0.0203
     90  CD1       42.8200  -32.7540   -5.9010 C.ar  203  PHE203     -0.0042
     91  CD2       43.8300  -34.1750   -7.4880 C.ar  203  PHE203     -0.0042
     92  CE1       42.4460  -33.8400   -5.1450 C.ar  203  PHE203     -0.0003
     93  CE2       43.4930  -35.2880   -6.7270 C.ar  203  PHE203     -0.0003
     94  CZ        42.7950  -35.1200   -5.5380 C.ar  203  PHE203     -0.0000
     95  N         47.8990  -29.1590   -4.4850 N.3   206  VAL206     -0.1231
     96  CA        47.2510  -29.1940   -3.2350 C.3   206  VAL206      0.1692
     97  C         47.6350  -30.4510   -2.4620 C.2   206  VAL206      0.2592
     98  O         47.9850  -30.3700   -1.2910 O.2   206  VAL206     -0.2718
     99  CB        45.7000  -29.1090   -3.3860 C.3   206  VAL206      0.0266
    100  CG1       45.0470  -29.4690   -2.0780 C.3   206  VAL206      0.0020
    101  CG2       45.2870  -27.7460   -3.8590 C.3   206  VAL206      0.0020
    102  N         47.5300  -31.6250   -3.0720 N.am  207  LEU207     -0.1966
    103  CA        47.8970  -32.8670   -2.3310 C.3   207  LEU207      0.1728
    104  C         49.3640  -32.8220   -1.8700 C.2   207  LEU207      0.2616
    105  O         49.6630  -33.2540   -0.7790 O.2   207  LEU207     -0.2715
    106  CB        47.6550  -34.1320   -3.1680 C.3   207  LEU207      0.0311
    107  CG        46.1810  -34.4220   -3.5180 C.3   207  LEU207      0.0022
    108  CD1       46.0920  -35.6490   -4.3630 C.3   207  LEU207      0.0001
    109  CD2       45.3090  -34.5560   -2.2980 C.3   207  LEU207      0.0001
    110  N         50.2560  -32.3150   -2.7170 N.am  208  ALA208     -0.1977
    111  CA        51.6790  -32.2350   -2.3870 C.3   208  ALA208      0.1597
    112  C         51.9660  -31.2740   -1.2460 C.2   208  ALA208      0.2287
    113  O         52.8720  -31.5090   -0.4830 O.2   208  ALA208     -0.2864
    114  CB        52.5130  -31.7930   -3.6550 C.3   208  ALA208      0.0319
    115  N         49.6110  -29.0490    0.8110 N.3   210  THR210     -0.1218
    116  CA        48.7210  -28.7130    1.9280 C.3   210  THR210      0.1862
    117  C         49.1990  -29.2850    3.2570 C.2   210  THR210      0.2287
    118  O         49.6570  -30.3860    3.2990 O.2   210  THR210     -0.2866
    119  CB        47.2550  -29.1600    1.6830 C.3   210  THR210      0.1770
    120  OG1       46.4460  -28.6090    2.7080 O.3   210  THR210     -0.2211
    121  CG2       47.0870  -30.6850    1.7130 C.3   210  THR210      0.0375
    122  N         45.2540  -30.6690    6.4810 N.3   213  PRO213     -0.2102
    123  CA        44.6720  -31.9850    6.6490 C.3   213  PRO213      0.1504
    124  C         45.4820  -32.9220    7.5460 C.2   213  PRO213      0.2575
    125  O         44.9380  -33.9130    8.0850 O.2   213  PRO213     -0.2718
    126  CB        44.6990  -32.5440    5.2160 C.3   213  PRO213      0.0282
    127  CG        44.7310  -31.4580    4.3610 C.3   213  PRO213      0.0208
    128  CD        45.3670  -30.3080    5.0580 C.3   213  PRO213      0.0893
    129  N         46.7820  -32.6430    7.6710 N.am  214  HIS214     -0.1976
    130  CA        47.6740  -33.5090    8.4080 C.3   214  HIS214      0.1656
    131  C         47.7050  -33.1230    9.8420 C.2   214  HIS214      0.2291
    132  O         48.1680  -33.8970   10.6500 O.2   214  HIS214     -0.2864
    133  CB        49.0880  -33.4670    7.8390 C.3   214  HIS214      0.0771
    134  CG        49.1820  -34.0060    6.4520 C.ar  214  HIS214      0.0820
    135  ND1       49.1120  -35.3550    6.1730 N.ar  214  HIS214     -0.2267
    136  CD2       49.3240  -33.3770    5.2670 C.ar  214  HIS214      0.1154
    137  CE1       49.1840  -35.5260    4.8650 C.ar  214  HIS214      0.1986
    138  NE2       49.3120  -34.3410    4.2960 N.ar  214  HIS214     -0.2212
@<TRIPOS>BOND
     1    80    79    2
     2    79    78    1
     3    78    77    1
     4    78    81    1
     5    71    70    2
     6    82    81    1
     7    81    83    1
     8    70    69    1
     9    76    74   am
    10    84    85    1
    11    88    85    1
    12    88    89    1
    13    91    89   ar
    14    91    93   ar
    15    73    74    1
    16    73    72    1
    17    66    65    2
    18    85    86    1
    19    74    75    2
    20    69    72    1
    21    69    68    1
    22    89    90   ar
    23    86    87    2
    24    93    94   ar
    25    65    68   am
    26    65    64    1
    27    90    92   ar
    28    64    63    1
    29    64    67    1
    30    94    92   ar
    31    95    96    1
    32   108   107    1
    33    62    61    2
    34   101    99    1
    35   114   111    1
    36   107   106    1
    37   107   109    1
    38    99    96    1
    39    99   100    1
    40    96    97    1
    41   106   103    1
    42    61    60    1
    43   102    97   am
    44   102   103    1
    45    56    55    2
    46   110   111    1
    47   110   104   am
    48    97    98    2
    49   111   112    1
    50   103   104    1
    51   104   105    2
    52    55    59   am
    53    55    54    1
    54    60    59    1
    55   112   113    2
    56    54    57    1
    57    54    53    1
    58    57    58    1
    59    44    42   ar
    60    44    43   ar
    61    42    40   ar
    62    43    41   ar
    63   115   116    1
    64    40    39   ar
    65    40    38   ar
    66    39    37   ar
    67   119   121    1
    68   119   116    1
    69   119   120    1
    70    41    38   ar
    71    38    36   ar
    72   116   117    1
    73    48    47    2
    74    34    33    2
    75    37    36   ar
    76    36    35    1
    77    47    46    1
    78   117   118    2
    79    46    45    1
    80    46    49    1
    81    33    45   am
    82    33    32    1
    83    49    50    1
    84    50    51    1
    85   138   137   ar
    86   138   136   ar
    87    35    32    1
    88    32    31    1
    89   127   128    1
    90   127   126    1
    91    22    20   ar
    92    22    21   ar
    93   137   135   ar
    94    20    18   ar
    95   128   122    1
    96    52    51    1
    97     8     6   am
    98   126   123    1
    99   136   134   ar
   100    21    19   ar
   101    18    17   ar
   102    18    16   ar
   103   135   134   ar
   104    30    29    1
   105     6     5    1
   106     6     7    2
   107    26    25    2
   108   134   133    1
   109   122   123    1
   110    17    15   ar
   111   123   124    1
   112     5     2    1
   113    19    16   ar
   114    16    14   ar
   115    28    29    1
   116    28    27    1
   117   124   129   am
   118   124   125    2
   119    25    24    1
   120     2     1    1
   121     2     3    1
   122   129   130    1
   123    15    14   ar
   124   133   130    1
   125    24    27    1
   126    24    23    1
   127    14    13    1
   128   130   131    1
   129     4     3    2
   130     9    10    1
   131    10    13    1
   132    10    11    1
   133   131   132    2
   134    12    11    2
