@<TRIPOS>MOLECULE
tmp/2y31A03.pdb
 119 115 0 0 0
SMALL
GASTEIGER

@<TRIPOS>ATOM
      1  N         31.1560  -21.8520   19.4560 N.3   102  LYS102     -0.1245
      2  CA        30.3010  -22.4060   18.4030 C.3   102  LYS102      0.1561
      3  C         30.7620  -23.8160   17.9840 C.2   102  LYS102      0.2260
      4  O         29.9810  -24.7290   17.9470 O.2   102  LYS102     -0.2867
      5  CB        30.2820  -21.4810   17.1720 C.3   102  LYS102      0.0271
      6  CG        29.2960  -21.9150   16.0810 C.3   102  LYS102      0.0035
      7  CD        28.9780  -20.7450   15.1460 C.3   102  LYS102      0.0206
      8  CE        27.8860  -21.0830   14.1590 C.3   102  LYS102      0.1093
      9  NZ        27.1020  -19.8530   13.8090 N.3   102  LYS102     -0.1314
     10  N         14.6740  -20.5360    5.6800 N.3   119  GLY119     -0.1210
     11  CA        15.2910  -19.2440    5.4440 C.3   119  GLY119      0.1956
     12  C         15.2760  -18.2970    6.6320 C.2   119  GLY119      0.2612
     13  O         16.2000  -17.5110    6.8090 O.2   119  GLY119     -0.2717
     14  N         14.2340  -18.3560    7.4490 N.am  120  HIS120     -0.1962
     15  CA        14.0640  -17.3070    8.4790 C.3   120  HIS120      0.1772
     16  C         15.0800  -17.4580    9.5930 C.2   120  HIS120      0.2462
     17  O         15.5480  -18.5490    9.8230 O.2   120  HIS120     -0.2730
     18  CB        12.6090  -17.1840    8.9620 C.3   120  HIS120      0.0785
     19  CG        12.1440  -18.2330    9.9230 C.ar  120  HIS120      0.0821
     20  ND1       11.3360  -19.2730    9.5390 N.ar  120  HIS120     -0.2267
     21  CD2       12.2770  -18.3420   11.2720 C.ar  120  HIS120      0.1154
     22  CE1       11.0140  -20.0030   10.6020 C.ar  120  HIS120      0.1986
     23  NE2       11.5890  -19.4690   11.6640 N.ar  120  HIS120     -0.2212
     24  N         15.5350  -16.3470   10.1770 N.am  121  PRO121     -0.2727
     25  CA        16.4950  -16.4410   11.2760 C.3   121  PRO121      0.1402
     26  C         15.7550  -16.7730   12.5720 C.2   121  PRO121      0.2269
     27  O         14.5620  -16.5360   12.6700 O.2   121  PRO121     -0.2865
     28  CB        17.0790  -15.0310   11.3690 C.3   121  PRO121      0.0296
     29  CG        15.9060  -14.1360   10.9080 C.3   121  PRO121      0.0237
     30  CD        15.2020  -14.9550    9.8380 C.3   121  PRO121      0.0939
     31  N         14.9820  -15.7310   15.9610 N.3   123  TRP123     -0.1241
     32  CA        15.0460  -14.5740   16.8580 C.3   123  TRP123      0.1605
     33  C         14.6290  -14.9210   18.2990 C.2   123  TRP123      0.2264
     34  O         13.9220  -14.1990   18.9250 O.2   123  TRP123     -0.2867
     35  CB        14.1830  -13.4540   16.3050 C.3   123  TRP123      0.0550
     36  CG        14.7350  -12.7920   15.1070 C.ar  123  TRP123      0.0003
     37  CD1       15.9590  -12.9740   14.5180 C.ar  123  TRP123      0.0946
     38  CD2       14.0840  -11.7680   14.3670 C.ar  123  TRP123      0.0152
     39  NE1       16.0860  -12.1220   13.4390 N.ar  123  TRP123     -0.2442
     40  CE2       14.9340  -11.3930   13.3210 C.ar  123  TRP123      0.0810
     41  CE3       12.8380  -11.1490   14.4820 C.ar  123  TRP123      0.0012
     42  CZ2       14.6040  -10.4210   12.4230 C.ar  123  TRP123      0.0191
     43  CZ3       12.5040  -10.1840   13.5770 C.ar  123  TRP123      0.0001
     44  CH2       13.3860   -9.8380   12.5450 C.ar  123  TRP123      0.0015
     45  N         19.6960  -16.6920   20.7710 N.3   127  SER127     -0.1217
     46  CA        20.3170  -16.3770   19.4690 C.3   127  SER127      0.1889
     47  C         20.5980  -14.9000   19.3680 C.2   127  SER127      0.2288
     48  O         21.6370  -14.4980   18.9070 O.2   127  SER127     -0.2866
     49  CB        19.4370  -16.7820   18.2690 C.3   127  SER127      0.2089
     50  OG        19.2660  -18.1750   18.2400 O.3   127  SER127     -0.2183
     51  N         23.7940  -13.9800   21.5070 N.3   130  GLN130     -0.1231
     52  CA        25.0130  -14.3390   20.7840 C.3   130  GLN130      0.1698
     53  C         25.2650  -13.4670   19.5640 C.2   130  GLN130      0.2592
     54  O         26.3960  -13.1240   19.2800 O.2   130  GLN130     -0.2718
     55  CB        24.9540  -15.8000   20.3580 C.3   130  GLN130      0.0381
     56  CG        25.9990  -16.2310   19.3260 C.3   130  GLN130      0.0905
     57  CD        26.0410  -17.7140   19.2620 C.2   130  GLN130      0.2608
     58  OE1       26.3460  -18.3700   20.2700 O.2   130  GLN130     -0.2717
     59  NE2       25.6660  -18.2810   18.1080 N.am  130  GLN130     -0.0878
     60  N         24.2140  -13.1170   18.8420 N.am  131  GLN131     -0.1979
     61  CA        24.3390  -12.2110   17.6780 C.3   131  GLN131      0.1601
     62  C         24.8010  -10.8100   18.1090 C.2   131  GLN131      0.2287
     63  O         25.6020  -10.1880   17.4210 O.2   131  GLN131     -0.2864
     64  CB        23.0130  -12.1850   16.9130 C.3   131  GLN131      0.0394
     65  CG        22.8220  -11.1180   15.8740 C.3   131  GLN131      0.0908
     66  CD        21.4560  -11.2460   15.1730 C.2   131  GLN131      0.2608
     67  OE1       21.3010  -12.0130   14.2210 O.2   131  GLN131     -0.2717
     68  NE2       20.4590  -10.4950   15.6620 N.am  131  GLN131     -0.0878
     69  N         28.6170  -11.2320   18.6590 N.3   134  VAL134     -0.1231
     70  CA        29.3750  -11.4120   17.4490 C.3   134  VAL134      0.1692
     71  C         29.3920  -10.1420   16.6030 C.2   134  VAL134      0.2591
     72  O         30.4530   -9.7070   16.1470 O.2   134  VAL134     -0.2718
     73  CB        28.8440  -12.6200   16.6310 C.3   134  VAL134      0.0266
     74  CG1       29.5220  -12.6690   15.2060 C.3   134  VAL134      0.0020
     75  CG2       29.0450  -13.9390   17.4540 C.3   134  VAL134      0.0020
     76  N         28.2200   -9.5610   16.3950 N.am  135  LEU135     -0.1980
     77  CA        28.1090   -8.3160   15.6220 C.3   135  LEU135      0.1596
     78  C         28.8490   -7.1810   16.3210 C.2   135  LEU135      0.2287
     79  O         29.5270   -6.3980   15.6850 O.2   135  LEU135     -0.2864
     80  CB        26.6560   -7.9350   15.4390 C.3   135  LEU135      0.0297
     81  CG        25.7700   -8.8010   14.5530 C.3   135  LEU135      0.0022
     82  CD1       24.3340   -8.2380   14.6130 C.3   135  LEU135      0.0001
     83  CD2       26.3160   -8.8470   13.1530 C.3   135  LEU135      0.0001
     84  N         28.2570   -6.9590    8.2240 N.3   149  LEU149     -0.1245
     85  CA        27.6250   -8.2530    8.0080 C.3   149  LEU149      0.1561
     86  C         28.3730   -9.0870    6.9410 C.2   149  LEU149      0.2260
     87  O         28.3460  -10.3110    6.9790 O.2   149  LEU149     -0.2867
     88  CB        26.1450   -8.1280    7.5900 C.3   149  LEU149      0.0270
     89  CG        25.1850   -7.5440    8.6390 C.3   149  LEU149      0.0019
     90  CD1       23.7840   -7.4890    8.0750 C.3   149  LEU149      0.0001
     91  CD2       25.2010   -8.3690    9.9660 C.3   149  LEU149      0.0001
     92  N         31.3480  -10.3820    9.0920 N.3   152  ILE152     -0.1245
     93  CA        30.8370  -11.4740    9.9570 C.3   152  ILE152      0.1561
     94  C         30.4340  -12.7310    9.1310 C.2   152  ILE152      0.2260
     95  O         30.6110  -13.8770    9.5830 O.2   152  ILE152     -0.2867
     96  CB        29.6960  -10.9780   10.8730 C.3   152  ILE152      0.0252
     97  CG1       30.2420   -9.8920   11.8060 C.3   152  ILE152      0.0019
     98  CG2       29.0510  -12.1230   11.7220 C.3   152  ILE152      0.0019
     99  CD1       31.4430  -10.3100   12.6710 C.3   152  ILE152      0.0001
    100  N         33.4630  -14.7860    8.8550 N.3   155  TYR155     -0.1227
    101  CA        33.6860  -15.4840   10.1010 C.3   155  TYR155      0.1736
    102  C         32.7700  -16.7240   10.1880 C.2   155  TYR155      0.2595
    103  O         33.2350  -17.8380   10.4300 O.2   155  TYR155     -0.2718
    104  CB        33.4700  -14.5370   11.2770 C.3   155  TYR155      0.0548
    105  CG        33.1870  -15.2310   12.5570 C.ar  155  TYR155     -0.0200
    106  CD1       34.2070  -15.8090   13.3160 C.ar  155  TYR155     -0.0009
    107  CD2       31.9010  -15.3130   13.0250 C.ar  155  TYR155     -0.0009
    108  CE1       33.9140  -16.4860   14.5110 C.ar  155  TYR155      0.0417
    109  CE2       31.5950  -15.9780   14.1890 C.ar  155  TYR155      0.0417
    110  CZ        32.6040  -16.5640   14.9360 C.ar  155  TYR155      0.1957
    111  OH        32.2400  -17.2680   16.0740 O.3   155  TYR155     -0.2866
    112  N         31.4730  -16.5160    9.9680 N.am  156  ASN156     -0.1974
    113  CA        30.5290  -17.6070   10.0820 C.3   156  ASN156      0.1688
    114  C         30.7240  -18.6280    9.0000 C.2   156  ASN156      0.2292
    115  O         30.5500  -19.8060    9.2440 O.2   156  ASN156     -0.2864
    116  CB        29.0860  -17.1260   10.0220 C.3   156  ASN156      0.1181
    117  CG        28.5430  -16.7980   11.3810 C.2   156  ASN156      0.2629
    118  OD1       28.0160  -15.6800   11.6130 O.2   156  ASN156     -0.2716
    119  ND2       28.6270  -17.7690   12.3000 N.am  156  ASN156     -0.0877
@<TRIPOS>BOND
     1    11    10    1
     2    11    12    1
     3    12    13    2
     4    12    14   am
     5    86    87    2
     6    86    85    1
     7    14    15    1
     8    88    85    1
     9    88    89    1
    10    85    84    1
    11    90    89    1
    12    15    18    1
    13    15    16    1
    14    89    91    1
    15   100   101    1
    16    18    19    1
    17   114   115    2
    18   114   113    1
    19    92    93    1
    20    94    95    2
    21    94    93    1
    22    20    19   ar
    23    20    22   ar
    24    16    17    2
    25    16    24   am
    26    30    24    1
    27    30    29    1
    28    19    21   ar
    29    93    96    1
    30   112   113    1
    31   112   102   am
    32   116   113    1
    33   116   117    1
    34   101   102    1
    35   101   104    1
    36    24    25    1
    37   102   103    2
    38    22    23   ar
    39    96    98    1
    40    96    97    1
    41    29    28    1
    42    21    23   ar
    43    25    28    1
    44    25    26    1
    45   104   105    1
    46   117   118    2
    47   117   119   am
    48    97    99    1
    49    42    44   ar
    50    42    40   ar
    51    44    43   ar
    52   105   107   ar
    53   105   106   ar
    54    26    27    2
    55   107   109   ar
    56    83    81    1
    57   106   108   ar
    58    40    39   ar
    59    40    38   ar
    60    39    37   ar
    61    43    41   ar
    62     9     8    1
    63     8     7    1
    64   109   110   ar
    65    67    66    2
    66    38    41   ar
    67    38    36   ar
    68   108   110   ar
    69    37    36   ar
    70    81    82    1
    71    81    80    1
    72   110   111    1
    73    36    35    1
    74     7     6    1
    75    66    68   am
    76    66    65    1
    77    74    73    1
    78    80    77    1
    79    77    78    1
    80    77    76    1
    81    79    78    2
    82    65    64    1
    83    31    32    1
    84     6     5    1
    85    72    71    2
    86    35    32    1
    87    76    71   am
    88    71    70    1
    89    73    70    1
    90    73    75    1
    91    32    33    1
    92    64    61    1
    93     5     2    1
    94    63    62    2
    95    70    69    1
    96    61    62    1
    97    61    60    1
    98     4     3    2
    99     3     2    1
   100    59    57   am
   101    50    49    1
   102    49    46    1
   103    33    34    2
   104     2     1    1
   105    60    53   am
   106    48    47    2
   107    57    56    1
   108    57    58    2
   109    54    53    2
   110    56    55    1
   111    47    46    1
   112    46    45    1
   113    53    52    1
   114    55    52    1
   115    52    51    1
