@<TRIPOS>MOLECULE
tmp/2y36A00.pdb
 125 123 0 0 0
SMALL
GASTEIGER

@<TRIPOS>ATOM
      1  N         -1.9790   -8.3170  -42.2910 N.3    33  TRP33      -0.1241
      2  CA        -1.7630   -7.0410  -41.6470 C.3    33  TRP33       0.1605
      3  C         -2.7930   -6.9180  -40.5250 C.2    33  TRP33       0.2264
      4  O         -3.8590   -7.5340  -40.5810 O.2    33  TRP33      -0.2867
      5  CB        -1.9530   -5.9260  -42.6710 C.3    33  TRP33       0.0550
      6  CG        -0.7540   -5.6850  -43.5410 C.ar   33  TRP33       0.0003
      7  CD1        0.3640   -6.4720  -43.6610 C.ar   33  TRP33       0.0946
      8  CD2       -0.5470   -4.5670  -44.4020 C.ar   33  TRP33       0.0152
      9  NE1        1.2500   -5.9030  -44.5460 N.ar   33  TRP33      -0.2442
     10  CE2        0.7120   -4.7340  -45.0150 C.ar   33  TRP33       0.0810
     11  CE3       -1.3090   -3.4360  -44.7190 C.ar   33  TRP33       0.0012
     12  CZ2        1.2250   -3.8170  -45.9180 C.ar   33  TRP33       0.0191
     13  CZ3       -0.7970   -2.5250  -45.6200 C.ar   33  TRP33       0.0001
     14  CH2        0.4600   -2.7210  -46.2100 C.ar   33  TRP33       0.0015
     15  N         -4.9620   -4.1230  -37.9990 N.3    35  HIS35      -0.1241
     16  CA        -5.3270   -2.7290  -37.8450 C.3    35  HIS35       0.1621
     17  C         -5.9880   -2.4640  -36.5070 C.2    35  HIS35       0.2264
     18  O         -6.4730   -3.3830  -35.8560 O.2    35  HIS35      -0.2867
     19  CB        -6.2780   -2.3160  -38.9530 C.3    35  HIS35       0.0745
     20  CG        -5.6220   -2.1890  -40.2860 C.ar   35  HIS35       0.0817
     21  ND1       -5.5070   -0.9870  -40.9420 N.ar   35  HIS35      -0.2268
     22  CD2       -5.0490   -3.1190  -41.0860 C.ar   35  HIS35       0.1154
     23  CE1       -4.8900   -1.1800  -42.0970 C.ar   35  HIS35       0.1986
     24  NE2       -4.6020   -2.4620  -42.2080 N.ar   35  HIS35      -0.2212
     25  N         -9.5730    5.3940  -37.8880 N.3    47  TRP47      -0.1241
     26  CA        -8.4890    4.4500  -38.1290 C.3    47  TRP47       0.1605
     27  C         -7.2690    4.9350  -37.3200 C.2    47  TRP47       0.2264
     28  O         -6.8570    6.0930  -37.4430 O.2    47  TRP47      -0.2867
     29  CB        -8.1730    4.4210  -39.6300 C.3    47  TRP47       0.0550
     30  CG        -7.0600    3.5220  -40.0140 C.ar   47  TRP47       0.0003
     31  CD1       -7.0720    2.1600  -40.0230 C.ar   47  TRP47       0.0946
     32  CD2       -5.7580    3.9170  -40.4660 C.ar   47  TRP47       0.0152
     33  NE1       -5.8540    1.6760  -40.4560 N.ar   47  TRP47      -0.2442
     34  CE2       -5.0300    2.7340  -40.7320 C.ar   47  TRP47       0.0810
     35  CE3       -5.1330    5.1560  -40.6700 C.ar   47  TRP47       0.0012
     36  CZ2       -3.7100    2.7530  -41.1950 C.ar   47  TRP47       0.0191
     37  CZ3       -3.8070    5.1720  -41.1330 C.ar   47  TRP47       0.0001
     38  CH2       -3.1160    3.9770  -41.3870 C.ar   47  TRP47       0.0015
     39  N         -1.8320    0.6330  -38.6230 N.3    50  ARG50      -0.1245
     40  CA        -1.6630   -0.7850  -38.9040 C.3    50  ARG50       0.1563
     41  C         -0.2210   -1.2590  -38.7500 C.2    50  ARG50       0.2260
     42  O          0.7180   -0.5300  -39.0350 O.2    50  ARG50      -0.2867
     43  CB        -2.1450   -1.1030  -40.3240 C.3    50  ARG50       0.0307
     44  CG        -1.2100   -2.0370  -41.1150 C.3    50  ARG50       0.0489
     45  CD        -0.3260   -1.2280  -42.0450 C.3    50  ARG50       0.2205
     46  NE         1.0440   -1.7210  -42.1300 N.pl3  50  ARG50      -0.0865
     47  CZ         1.9820   -1.1420  -42.8710 C.cat  50  ARG50       0.5346
     48  NH1        1.6770   -0.0620  -43.5830 N.pl3  50  ARG50       0.1354
     49  NH2        3.2190   -1.6280  -42.8850 N.pl3  50  ARG50       0.1354
     50  N          2.5340   -4.4890  -39.5990 N.3    52  ASP52      -0.1239
     51  CA         2.7570   -5.6540  -40.4370 C.3    52  ASP52       0.1674
     52  C          3.5080   -6.6790  -39.6070 C.2    52  ASP52       0.2266
     53  O          4.7320   -6.6110  -39.4760 O.2    52  ASP52      -0.2867
     54  CB         3.5750   -5.2770  -41.6750 C.3    52  ASP52       0.1410
     55  CG         4.1370   -6.4830  -42.3740 C.2    52  ASP52       0.3668
     56  OD1        3.3570   -7.4210  -42.6640 O.co2  52  ASP52      -0.2456
     57  OD2        5.3590   -6.4830  -42.6280 O.co2  52  ASP52      -0.2456
     58  N          7.0600   -7.8200  -40.7550 N.3    55  SER55      -0.1202
     59  CA         8.1590   -6.8500  -40.6910 C.3    55  SER55       0.2020
     60  C          8.1940   -6.0550  -39.3890 C.2    55  SER55       0.2619
     61  O          9.2580   -5.6530  -38.9240 O.2    55  SER55      -0.2717
     62  CB         8.0530   -5.8380  -41.8320 C.3    55  SER55       0.2103
     63  OG         7.9350   -6.4950  -43.0670 O.3    55  SER55      -0.2182
     64  N          7.0270   -5.8420  -38.7980 N.am   56  GLY56      -0.1942
     65  CA         6.9660   -5.0290  -37.6040 C.3    56  GLY56       0.2014
     66  C          6.6960   -3.6740  -38.2350 C.2    56  GLY56       0.2639
     67  O          6.5160   -2.6460  -37.5520 O.2    56  GLY56      -0.2714
     68  N          6.6790   -3.7170  -39.5740 N.am   57  GLY57      -0.1939
     69  CA         6.4080   -2.5640  -40.4140 C.3    57  GLY57       0.2014
     70  C          5.1250   -1.9490  -39.9260 C.2    57  GLY57       0.2640
     71  O          4.0500   -2.5560  -39.8880 O.2    57  GLY57      -0.2714
     72  N          5.2370   -0.6820  -39.6120 N.am   58  THR58      -0.1936
     73  CA         4.1790    0.0810  -38.9850 C.3    58  THR58       0.2028
     74  C          3.7180    1.3040  -39.7490 C.2    58  THR58       0.2642
     75  O          4.5550    2.0170  -40.2930 O.2    58  THR58      -0.2714
     76  CB         4.7010    0.5470  -37.7240 C.3    58  THR58       0.1808
     77  OG1        4.1910   -0.1960  -36.6320 O.3    58  THR58      -0.2208
     78  CG2        4.4420    2.0430  -37.6200 C.3    58  THR58       0.0379
     79  N          2.4520    1.6760  -39.6020 N.am   59  ALA59      -0.1963
     80  CA         1.9510    2.8300  -40.3140 C.3    59  ALA59       0.1728
     81  C          0.8440    3.5130  -39.4830 C.2    59  ALA59       0.2616
     82  O         -0.1740    2.8740  -39.2280 O.2    59  ALA59      -0.2715
     83  CB         1.4340    2.4150  -41.6440 C.3    59  ALA59       0.0334
     84  N          0.9970    4.7860  -39.1000 N.am   60  TYR60      -0.1974
     85  CA        -0.0020    5.4640  -38.2700 C.3    60  TYR60       0.1639
     86  C         -0.8470    6.5460  -38.9070 C.2    60  TYR60       0.2290
     87  O         -0.5300    7.0800  -39.9690 O.2    60  TYR60      -0.2864
     88  CB         0.6690    6.1080  -37.0730 C.3    60  TYR60       0.0560
     89  CG         1.3540    5.1480  -36.1460 C.ar   60  TYR60      -0.0198
     90  CD1        0.6530    4.5340  -35.1130 C.ar   60  TYR60      -0.0009
     91  CD2        2.7000    4.8410  -36.3050 C.ar   60  TYR60      -0.0009
     92  CE1        1.2750    3.6340  -34.2600 C.ar   60  TYR60       0.0417
     93  CE2        3.3300    3.9480  -35.4620 C.ar   60  TYR60       0.0417
     94  CZ         2.6130    3.3460  -34.4400 C.ar   60  TYR60       0.1957
     95  OH         3.2280    2.4630  -33.5890 O.3    60  TYR60      -0.2866
     96  N         -1.6900   10.1140  -38.5930 N.3    62  GLU62      -0.1245
     97  CA        -1.0050   11.2570  -37.9800 C.3    62  GLU62       0.1567
     98  C         -1.6180   11.7040  -36.6620 C.2    62  GLU62       0.2260
     99  O         -0.8940   12.0200  -35.7120 O.2    62  GLU62      -0.2867
    100  CB        -0.9600   12.4470  -38.9490 C.3    62  GLU62       0.0388
    101  CG         0.3610   13.2170  -38.9150 C.3    62  GLU62       0.1160
    102  CD         1.0060   13.3070  -40.2930 C.2    62  GLU62       0.3649
    103  OE1        1.1570   12.2450  -40.9520 O.co2  62  GLU62      -0.2457
    104  OE2        1.3610   14.4370  -40.7160 O.co2  62  GLU62      -0.2457
    105  N         -0.1770    9.2490  -34.0160 N.3    65  LYS65      -0.1245
    106  CA         1.2190    8.8390  -33.8820 C.3    65  LYS65       0.1561
    107  C          1.9450    9.1690  -32.5970 C.2    65  LYS65       0.2260
    108  O          2.8440    8.4210  -32.2120 O.2    65  LYS65      -0.2867
    109  CB         2.0620    9.3020  -35.0750 C.3    65  LYS65       0.0271
    110  CG         1.8390   10.7010  -35.5500 C.3    65  LYS65       0.0035
    111  CD         2.3450   10.7930  -36.9760 C.3    65  LYS65       0.0206
    112  CE         1.7850    9.6450  -37.8260 C.3    65  LYS65       0.1093
    113  NZ         1.9220    9.8930  -39.2840 N.3    65  LYS65      -0.1314
    114  N         -6.3310   -7.6180  -41.6360 N.3    99  TYR99      -0.1241
    115  CA        -6.3900   -7.0760  -42.9850 C.3    99  TYR99       0.1605
    116  C         -5.7790   -7.9660  -44.0390 C.2    99  TYR99       0.2264
    117  O         -4.7140   -8.5490  -43.8470 O.2    99  TYR99      -0.2867
    118  CB        -5.7020   -5.7190  -42.9970 C.3    99  TYR99       0.0534
    119  CG        -5.7390   -5.0070  -44.3210 C.ar   99  TYR99      -0.0201
    120  CD1       -6.8210   -4.1910  -44.6590 C.ar   99  TYR99      -0.0009
    121  CD2       -4.6850   -5.1250  -45.2310 C.ar   99  TYR99      -0.0009
    122  CE1       -6.8550   -3.5030  -45.8780 C.ar   99  TYR99       0.0417
    123  CE2       -4.7030   -4.4420  -46.4490 C.ar   99  TYR99       0.0417
    124  CZ        -5.7950   -3.6310  -46.7660 C.ar   99  TYR99       0.1957
    125  OH        -5.8320   -2.9430  -47.9590 O.3    99  TYR99      -0.2866
@<TRIPOS>BOND
     1   125   124    1
     2   124   123   ar
     3   124   122   ar
     4   123   121   ar
     5    14    12   ar
     6    14    13   ar
     7    12    10   ar
     8   122   120   ar
     9    13    11   ar
    10   121   119   ar
    11    10     9   ar
    12    10     8   ar
    13    11     8   ar
    14   120   119   ar
    15     9     7   ar
    16     8     6   ar
    17   119   118    1
    18   116   117    2
    19   116   115    1
    20     7     6   ar
    21    48    47    1
    22     6     5    1
    23    63    62    1
    24   118   115    1
    25   115   114    1
    26    49    47    1
    27    47    46    2
    28     5     2    1
    29    56    55   ar
    30    57    55   ar
    31    55    54    1
    32     1     2    1
    33    24    23   ar
    34    24    22   ar
    35    46    45    1
    36    23    21   ar
    37    45    44    1
    38    62    59    1
    39    54    51    1
    40     2     3    1
    41    83    80    1
    42    38    36   ar
    43    38    37   ar
    44    36    34   ar
    45    37    35   ar
    46    44    43    1
    47    22    20   ar
    48   103   102   ar
    49    21    20   ar
    50    58    59    1
    51    34    32   ar
    52    34    33   ar
    53   104   102   ar
    54    59    60    1
    55    35    32   ar
    56     4     3    2
    57    32    30   ar
    58    33    31   ar
    59    51    52    1
    60    51    50    1
    61    69    70    1
    62    69    68    1
    63    43    40    1
    64    80    79    1
    65    80    81    1
    66    75    74    2
    67   102   101    1
    68    20    19    1
    69    31    30   ar
    70    30    29    1
    71    87    86    2
    72    70    71    2
    73    70    72   am
    74    74    79   am
    75    74    73    1
    76    29    26    1
    77    72    73    1
    78    52    53    2
    79    68    66   am
    80    81    82    2
    81    81    84   am
    82    60    61    2
    83    60    64   am
    84   113   112    1
    85    84    85    1
    86    42    41    2
    87    73    76    1
    88    19    16    1
    89   100   101    1
    90   100    97    1
    91    86    85    1
    92    40    41    1
    93    40    39    1
    94    64    65    1
    95    96    97    1
    96    85    88    1
    97    66    65    1
    98    66    67    2
    99    26    25    1
   100    26    27    1
   101    15    16    1
   102    97    98    1
   103    16    17    1
   104   112   111    1
   105    76    78    1
   106    76    77    1
   107    28    27    2
   108    88    89    1
   109   111   110    1
   110    98    99    2
   111    17    18    2
   112    91    89   ar
   113    91    93   ar
   114    89    90   ar
   115   110   109    1
   116    93    94   ar
   117    90    92   ar
   118   109   106    1
   119    94    92   ar
   120    94    95    1
   121   105   106    1
   122   106   107    1
   123   107   108    2
