@<TRIPOS>MOLECULE
tmp/2y37B00.pdb
 172 170 0 0 0
SMALL
GASTEIGER

@<TRIPOS>ATOM
      1  N         13.0300  -75.8630  -30.7040 N.3   110  CYS110     -0.1235
      2  CA        13.9020  -74.7370  -31.0670 C.3   110  CYS110      0.1677
      3  C         13.4680  -73.9980  -32.3230 C.2   110  CYS110      0.2270
      4  O         13.3680  -74.6130  -33.3880 O.2   110  CYS110     -0.2867
      5  CB        15.3490  -75.1910  -31.1660 C.3   110  CYS110      0.0956
      6  SG        16.4950  -73.8720  -31.6410 S.3   110  CYS110     -0.0801
      7  N         20.3910  -72.9690  -16.3160 N.3   173  GLN173     -0.1196
      8  CA        21.0390  -72.1140  -17.3200 C.3   173  GLN173      0.1782
      9  C         22.4210  -71.6940  -16.8380 C.2   173  GLN173      0.2306
     10  O         22.6300  -71.5900  -15.6360 O.2   173  GLN173     -0.2863
     11  CB        20.1850  -70.8350  -17.5980 C.2   173  GLN173      0.0051
     12  CG        18.6640  -71.0600  -17.6520 C.2   173  GLN173      0.0584
     13  CD        17.7870  -69.8480  -17.7870 C.2   173  GLN173      0.2840
     14  OE1       16.5720  -69.9720  -17.9260 O.2   173  GLN173     -0.2667
     15  NE2       18.3420  -68.6590  -17.7110 N.am  173  GLN173     -0.0837
     16  N         23.7130  -68.6600  -17.1380 N.3   175  ILE175     -0.1231
     17  CA        23.4430  -67.3730  -16.4840 C.3   175  ILE175      0.1692
     18  C         21.9590  -67.2730  -16.1530 C.2   175  ILE175      0.2591
     19  O         21.1160  -67.5180  -17.0200 O.2   175  ILE175     -0.2718
     20  CB        24.0010  -66.1930  -17.3080 C.3   175  ILE175      0.0266
     21  CG1       25.5600  -66.2950  -17.3760 C.3   175  ILE175      0.0019
     22  CG2       23.5810  -64.8740  -16.6780 C.3   175  ILE175      0.0020
     23  CD1       26.1760  -65.7140  -18.5090 C.3   175  ILE175      0.0001
     24  N         21.6440  -67.0030  -14.8750 N.am  176  ARG176     -0.1980
     25  CA        20.2800  -66.8880  -14.3770 C.3   176  ARG176      0.1597
     26  C         20.3100  -66.1600  -13.0360 C.2   176  ARG176      0.2287
     27  O         21.2920  -66.2670  -12.3110 O.2   176  ARG176     -0.2864
     28  CB        19.6200  -68.2750  -14.2240 C.3   176  ARG176      0.0334
     29  CG        18.0990  -68.1980  -14.1310 C.3   176  ARG176      0.0492
     30  CD        17.4070  -69.5190  -14.4070 C.3   176  ARG176      0.2205
     31  NE        15.9540  -69.3280  -14.4860 N.pl3 176  ARG176     -0.0865
     32  CZ        15.0730  -70.2780  -14.7590 C.cat 176  ARG176      0.5346
     33  NH1       15.4770  -71.5210  -14.9970 N.pl3 176  ARG176      0.1354
     34  NH2       13.7830  -69.9890  -14.8310 N.pl3 176  ARG176      0.1354
     35  N         20.4000  -60.4390  -18.8030 N.3   257  TYR257     -0.1241
     36  CA        21.6560  -60.9700  -19.3360 C.3   257  TYR257      0.1605
     37  C         21.4670  -61.2500  -20.8160 C.2   257  TYR257      0.2264
     38  O         20.3940  -61.6740  -21.2490 O.2   257  TYR257     -0.2867
     39  CB        22.1170  -62.2320  -18.5960 C.3   257  TYR257      0.0534
     40  CG        21.0070  -63.2140  -18.2550 C.ar  257  TYR257     -0.0201
     41  CD1       20.2910  -63.1050  -17.0600 C.ar  257  TYR257     -0.0009
     42  CD2       20.7010  -64.2770  -19.1080 C.ar  257  TYR257     -0.0009
     43  CE1       19.2760  -64.0100  -16.7390 C.ar  257  TYR257      0.0417
     44  CE2       19.6810  -65.1840  -18.8010 C.ar  257  TYR257      0.0417
     45  CZ        18.9740  -65.0510  -17.6130 C.ar  257  TYR257      0.1957
     46  OH        17.9590  -65.9430  -17.3190 O.3   257  TYR257     -0.2866
     47  N         23.1380  -63.4910  -22.5810 N.3   259  LEU259     -0.1231
     48  CA        23.4410  -64.8830  -22.9340 C.3   259  LEU259      0.1678
     49  C         22.4120  -65.9490  -22.5600 C.2   259  LEU259      0.2434
     50  O         22.3270  -66.2980  -21.3770 O.2   259  LEU259     -0.2733
     51  CB        24.8860  -65.2900  -22.5210 C.3   259  LEU259      0.0284
     52  CG        25.4770  -66.5690  -23.1560 C.3   259  LEU259      0.0019
     53  CD1       25.8340  -66.3660  -24.6250 C.3   259  LEU259      0.0001
     54  CD2       26.6960  -67.0330  -22.3870 C.3   259  LEU259      0.0001
     55  N         21.6530  -66.4910  -23.5800 N.am  260  PRO260     -0.2718
     56  CA        20.7030  -67.5710  -23.2980 C.3   260  PRO260      0.1535
     57  C         21.4700  -68.8890  -23.4410 C.2   260  PRO260      0.2598
     58  O         21.8080  -69.3010  -24.5590 O.2   260  PRO260     -0.2715
     59  CB        19.6210  -67.3730  -24.3710 C.3   260  PRO260      0.0310
     60  CG        20.3120  -66.6990  -25.4830 C.3   260  PRO260      0.0237
     61  CD        21.6410  -66.1650  -25.0260 C.3   260  PRO260      0.0939
     62  N         21.8520  -69.4840  -22.3100 N.am  261  ALA261     -0.1964
     63  CA        22.6160  -70.7210  -22.3480 C.3   261  ALA261      0.1728
     64  C         21.9670  -71.8330  -21.5150 C.2   261  ALA261      0.2616
     65  O         21.8140  -71.6610  -20.3220 O.2   261  ALA261     -0.2715
     66  CB        24.0260  -70.4620  -21.9150 C.3   261  ALA261      0.0334
     67  N         21.5510  -72.9540  -22.1600 N.am  262  VAL262     -0.1977
     68  CA        20.9450  -74.1040  -21.4700 C.3   262  VAL262      0.1596
     69  C         22.0800  -74.9160  -20.8070 C.2   262  VAL262      0.2287
     70  O         23.0210  -75.2960  -21.5070 O.2   262  VAL262     -0.2864
     71  CB        20.0580  -74.9750  -22.4280 C.3   262  VAL262      0.0276
     72  CG1       19.6130  -76.2830  -21.7590 C.3   262  VAL262      0.0022
     73  CG2       18.8460  -74.1890  -22.9500 C.3   262  VAL262      0.0022
     74  N         24.9400  -75.3930  -23.7830 N.3   279  PHE279     -0.1227
     75  CA        24.8760  -74.7720  -25.1050 C.3   279  PHE279      0.1736
     76  C         24.1250  -73.4740  -25.0840 C.2   279  PHE279      0.2595
     77  O         23.3100  -73.2440  -24.1800 O.2   279  PHE279     -0.2718
     78  CB        24.2520  -75.7120  -26.1530 C.3   279  PHE279      0.0547
     79  CG        22.8640  -76.2340  -25.8540 C.ar  279  PHE279     -0.0202
     80  CD1       21.7460  -75.4410  -26.0740 C.ar  279  PHE279     -0.0042
     81  CD2       22.6760  -77.5460  -25.4320 C.ar  279  PHE279     -0.0042
     82  CE1       20.4700  -75.9210  -25.7940 C.ar  279  PHE279     -0.0003
     83  CE2       21.3900  -78.0370  -25.1910 C.ar  279  PHE279     -0.0003
     84  CZ        20.3040  -77.2170  -25.3640 C.ar  279  PHE279     -0.0000
     85  N         24.3640  -72.6450  -26.1020 N.am  280  ASN280     -0.1960
     86  CA        23.6910  -71.3610  -26.2020 C.3   280  ASN280      0.1819
     87  C         23.4420  -70.9280  -27.6340 C.2   280  ASN280      0.2622
     88  O         24.1660  -71.3210  -28.5400 O.2   280  ASN280     -0.2715
     89  CB        24.5360  -70.2740  -25.5160 C.3   280  ASN280      0.1195
     90  CG        25.6870  -69.8140  -26.3500 C.2   280  ASN280      0.2630
     91  OD1       26.7090  -70.4820  -26.4540 O.2   280  ASN280     -0.2716
     92  ND2       25.5060  -68.7300  -27.0560 N.am  280  ASN280     -0.0877
     93  N         22.4950  -70.0170  -27.7830 N.am  281  GLY281     -0.1940
     94  CA        22.2350  -69.2940  -29.0160 C.3   281  GLY281      0.2014
     95  C         22.2470  -67.8240  -28.6500 C.2   281  GLY281      0.2639
     96  O         23.0710  -67.3960  -27.8430 O.2   281  GLY281     -0.2714
     97  N         21.3120  -67.0510  -29.2100 N.am  282  TRP282     -0.1959
     98  CA        21.0680  -65.6470  -28.8890 C.3   282  TRP282      0.1771
     99  C         19.6110  -65.5180  -28.5980 C.2   282  TRP282      0.2620
    100  O         18.8560  -66.4360  -28.8900 O.2   282  TRP282     -0.2715
    101  CB        21.5460  -64.6660  -29.9700 C.3   282  TRP282      0.0590
    102  CG        21.0910  -64.9530  -31.3620 C.ar  282  TRP282      0.0006
    103  CD1       19.8440  -64.7560  -31.8760 C.ar  282  TRP282      0.0946
    104  CD2       21.8900  -65.4500  -32.4260 C.ar  282  TRP282      0.0152
    105  NE1       19.8090  -65.1510  -33.1880 N.ar  282  TRP282     -0.2442
    106  CE2       21.0540  -65.5820  -33.5530 C.ar  282  TRP282      0.0810
    107  CE3       23.2350  -65.8540  -32.5280 C.ar  282  TRP282      0.0012
    108  CZ2       21.5230  -66.0560  -34.7810 C.ar  282  TRP282      0.0191
    109  CZ3       23.6930  -66.3500  -33.7410 C.ar  282  TRP282      0.0001
    110  CH2       22.8410  -66.4310  -34.8550 C.ar  282  TRP282      0.0015
    111  N         19.2180  -64.4450  -27.9460 N.am  283  TYR283     -0.1960
    112  CA        17.8370  -64.2410  -27.5240 C.3   283  TYR283      0.1771
    113  C         16.8460  -63.9330  -28.6360 C.2   283  TYR283      0.2619
    114  O         17.1860  -63.3810  -29.6860 O.2   283  TYR283     -0.2715
    115  CB        17.7510  -63.1410  -26.4380 C.3   283  TYR283      0.0574
    116  CG        17.6410  -63.6840  -25.0270 C.ar  283  TYR283     -0.0198
    117  CD1       16.5030  -64.3760  -24.6080 C.ar  283  TYR283     -0.0009
    118  CD2       18.6870  -63.5450  -24.1240 C.ar  283  TYR283     -0.0009
    119  CE1       16.4120  -64.9040  -23.3230 C.ar  283  TYR283      0.0417
    120  CE2       18.5970  -64.0530  -22.8290 C.ar  283  TYR283      0.0417
    121  CZ        17.4640  -64.7340  -22.4340 C.ar  283  TYR283      0.1957
    122  OH        17.3870  -65.2470  -21.1630 O.3   283  TYR283     -0.2866
    123  N         15.6110  -64.2890  -28.3670 N.am  284  MET284     -0.1977
    124  CA        14.4500  -63.9290  -29.1380 C.3   284  MET284      0.1605
    125  C         13.7110  -63.0410  -28.1390 C.2   284  MET284      0.2287
    126  O         13.4700  -63.4620  -26.9920 O.2   284  MET284     -0.2864
    127  CB        13.6120  -65.1320  -29.5910 C.3   284  MET284      0.0413
    128  CG        12.4440  -64.6790  -30.4770 C.3   284  MET284      0.0598
    129  SD        11.3980  -65.9770  -31.1440 S.3   284  MET284     -0.1393
    130  CE        10.4390  -66.3920  -29.6740 C.3   284  MET284      0.0692
    131  N         11.0610  -63.7470  -25.1940 N.3   287  GLU287     -0.1245
    132  CA        11.4800  -64.5610  -24.0610 C.3   287  GLU287      0.1567
    133  C         11.7680  -63.6560  -22.8240 C.2   287  GLU287      0.2260
    134  O         11.1930  -63.8570  -21.7350 O.2   287  GLU287     -0.2867
    135  CB        12.6390  -65.4650  -24.4700 C.3   287  GLU287      0.0388
    136  CG        12.7660  -66.6910  -23.5860 C.3   287  GLU287      0.1160
    137  CD        11.5210  -67.5310  -23.3440 C.2   287  GLU287      0.3649
    138  OE1       10.8640  -67.9660  -24.3250 O.co2 287  GLU287     -0.2457
    139  OE2       11.2280  -67.7750  -22.1470 O.co2 287  GLU287     -0.2457
    140  N         10.0070  -63.6080  -19.2250 N.3   292  ASP292     -0.1239
    141  CA        10.8100  -63.1550  -18.0720 C.3   292  ASP292      0.1674
    142  C         10.2660  -61.9510  -17.2850 C.2   292  ASP292      0.2266
    143  O         10.3040  -61.9710  -16.0510 O.2   292  ASP292     -0.2867
    144  CB        12.2920  -62.9860  -18.4470 C.3   292  ASP292      0.1410
    145  CG        12.9870  -64.2030  -19.0700 C.2   292  ASP292      0.3668
    146  OD1       12.6150  -65.3510  -18.7260 O.co2 292  ASP292     -0.2456
    147  OD2       13.9680  -64.0050  -19.8270 O.co2 292  ASP292     -0.2456
    148  N          7.4200  -65.0480  -12.6110 N.3   298  ARG298     -0.1245
    149  CA         8.7290  -64.4270  -12.8340 C.3   298  ARG298      0.1563
    150  C          8.7490  -62.9880  -12.2570 C.2   298  ARG298      0.2260
    151  O          8.2650  -62.7600  -11.1290 O.2   298  ARG298     -0.2867
    152  CB         9.1030  -64.4270  -14.3360 C.3   298  ARG298      0.0307
    153  CG         9.0210  -65.7570  -15.0790 C.3   298  ARG298      0.0489
    154  CD        10.0410  -66.7800  -14.6440 C.3   298  ARG298      0.2205
    155  NE        11.4250  -66.4040  -14.9420 N.pl3 298  ARG298     -0.0865
    156  CZ        12.0500  -66.6700  -16.0850 C.cat 298  ARG298      0.5346
    157  NH1       11.4010  -67.2560  -17.0860 N.pl3 298  ARG298      0.1354
    158  NH2       13.3190  -66.3210  -16.2510 N.pl3 298  ARG298      0.1354
    159  N          5.6740  -74.8630  -28.5510 N.3   373  TRP373     -0.1241
    160  CA         6.9120  -74.2060  -28.2030 C.3   373  TRP373      0.1605
    161  C          7.3700  -73.2480  -29.2450 C.2   373  TRP373      0.2264
    162  O          7.8520  -72.1660  -28.9070 O.2   373  TRP373     -0.2867
    163  CB         7.9740  -75.2520  -27.8640 C.3   373  TRP373      0.0550
    164  CG         7.8450  -75.7300  -26.4500 C.ar  373  TRP373      0.0003
    165  CD1        6.7650  -76.3440  -25.8760 C.ar  373  TRP373      0.0946
    166  CD2        8.8000  -75.5340  -25.4050 C.ar  373  TRP373      0.0152
    167  NE1        6.9860  -76.5340  -24.5320 N.ar  373  TRP373     -0.2442
    168  CE2        8.2430  -76.0750  -24.2210 C.ar  373  TRP373      0.0810
    169  CE3       10.1040  -75.0000  -25.3620 C.ar  373  TRP373      0.0012
    170  CZ2        8.9520  -76.1040  -23.0110 C.ar  373  TRP373      0.0191
    171  CZ3       10.7810  -74.9840  -24.1510 C.ar  373  TRP373      0.0001
    172  CH2       10.2040  -75.5260  -22.9930 C.ar  373  TRP373      0.0015
@<TRIPOS>BOND
     1   110   108   ar
     2   110   109   ar
     3   108   106   ar
     4   109   107   ar
     5   106   105   ar
     6   106   104   ar
     7     4     3    2
     8   105   103   ar
     9   107   104   ar
    10   104   102   ar
    11     3     2    1
    12   103   102   ar
    13     6     5    1
    14   102   101    1
    15     5     2    1
    16   129   128    1
    17   129   130    1
    18     2     1    1
    19   128   127    1
    20   101    98    1
    21   114   113    2
    22   127   124    1
    23   161   162    2
    24   161   160    1
    25    97    98    1
    26    97    95   am
    27   124   123    1
    28   124   125    1
    29    94    95    1
    30    94    93    1
    31   100    99    2
    32    98    99    1
    33    95    96    2
    34   113   123   am
    35   113   112    1
    36    99   111   am
    37   159   160    1
    38    88    87    2
    39   160   163    1
    40   125   126    2
    41   111   112    1
    42   163   164    1
    43    93    87   am
    44    87    86    1
    45   112   115    1
    46    92    90   am
    47    91    90    2
    48   164   165   ar
    49   164   166   ar
    50   115   116    1
    51    90    89    1
    52    86    85    1
    53    86    89    1
    54    78    79    1
    55    78    75    1
    56    85    76   am
    57    80    79   ar
    58    80    82   ar
    59   165   167   ar
    60    79    81   ar
    61    82    84   ar
    62    60    61    1
    63    60    59    1
    64    81    83   ar
    65   166   169   ar
    66   166   168   ar
    67    84    83   ar
    68   169   171   ar
    69   131   132    1
    70    75    76    1
    71    75    74    1
    72    76    77    2
    73   116   117   ar
    74   116   118   ar
    75    61    55    1
    76    53    52    1
    77   117   119   ar
    78    58    57    2
    79   167   168   ar
    80   135   132    1
    81   135   136    1
    82    59    56    1
    83   138   137   ar
    84   168   170   ar
    85   171   172   ar
    86   118   120   ar
    87   132   133    1
    88   136   137    1
    89    55    56    1
    90    55    49   am
    91    57    56    1
    92    57    62   am
    93   137   139   ar
    94   119   121   ar
    95    52    51    1
    96    52    54    1
    97   170   172   ar
    98    73    71    1
    99    48    47    1
   100    48    49    1
   101    48    51    1
   102   120   121   ar
   103   133   134    2
   104    49    50    2
   105   121   122    1
   106    71    72    1
   107    71    68    1
   108    63    62    1
   109    63    66    1
   110    63    64    1
   111    67    64   am
   112    67    68    1
   113    64    65    2
   114    70    69    2
   115    68    69    1
   116    38    37    2
   117    37    36    1
   118   147   145   ar
   119    36    35    1
   120    36    39    1
   121   140   141    1
   122    42    44   ar
   123    42    40   ar
   124   145   146   ar
   125   145   144    1
   126    44    45   ar
   127    39    40    1
   128    23    21    1
   129   144   141    1
   130    40    41   ar
   131   141   142    1
   132    14    13    2
   133    13    15   am
   134    13    12    1
   135    12    11    2
   136    45    46    1
   137    45    43   ar
   138    11     8    1
   139    21    20    1
   140     8     9    1
   141     8     7    1
   142    20    22    1
   143    20    17    1
   144   142   143    2
   145    16    17    1
   146   157   156    1
   147    41    43   ar
   148    19    18    2
   149     9    10    2
   150    17    18    1
   151   158   156    1
   152    18    24   am
   153   156   155    2
   154   153   154    1
   155   153   152    1
   156    33    32    1
   157   155   154    1
   158    24    25    1
   159    34    32    1
   160    32    31    2
   161    31    30    1
   162    30    29    1
   163    25    28    1
   164    25    26    1
   165   152   149    1
   166    28    29    1
   167    26    27    2
   168   149   148    1
   169   149   150    1
   170   150   151    2
