@<TRIPOS>MOLECULE
tmp/2y3aA00.pdb
 194 183 0 0 0
SMALL
GASTEIGER

@<TRIPOS>ATOM
      1  N         19.8010  -24.7560    6.7710 N.3   690  LYS690     -0.1231
      2  CA        18.5070  -25.1830    6.2410 C.3   690  LYS690      0.1693
      3  C         18.3510  -26.7100    6.3070 C.2   690  LYS690      0.2592
      4  O         19.2380  -27.4010    6.8020 O.2   690  LYS690     -0.2718
      5  CB        18.4000  -24.7230    4.7710 C.3   690  LYS690      0.0285
      6  CG        17.4100  -23.5820    4.5130 C.3   690  LYS690      0.0035
      7  CD        17.1440  -23.3840    2.9920 C.3   690  LYS690      0.0206
      8  CE        16.0460  -22.3850    2.6620 C.3   690  LYS690      0.1093
      9  NZ        15.5670  -22.5210    1.2550 N.3   690  LYS690     -0.1314
     10  N         17.2080  -27.2230    5.8140 N.am  691  TYR691     -0.1962
     11  CA        16.9090  -28.6460    5.6450 C.3   691  TYR691      0.1771
     12  C         16.3820  -28.8620    4.2160 C.2   691  TYR691      0.2619
     13  O         15.6850  -27.9960    3.6710 O.2   691  TYR691     -0.2715
     14  CB        15.9790  -29.2230    6.7360 C.3   691  TYR691      0.0574
     15  CG        14.6190  -28.5740    6.7950 C.ar  691  TYR691     -0.0198
     16  CD1       14.3950  -27.4540    7.5860 C.ar  691  TYR691     -0.0009
     17  CD2       13.5500  -29.0830    6.0640 C.ar  691  TYR691     -0.0009
     18  CE1       13.1510  -26.8300    7.6200 C.ar  691  TYR691      0.0417
     19  CE2       12.3010  -28.4630    6.0840 C.ar  691  TYR691      0.0417
     20  CZ        12.1050  -27.3360    6.8680 C.ar  691  TYR691      0.1957
     21  OH        10.8800  -26.7130    6.9030 O.3   691  TYR691     -0.2866
     22  N         16.7590  -29.9860    3.6000 N.am  692  MET692     -0.1963
     23  CA        16.4130  -30.2980    2.2130 C.3   692  MET692      0.1736
     24  C         15.0140  -30.8550    2.0060 C.2   692  MET692      0.2616
     25  O         14.4650  -31.4980    2.8970 O.2   692  MET692     -0.2715
     26  CB        17.4710  -31.2030    1.5710 C.3   692  MET692      0.0427
     27  CG        18.8810  -30.6930    1.7540 C.3   692  MET692      0.0599
     28  SD        20.1030  -31.6400    0.8420 S.3   692  MET692     -0.1393
     29  CE        20.6690  -30.4180   -0.2590 C.3   692  MET692      0.0692
     30  N         14.4550  -30.6160    0.8020 N.am  693  ASP693     -0.1957
     31  CA        13.1280  -31.0420    0.3290 C.3   693  ASP693      0.1840
     32  C         12.8870  -32.5710    0.4110 C.2   693  ASP693      0.2622
     33  O         11.7350  -32.9990    0.5360 O.2   693  ASP693     -0.2715
     34  CB        12.9260  -30.5880   -1.1360 C.3   693  ASP693      0.1450
     35  CG        12.9570  -29.0850   -1.3880 C.2   693  ASP693      0.3671
     36  OD1       11.8890  -28.4390   -1.2650 O.co2 693  ASP693     -0.2456
     37  OD2       14.0220  -28.5740   -1.8120 O.co2 693  ASP693     -0.2456
     38  N         13.9750  -33.3750    0.3060 N.am  694  SER694     -0.1950
     39  CA        14.0120  -34.8440    0.3240 C.3   694  SER694      0.1924
     40  C         13.1860  -35.5150    1.4250 C.2   694  SER694      0.2314
     41  O         12.8840  -34.9100    2.4520 O.2   694  SER694     -0.2863
     42  CB        15.4590  -35.3430    0.3590 C.3   694  SER694      0.2116
     43  OG        15.5680  -36.7480    0.5450 O.3   694  SER694     -0.2180
     44  N         21.3500  -28.8400    6.4190 N.3   700  TRP700     -0.1241
     45  CA        22.3620  -28.1490    5.6360 C.3   700  TRP700      0.1605
     46  C         22.9820  -27.1410    6.6030 C.2   700  TRP700      0.2264
     47  O         22.4320  -26.0600    6.8050 O.2   700  TRP700     -0.2867
     48  CB        21.6590  -27.4310    4.4740 C.3   700  TRP700      0.0550
     49  CG        22.3410  -27.4650    3.1410 C.ar  700  TRP700      0.0003
     50  CD1       22.1730  -28.3990    2.1570 C.ar  700  TRP700      0.0946
     51  CD2       23.1060  -26.4040    2.5590 C.ar  700  TRP700      0.0152
     52  NE1       22.8250  -28.0050    1.0050 N.ar  700  TRP700     -0.2442
     53  CE2       23.4230  -26.7910    1.2300 C.ar  700  TRP700      0.0810
     54  CE3       23.5680  -25.1590    3.0340 C.ar  700  TRP700      0.0012
     55  CZ2       24.1870  -25.9850    0.3800 C.ar  700  TRP700      0.0191
     56  CZ3       24.3520  -24.3720    2.1990 C.ar  700  TRP700      0.0001
     57  CH2       24.6740  -24.7970    0.8990 C.ar  700  TRP700      0.0015
     58  N         26.4210  -31.3500    5.3520 N.3   716  ILE716     -0.1245
     59  CA        25.1090  -31.9350    5.1420 C.3   716  ILE716      0.1561
     60  C         25.0600  -33.1600    6.0180 C.2   716  ILE716      0.2260
     61  O         25.9350  -34.0170    5.9070 O.2   716  ILE716     -0.2867
     62  CB        24.7700  -32.2650    3.6730 C.3   716  ILE716      0.0252
     63  CG1       24.8890  -31.0230    2.7830 C.3   716  ILE716      0.0019
     64  CG2       23.3790  -32.8910    3.5630 C.3   716  ILE716      0.0019
     65  CD1       26.1440  -31.0230    1.9820 C.3   716  ILE716      0.0001
     66  N         22.9330  -36.3620    6.9270 N.3   718  LYS718     -0.1245
     67  CA        21.8190  -37.1190    6.3990 C.3   718  LYS718      0.1561
     68  C         21.6260  -38.4170    7.1240 C.2   718  LYS718      0.2260
     69  O         22.4730  -39.3150    7.0520 O.2   718  LYS718     -0.2867
     70  CB        21.8840  -37.3050    4.8670 C.3   718  LYS718      0.0271
     71  CG        20.5540  -37.8280    4.2810 C.3   718  LYS718      0.0035
     72  CD        20.5420  -38.0090    2.7560 C.3   718  LYS718      0.0206
     73  CE        19.1640  -38.4040    2.2670 C.3   718  LYS718      0.1093
     74  NZ        19.1650  -38.7550    0.8250 N.3   718  LYS718     -0.1314
     75  N         24.9660  -44.0580    3.4120 N.3   723  LEU723     -0.1245
     76  CA        25.8910  -43.0950    2.7900 C.3   723  LEU723      0.1561
     77  C         27.2620  -43.7020    2.4520 C.2   723  LEU723      0.2260
     78  O         28.2660  -42.9850    2.3520 O.2   723  LEU723     -0.2867
     79  CB        26.0180  -41.7960    3.6350 C.3   723  LEU723      0.0270
     80  CG        25.2230  -40.5250    3.1970 C.3   723  LEU723      0.0019
     81  CD1       25.6620  -40.0120    1.8400 C.3   723  LEU723      0.0001
     82  CD2       23.6920  -40.7160    3.2610 C.3   723  LEU723      0.0001
     83  N         28.2000  -43.7780   -1.8830 N.3   726  ASP726     -0.1239
     84  CA        28.7650  -42.4710   -2.1730 C.3   726  ASP726      0.1674
     85  C         30.1690  -42.4710   -1.6350 C.2   726  ASP726      0.2266
     86  O         31.1130  -42.3170   -2.4010 O.2   726  ASP726     -0.2867
     87  CB        27.9260  -41.3460   -1.5240 C.3   726  ASP726      0.1410
     88  CG        26.5040  -41.2410   -2.0530 C.2   726  ASP726      0.3668
     89  OD1       25.7370  -42.2430   -1.9200 O.co2 726  ASP726     -0.2456
     90  OD2       26.1410  -40.1520   -2.5730 O.co2 726  ASP726     -0.2456
     91  N         32.9750  -41.9330   -4.2870 N.3   730  LEU730     -0.1245
     92  CA        33.6470  -40.6550   -4.1650 C.3   730  LEU730      0.1561
     93  C         35.1150  -40.9150   -3.9600 C.2   730  LEU730      0.2260
     94  O         35.9440  -40.2340   -4.5600 O.2   730  LEU730     -0.2867
     95  CB        33.0440  -39.7800   -3.0580 C.3   730  LEU730      0.0270
     96  CG        31.9020  -38.8450   -3.5090 C.3   730  LEU730      0.0019
     97  CD1       30.9330  -38.6310   -2.4030 C.3   730  LEU730      0.0001
     98  CD2       32.4150  -37.5000   -3.9430 C.3   730  LEU730      0.0001
     99  N         34.0920  -34.2900   -3.4280 N.3   752  TYR752     -0.1241
    100  CA        33.8150  -33.6090   -2.1510 C.3   752  TYR752      0.1605
    101  C         33.6660  -34.6480   -1.0470 C.2   752  TYR752      0.2264
    102  O         33.1900  -35.7440   -1.3240 O.2   752  TYR752     -0.2867
    103  CB        32.5410  -32.7430   -2.2650 C.3   752  TYR752      0.0534
    104  CG        31.3440  -33.5400   -2.7240 C.ar  752  TYR752     -0.0201
    105  CD1       30.6650  -34.3830   -1.8470 C.ar  752  TYR752     -0.0009
    106  CD2       30.9560  -33.5390   -4.0560 C.ar  752  TYR752     -0.0009
    107  CE1       29.6410  -35.2140   -2.2900 C.ar  752  TYR752      0.0417
    108  CE2       29.9160  -34.3500   -4.5070 C.ar  752  TYR752      0.0417
    109  CZ        29.2490  -35.1700   -3.6160 C.ar  752  TYR752      0.1957
    110  OH        28.2210  -35.9580   -4.0440 O.3   752  TYR752     -0.2866
    111  N         27.8640  -35.3190    4.2660 N.3   764  ILE764     -0.1231
    112  CA        28.2860  -34.9370    2.9230 C.3   764  ILE764      0.1692
    113  C         28.8390  -33.5330    3.1290 C.2   764  ILE764      0.2592
    114  O         28.3010  -32.7700    3.9340 O.2   764  ILE764     -0.2718
    115  CB        27.1180  -34.9140    1.9110 C.3   764  ILE764      0.0266
    116  CG1       26.4350  -36.2810    1.7540 C.3   764  ILE764      0.0019
    117  CG2       27.5750  -34.3870    0.5660 C.3   764  ILE764      0.0020
    118  CD1       24.9530  -36.2440    2.0120 C.3   764  ILE764      0.0001
    119  N         29.9130  -33.2080    2.4270 N.am  765  GLU765     -0.1966
    120  CA        30.5680  -31.9170    2.4790 C.3   765  GLU765      0.1733
    121  C         29.9930  -30.9990    1.4060 C.2   765  GLU765      0.2616
    122  O         29.7760  -31.4550    0.2870 O.2   765  GLU765     -0.2715
    123  CB        32.0430  -32.1450    2.2220 C.3   765  GLU765      0.0429
    124  CG        32.9160  -30.9360    2.4210 C.3   765  GLU765      0.1163
    125  CD        33.8650  -30.8560    1.2550 C.2   765  GLU765      0.3649
    126  OE1       33.3850  -30.5150    0.1560 O.co2 765  GLU765     -0.2457
    127  OE2       35.0430  -31.2560    1.4010 O.co2 765  GLU765     -0.2457
    128  N         29.7470  -29.7100    1.7430 N.am  766  VAL766     -0.1963
    129  CA        29.2370  -28.7410    0.7670 C.3   766  VAL766      0.1727
    130  C         30.3310  -28.0100    0.0080 C.2   766  VAL766      0.2616
    131  O         31.3230  -27.5230    0.5880 O.2   766  VAL766     -0.2715
    132  CB        28.0080  -27.8440    1.1730 C.3   766  VAL766      0.0290
    133  CG1       28.3410  -26.3470    1.2030 C.3   766  VAL766      0.0023
    134  CG2       26.8350  -28.0870    0.2420 C.3   766  VAL766      0.0023
    135  N         30.1350  -27.9790   -1.3150 N.am  767  VAL767     -0.1977
    136  CA        31.0110  -27.2590   -2.2010 C.3   767  VAL767      0.1596
    137  C         30.4210  -25.8880   -2.4910 C.2   767  VAL767      0.2287
    138  O         29.2640  -25.7140   -2.9060 O.2   767  VAL767     -0.2864
    139  CB        31.5820  -28.0520   -3.4030 C.3   767  VAL767      0.0276
    140  CG1       30.4970  -28.7880   -4.1530 C.3   767  VAL767      0.0022
    141  CG2       32.4340  -27.1820   -4.3380 C.3   767  VAL767      0.0022
    142  N         28.2410  -23.4770   -5.6750 N.3   770  SER770     -0.1217
    143  CA        27.8440  -24.5050   -6.6480 C.3   770  SER770      0.1889
    144  C         26.3690  -24.4110   -7.0200 C.2   770  SER770      0.2288
    145  O         25.6460  -23.6210   -6.4020 O.2   770  SER770     -0.2866
    146  CB        28.1700  -25.8900   -6.1100 C.3   770  SER770      0.2089
    147  OG        29.4490  -25.9110   -5.4990 O.3   770  SER770     -0.2183
    148  N         22.9370  -26.9100   -9.1880 N.3   772  THR772     -0.1218
    149  CA        22.3730  -28.0010   -9.9830 C.3   772  THR772      0.1862
    150  C         22.0180  -27.4660  -11.3680 C.2   772  THR772      0.2287
    151  O         21.4880  -26.3650  -11.4470 O.2   772  THR772     -0.2866
    152  CB        21.3060  -28.7690   -9.1440 C.3   772  THR772      0.1770
    153  OG1       21.9010  -29.9490   -8.6100 O.3   772  THR772     -0.2211
    154  CG2       20.0530  -29.1560   -9.9170 C.3   772  THR772      0.0375
    155  N         18.6310  -26.2670  -11.7320 N.3   775  ASP775     -0.1239
    156  CA        18.5390  -24.9850  -11.0340 C.3   775  ASP775      0.1674
    157  C         19.0410  -23.8680  -11.9160 C.2   775  ASP775      0.2266
    158  O         18.3580  -22.8610  -12.0450 O.2   775  ASP775     -0.2867
    159  CB        19.3340  -24.9920   -9.7100 C.3   775  ASP775      0.1410
    160  CG        18.9300  -26.0150   -8.6650 C.2   775  ASP775      0.3668
    161  OD1       17.8630  -26.6570   -8.8360 O.co2 775  ASP775     -0.2456
    162  OD2       19.6800  -26.1740   -7.6720 O.co2 775  ASP775     -0.2456
    163  N         19.5110  -32.7580  -12.3790 N.3   836  ASP836     -0.1239
    164  CA        19.2130  -32.6620  -10.9550 C.3   836  ASP836      0.1674
    165  C         20.3750  -33.2120  -10.1590 C.2   836  ASP836      0.2266
    166  O         20.5250  -32.8360   -8.9980 O.2   836  ASP836     -0.2867
    167  CB        17.8780  -33.3500  -10.5530 C.3   836  ASP836      0.1410
    168  CG        17.4470  -34.5860  -11.3380 C.2   836  ASP836      0.3668
    169  OD1       17.1340  -34.4450  -12.5470 O.co2 836  ASP836     -0.2456
    170  OD2       17.2980  -35.6690  -10.7140 O.co2 836  ASP836     -0.2456
    171  N         26.2550  -30.9470  -11.2910 N.3   839  MET839     -0.1245
    172  CA        26.4310  -29.6170  -10.7280 C.3   839  MET839      0.1570
    173  C         27.5860  -28.7910  -11.2780 C.2   839  MET839      0.2261
    174  O         28.5490  -29.3370  -11.8180 O.2   839  MET839     -0.2867
    175  CB        26.5320  -29.7290   -9.2120 C.3   839  MET839      0.0387
    176  CG        25.2000  -29.9680   -8.5470 C.3   839  MET839      0.0595
    177  SD        25.2340  -29.8340   -6.7640 S.3   839  MET839     -0.1393
    178  CE        25.7420  -28.1540   -6.5620 C.3   839  MET839      0.0692
    179  N         26.6570  -35.9700   -8.0070 N.3   849  ILE849     -0.1231
    180  CA        26.1100  -35.8840   -6.6530 C.3   849  ILE849      0.1692
    181  C         25.2470  -37.0260   -5.9700 C.2   849  ILE849      0.2592
    182  O         25.3610  -37.2090   -4.7470 O.2   849  ILE849     -0.2718
    183  CB        25.4820  -34.4460   -6.5480 C.3   849  ILE849      0.0266
    184  CG1       26.0480  -33.6170   -5.4010 C.3   849  ILE849      0.0019
    185  CG2       23.9660  -34.3540   -6.6870 C.3   849  ILE849      0.0020
    186  CD1       27.0080  -32.6980   -5.8320 C.3   849  ILE849      0.0001
    187  N         24.3740  -37.7330   -6.7060 N.am  850  ASP850     -0.1974
    188  CA        23.5150  -38.7520   -6.0750 C.3   850  ASP850      0.1709
    189  C         23.8880  -40.1810   -6.4820 C.2   850  ASP850      0.2293
    190  O         23.2920  -40.7630   -7.3980 O.2   850  ASP850     -0.2864
    191  CB        22.0160  -38.4430   -6.3060 C.3   850  ASP850      0.1436
    192  CG        21.2130  -38.2000   -5.0370 C.2   850  ASP850      0.3671
    193  OD1       20.9540  -39.1890   -4.2920 O.co2 850  ASP850     -0.2456
    194  OD2       20.7990  -37.0320   -4.8080 O.co2 850  ASP850     -0.2456
@<TRIPOS>BOND
     1   169   168   ar
     2   163   164    1
     3   158   157    2
     4   157   156    1
     5   174   173    2
     6   155   156    1
     7   151   150    2
     8   150   149    1
     9   168   170   ar
    10   168   167    1
    11   171   172    1
    12   173   172    1
    13   156   159    1
    14   164   167    1
    15   164   165    1
    16   172   175    1
    17   165   166    2
    18   149   148    1
    19   149   152    1
    20   154   152    1
    21   159   160    1
    22   175   176    1
    23   152   153    1
    24   161   160   ar
    25   160   162   ar
    26   176   177    1
    27   179   180    1
    28   190   189    2
    29   144   143    1
    30   144   145    2
    31   177   178    1
    32   187   188    1
    33   187   181   am
    34   185   183    1
    35   180   183    1
    36   180   181    1
    37   143   146    1
    38   143   142    1
    39   183   184    1
    40   189   188    1
    41   191   188    1
    42   191   192    1
    43   146   147    1
    44   181   182    2
    45   186   184    1
    46   192   194   ar
    47   192   193   ar
    48    94    93    2
    49   108   106   ar
    50   108   109   ar
    51   141   139    1
    52    91    92    1
    53    92    93    1
    54    92    95    1
    55   140   139    1
    56   106   104   ar
    57   110   109    1
    58    98    96    1
    59   109   107   ar
    60    96    95    1
    61    96    97    1
    62    99   100    1
    63   139   136    1
    64   138   137    2
    65   104   103    1
    66   104   105   ar
    67    90    88   ar
    68   137   136    1
    69    86    85    2
    70   107   105   ar
    71   103   100    1
    72   136   135    1
    73    84    83    1
    74    84    85    1
    75    84    87    1
    76   100   101    1
    77    88    89   ar
    78    88    87    1
    79    37    35   ar
    80    35    36   ar
    81    35    34    1
    82   102   101    2
    83   135   130   am
    84    34    31    1
    85    29    28    1
    86   130   131    2
    87   130   129    1
    88   126   125   ar
    89   134   132    1
    90   122   121    2
    91    38    39    1
    92    38    32   am
    93    39    42    1
    94    39    40    1
    95    31    32    1
    96    31    30    1
    97    42    43    1
    98    55    57   ar
    99    55    53   ar
   100    32    33    2
   101   117   115    1
   102   129   132    1
   103   129   128    1
   104    30    24   am
   105    74    73    1
   106    28    27    1
   107    57    56   ar
   108    52    53   ar
   109    52    50   ar
   110   132   133    1
   111    53    51   ar
   112     9     8    1
   113   125   127   ar
   114   125   124    1
   115   121   128   am
   116   121   120    1
   117    40    41    2
   118    26    27    1
   119    26    23    1
   120   116   115    1
   121   116   118    1
   122    81    80    1
   123   115   112    1
   124    65    63    1
   125    24    23    1
   126    24    25    2
   127    50    49   ar
   128    56    54   ar
   129    23    22    1
   130   123   124    1
   131   123   120    1
   132    73    72    1
   133    78    77    2
   134   119   120    1
   135   119   113   am
   136    77    76    1
   137    51    54   ar
   138    51    49   ar
   139     8     7    1
   140    72    71    1
   141    63    62    1
   142    76    75    1
   143    76    79    1
   144   112   113    1
   145   112   111    1
   146     7     6    1
   147   113   114    2
   148    49    48    1
   149    80    82    1
   150    80    79    1
   151    64    62    1
   152    22    12   am
   153    13    12    2
   154    62    59    1
   155    12    11    1
   156    71    70    1
   157    48    45    1
   158     6     5    1
   159     5     2    1
   160    70    67    1
   161    59    58    1
   162    59    60    1
   163    45    44    1
   164    45    46    1
   165    11    10    1
   166    11    14    1
   167    10     3   am
   168    61    60    2
   169    17    19   ar
   170    17    15   ar
   171    19    20   ar
   172     2     3    1
   173     2     1    1
   174     3     4    2
   175    67    66    1
   176    67    68    1
   177    46    47    2
   178    14    15    1
   179    15    16   ar
   180    20    21    1
   181    20    18   ar
   182    69    68    2
   183    16    18   ar
