@<TRIPOS>MOLECULE
tmp/2y3pB00.pdb
 123 116 0 0 0
SMALL
GASTEIGER

@<TRIPOS>ATOM
      1  N          2.0430    8.2300   14.3300 N.3    28  GLY28      -0.1210
      2  CA         2.7830    9.4370   13.9480 C.3    28  GLY28       0.1956
      3  C          2.1970   10.7350   14.4820 C.2    28  GLY28       0.2612
      4  O          2.5110   11.7880   13.9770 O.2    28  GLY28      -0.2717
      5  N          1.3480   10.6770   15.5030 N.am   29  LEU29      -0.1965
      6  CA         0.8380   11.9160   16.0910 C.3    29  LEU29       0.1728
      7  C          1.5650   12.2860   17.4230 C.2    29  LEU29       0.2616
      8  O          2.2020   11.4260   18.0480 O.2    29  LEU29      -0.2715
      9  CB        -0.6710   11.8410   16.2820 C.3    29  LEU29       0.0311
     10  CG        -1.3550   11.3730   15.0210 C.3    29  LEU29       0.0022
     11  CD1       -2.8690   11.2330   15.2840 C.3    29  LEU29       0.0001
     12  CD2       -1.0970   12.3540   13.8970 C.3    29  LEU29       0.0001
     13  N          1.5090   13.5840   17.7770 N.am   30  LYS30      -0.1977
     14  CA         1.9260   14.1310   19.0950 C.3    30  LYS30       0.1596
     15  C          0.6250   14.5130   19.7450 C.2    30  LYS30       0.2287
     16  O         -0.3650   14.6320   19.0470 O.2    30  LYS30      -0.2864
     17  CB         2.7350   15.4130   18.9560 C.3    30  LYS30       0.0298
     18  CG         3.7900   15.3760   17.9200 C.3    30  LYS30       0.0038
     19  CD         4.6240   16.6260   17.9250 C.3    30  LYS30       0.0206
     20  CE         5.8080   16.4300   16.9990 C.3    30  LYS30       0.1093
     21  NZ         6.3020   17.7740   16.8080 N.3    30  LYS30      -0.1314
     22  N         -1.7520   17.2360   17.9590 N.3    33  HIS33      -0.1241
     23  CA        -2.4120   16.6040   16.8020 C.3    33  HIS33       0.1621
     24  C         -3.5810   15.7570   17.2350 C.2    33  HIS33       0.2264
     25  O         -4.7060   15.9640   16.7760 O.2    33  HIS33      -0.2867
     26  CB        -1.4780   15.6620   16.0810 C.3    33  HIS33       0.0745
     27  CG        -0.1540   16.2540   15.7630 C.ar   33  HIS33       0.0817
     28  ND1        0.9830   15.4920   15.6480 N.ar   33  HIS33      -0.2268
     29  CD2        0.2240   17.5300   15.5250 C.ar   33  HIS33       0.1154
     30  CE1        2.0030   16.2760   15.3320 C.ar   33  HIS33       0.1986
     31  NE2        1.5700   17.5150   15.2470 N.ar   33  HIS33      -0.2212
     32  N         -1.9410   23.9910   14.0690 N.3    76  THR76      -0.1218
     33  CA        -1.9610   22.5780   13.7180 C.3    76  THR76       0.1862
     34  C         -3.0600   22.3230   12.7460 C.2    76  THR76       0.2287
     35  O         -2.8500   21.6850   11.7020 O.2    76  THR76      -0.2866
     36  CB        -2.1100   21.6870   14.9450 C.3    76  THR76       0.1770
     37  OG1       -0.9270   21.8370   15.7270 O.3    76  THR76      -0.2211
     38  CG2       -2.2690   20.2130   14.5790 C.3    76  THR76       0.0375
     39  N         -1.7850   23.6740    9.5030 N.3    79  ARG79      -0.1231
     40  CA        -0.7970   22.8600    8.8490 C.3    79  ARG79       0.1694
     41  C         -1.3670   21.6000    8.2600 C.2    79  ARG79       0.2591
     42  O         -0.9900   21.2460    7.1520 O.2    79  ARG79      -0.2718
     43  CB         0.3530   22.5980    9.7280 C.3    79  ARG79       0.0321
     44  CG         1.1410   23.8620    9.8870 C.3    79  ARG79       0.0489
     45  CD         2.4100   23.6380   10.7180 C.3    79  ARG79       0.2205
     46  NE         2.1100   23.3870   12.1310 N.pl3  79  ARG79      -0.0865
     47  CZ         2.3350   24.2700   13.0910 C.cat  79  ARG79       0.5346
     48  NH1        2.8960   25.4210   12.7810 N.pl3  79  ARG79       0.1354
     49  NH2        2.0260   23.9930   14.3440 N.pl3  79  ARG79       0.1354
     50  N         -2.3060   20.9510    8.9410 N.am   80  MET80      -0.1979
     51  CA        -2.8860   19.7170    8.4470 C.3    80  MET80       0.1605
     52  C         -3.7710   19.9650    7.2330 C.2    80  MET80       0.2287
     53  O         -4.1380   19.0210    6.5090 O.2    80  MET80      -0.2864
     54  CB        -3.7040   19.0500    9.5400 C.3    80  MET80       0.0413
     55  CG        -2.8660   18.4480   10.6770 C.3    80  MET80       0.0598
     56  SD        -3.8430   17.7100   12.0140 S.3    80  MET80      -0.1393
     57  CE        -4.9370   19.0650   12.3860 C.3    80  MET80       0.0692
     58  N          2.3460   21.1600    2.9920 N.3    85  SER85      -0.1202
     59  CA         2.8850   20.6500    4.2560 C.3    85  SER85       0.2020
     60  C          2.7150   19.1420    4.4300 C.2    85  SER85       0.2618
     61  O          3.6930   18.4390    4.6550 O.2    85  SER85      -0.2717
     62  CB         2.2800   21.4010    5.4350 C.3    85  SER85       0.2103
     63  OG         2.6700   22.7740    5.3620 O.3    85  SER85      -0.2182
     64  N          1.5020   18.6240    4.2900 N.am   86  LEU86      -0.1979
     65  CA         1.3000   17.2090    4.4820 C.3    86  LEU86       0.1596
     66  C          1.1570   16.5090    3.1540 C.2    86  LEU86       0.2287
     67  O          0.3340   16.8950    2.3240 O.2    86  LEU86      -0.2864
     68  CB         0.0930   16.9030    5.3740 C.3    86  LEU86       0.0297
     69  CG         0.0860   17.4820    6.7810 C.3    86  LEU86       0.0022
     70  CD1       -0.7290   16.5830    7.7270 C.3    86  LEU86       0.0001
     71  CD2        1.4800   17.6120    7.2850 C.3    86  LEU86       0.0001
     72  N         -4.7430   15.9510    6.4180 N.3    90  LEU90      -0.1245
     73  CA        -5.7220   15.3990    7.3230 C.3    90  LEU90       0.1561
     74  C         -6.9220   16.3020    7.5960 C.2    90  LEU90       0.2260
     75  O         -7.9300   15.8470    8.1590 O.2    90  LEU90      -0.2867
     76  CB        -5.0610   15.0370    8.6190 C.3    90  LEU90       0.0270
     77  CG        -3.9160   14.0570    8.5210 C.3    90  LEU90       0.0019
     78  CD1       -3.2380   13.9910    9.8730 C.3    90  LEU90       0.0001
     79  CD2       -4.4040   12.7180    8.1020 C.3    90  LEU90       0.0001
     80  N          0.7390    6.5270    9.0850 N.3   153  ASN153     -0.1240
     81  CA         0.8460    7.9750    9.0760 C.3   153  ASN153      0.1653
     82  C          2.2320    8.5670    9.3280 C.2   153  ASN153      0.2266
     83  O          2.6060    9.5100    8.7040 O.2   153  ASN153     -0.2867
     84  CB        -0.1570    8.5460   10.0560 C.3   153  ASN153      0.1155
     85  CG        -0.2370   10.0070    9.9610 C.2   153  ASN153      0.2627
     86  OD1       -0.4600   10.5090    8.8870 O.2   153  ASN153     -0.2716
     87  ND2        0.0090   10.7260   11.0650 N.am  153  ASN153     -0.0877
     88  N          3.2260   10.8390    6.2800 N.3   157  ASN157     -0.1225
     89  CA         3.1680   12.2860    6.5310 C.3   157  ASN157      0.1785
     90  C          4.4520   12.8280    7.1540 C.2   157  ASN157      0.2598
     91  O          4.6710   14.0680    7.1910 O.2   157  ASN157     -0.2718
     92  CB         1.9010   12.6920    7.3010 C.3   157  ASN157      0.1169
     93  CG         0.7120   12.9960    6.3580 C.2   157  ASN157      0.2627
     94  OD1        0.9180   13.4670    5.2370 O.2   157  ASN157     -0.2716
     95  ND2       -0.5310   12.7240    6.7980 N.am  157  ASN157     -0.0877
     96  N          5.3190   11.9040    7.6040 N.am  158  GLY158     -0.1942
     97  CA         6.6500   12.2700    8.1110 C.3   158  GLY158      0.2014
     98  C          6.5530   12.9590    9.4540 C.2   158  GLY158      0.2640
     99  O          5.4950   12.8650   10.1350 O.2   158  GLY158     -0.2714
    100  N          7.6240   13.6690    9.8510 N.am  159  SER159     -0.1935
    101  CA         7.6970   14.2190   11.2250 C.3   159  SER159      0.2055
    102  C          8.7520   15.2150   11.6140 C.2   159  SER159      0.2643
    103  O          9.8280   15.2160   11.0800 O.2   159  SER159     -0.2714
    104  CB         7.9410   13.0800   12.1780 C.3   159  SER159      0.2130
    105  OG         7.4390   13.4990   13.4300 O.3   159  SER159     -0.2179
    106  N          8.4880   15.9810   12.6620 N.am  160  SER160     -0.1949
    107  CA         9.4980   16.9040   13.2050 C.3   160  SER160      0.1924
    108  C          9.2760   17.1370   14.6810 C.2   160  SER160      0.2314
    109  O          8.1970   16.9490   15.1900 O.2   160  SER160     -0.2863
    110  CB         9.4180   18.2650   12.5240 C.3   160  SER160      0.2116
    111  OG         8.0920   18.7820   12.7010 O.3   160  SER160     -0.2180
    112  N         11.2390   20.4150   -0.7510 N.3   254  TYR254     -0.1241
    113  CA        10.2990   20.4470    0.3480 C.3   254  TYR254      0.1605
    114  C         10.6690   21.4510    1.4000 C.2   254  TYR254      0.2264
    115  O         11.8140   21.5490    1.8000 O.2   254  TYR254     -0.2867
    116  CB        10.3350   19.0660    0.9510 C.3   254  TYR254      0.0534
    117  CG         9.3680   18.7930    2.0580 C.ar  254  TYR254     -0.0201
    118  CD1        8.0500   19.2090    1.9860 C.ar  254  TYR254     -0.0009
    119  CD2        9.7620   18.0440    3.1600 C.ar  254  TYR254     -0.0009
    120  CE1        7.1640   18.9140    3.0070 C.ar  254  TYR254      0.0417
    121  CE2        8.8790   17.7410    4.1800 C.ar  254  TYR254      0.0417
    122  CZ         7.5910   18.1800    4.0970 C.ar  254  TYR254      0.1957
    123  OH         6.7240   17.8790    5.1070 O.3   254  TYR254     -0.2866
@<TRIPOS>BOND
     1   112   113    1
     2   113   116    1
     3   113   114    1
     4   116   117    1
     5   114   115    2
     6   118   117   ar
     7   118   120   ar
     8   117   119   ar
     9    67    66    2
    10    58    59    1
    11   120   122   ar
    12    66    65    1
    13   119   121   ar
    14   122   121   ar
    15   122   123    1
    16    59    60    1
    17    59    62    1
    18    64    60   am
    19    64    65    1
    20    60    61    2
    21    65    68    1
    22    94    93    2
    23    63    62    1
    24    68    69    1
    25    88    89    1
    26    93    95   am
    27    93    92    1
    28    72    73    1
    29    53    52    2
    30    89    90    1
    31    89    92    1
    32    69    71    1
    33    69    70    1
    34    42    41    2
    35    90    91    2
    36    90    96   am
    37    52    51    1
    38    73    74    1
    39    73    76    1
    40    74    75    2
    41    96    97    1
    42    79    77    1
    43    97    98    1
    44    41    40    1
    45    41    50   am
    46    51    50    1
    47    51    54    1
    48    77    76    1
    49    77    78    1
    50    83    82    2
    51    40    39    1
    52    40    43    1
    53    86    85    2
    54    81    80    1
    55    81    82    1
    56    81    84    1
    57    98   100   am
    58    98    99    2
    59    54    55    1
    60    43    44    1
    61   100   101    1
    62    44    45    1
    63    85    84    1
    64    85    87   am
    65    55    56    1
    66    45    46    1
    67   103   102    2
    68   101   102    1
    69   101   104    1
    70   102   106   am
    71    35    34    2
    72    56    57    1
    73    46    47    2
    74   104   105    1
    75   110   111    1
    76   110   107    1
    77   106   107    1
    78    34    33    1
    79    48    47    1
    80    47    49    1
    81   107   108    1
    82    33    32    1
    83    33    36    1
    84    12    10    1
    85     2     1    1
    86     2     3    1
    87     4     3    2
    88     3     5   am
    89    38    36    1
    90   108   109    2
    91    36    37    1
    92    10    11    1
    93    10     9    1
    94    31    30   ar
    95    31    29   ar
    96    30    28   ar
    97     5     6    1
    98    29    27   ar
    99    28    27   ar
   100    27    26    1
   101    26    23    1
   102     6     9    1
   103     6     7    1
   104    25    24    2
   105    23    24    1
   106    23    22    1
   107    21    20    1
   108    20    19    1
   109     7    13   am
   110     7     8    2
   111    13    14    1
   112    18    19    1
   113    18    17    1
   114    17    14    1
   115    16    15    2
   116    14    15    1
