@<TRIPOS>MOLECULE
tmp/2y3zA03.pdb
 128 124 0 0 0
SMALL
GASTEIGER

@<TRIPOS>ATOM
      1  N         35.5440   31.1750   25.1490 N.3    12  ILE12      -0.1245
      2  CA        35.1800   32.4850   25.7010 C.3    12  ILE12       0.1561
      3  C         33.8230   32.5710   26.3930 C.2    12  ILE12       0.2260
      4  O         33.4740   33.6320   26.8840 O.2    12  ILE12      -0.2867
      5  CB        35.2490   33.5830   24.5980 C.3    12  ILE12       0.0252
      6  CG1       34.2710   33.2950   23.4330 C.3    12  ILE12       0.0019
      7  CG2       36.6920   33.6990   24.0050 C.3    12  ILE12       0.0019
      8  CD1       34.0760   34.4980   22.4540 C.3    12  ILE12       0.0001
      9  N         29.5400   27.0860   22.9790 N.3    73  VAL73      -0.1231
     10  CA        29.7570   25.7030   23.3230 C.3    73  VAL73       0.1692
     11  C         30.5980   24.9730   22.2540 C.2    73  VAL73       0.2593
     12  O         30.4130   25.2400   21.0490 O.2    73  VAL73      -0.2718
     13  CB        28.3420   25.0510   23.4300 C.3    73  VAL73       0.0266
     14  CG1       28.4390   23.5390   23.4120 C.3    73  VAL73       0.0020
     15  CG2       27.6070   25.5870   24.7330 C.3    73  VAL73       0.0020
     16  N         31.4660   24.0630   22.6770 N.am   74  GLY74      -0.1942
     17  CA        32.1360   23.1800   21.7320 C.3    74  GLY74       0.2014
     18  C         33.5190   23.6570   21.3970 C.2    74  GLY74       0.2639
     19  O         34.0340   24.6460   21.9770 O.2    74  GLY74      -0.2714
     20  N         34.1450   22.9340   20.4820 N.am   75  GLY75      -0.1940
     21  CA        35.5240   23.2030   20.1500 C.3    75  GLY75       0.1998
     22  C         36.2420   21.9590   19.6410 C.2    75  GLY75       0.2480
     23  O         35.6600   20.8470   19.6470 O.2    75  GLY75      -0.2729
     24  N         37.5210   22.1500   19.2210 N.am   76  PRO76      -0.2726
     25  CA        38.4330   21.1610   18.6420 C.3    76  PRO76       0.1402
     26  C         38.6230   19.9860   19.5740 C.2    76  PRO76       0.2269
     27  O         38.6110   18.8310   19.1510 O.2    76  PRO76      -0.2865
     28  CB        39.7740   21.9370   18.5160 C.3    76  PRO76       0.0296
     29  CG        39.6320   23.1680   19.4370 C.3    76  PRO76       0.0237
     30  CD        38.1580   23.4810   19.3580 C.3    76  PRO76       0.0939
     31  N         27.6240   19.3990   20.4770 N.3    88  GLU88      -0.1245
     32  CA        26.5430   19.7850   19.5740 C.3    88  GLU88       0.1567
     33  C         25.2570   18.9870   19.8650 C.2    88  GLU88       0.2260
     34  O         24.1590   19.5480   19.8280 O.2    88  GLU88      -0.2867
     35  CB        26.9910   19.6470   18.1100 C.3    88  GLU88       0.0388
     36  CG        28.1920   20.5680   17.7490 C.3    88  GLU88       0.1160
     37  CD        29.5590   20.1590   18.3920 C.2    88  GLU88       0.3649
     38  OE1       29.7870   18.9480   18.7070 O.co2  88  GLU88      -0.2457
     39  OE2       30.4130   21.0770   18.5710 O.co2  88  GLU88      -0.2457
     40  N         30.4760   39.3300   13.3360 N.3   255  LEU255     -0.1231
     41  CA        29.9420   38.2010   14.0840 C.3   255  LEU255      0.1693
     42  C         29.7260   38.4860   15.5610 C.2   255  LEU255      0.2592
     43  O         28.7450   38.0040   16.1520 O.2   255  LEU255     -0.2718
     44  CB        30.9440   37.0200   13.9490 C.3   255  LEU255      0.0284
     45  CG        30.5550   35.7160   14.6710 C.3   255  LEU255      0.0019
     46  CD1       29.1020   35.2860   14.3760 C.3   255  LEU255      0.0001
     47  CD2       31.5330   34.5670   14.3110 C.3   255  LEU255      0.0001
     48  N         30.6170   39.2690   16.1730 N.am  256  GLY256     -0.1957
     49  CA        30.4950   39.5500   17.6290 C.3   256  GLY256      0.1869
     50  C         29.2960   40.4100   17.9770 C.2   256  GLY256      0.2309
     51  O         29.0710   40.7290   19.1510 O.2   256  GLY256     -0.2863
     52  N         28.1440   33.6200   17.7800 N.3   274  HIS274     -0.1226
     53  CA        29.5420   33.2110   17.6780 C.3   274  HIS274      0.1752
     54  C         29.8910   31.9290   18.4240 C.2   274  HIS274      0.2597
     55  O         29.1840   31.4890   19.3350 O.2   274  HIS274     -0.2718
     56  CB        30.5060   34.3630   18.0920 C.3   274  HIS274      0.0759
     57  CG        30.4410   34.7000   19.5790 C.ar  274  HIS274      0.0818
     58  ND1       30.8910   33.8340   20.5470 N.ar  274  HIS274     -0.2268
     59  CD2       30.0580   35.8330   20.2260 C.ar  274  HIS274      0.1154
     60  CE1       30.7660   34.4120   21.7520 C.ar  274  HIS274      0.1986
     61  NE2       30.2560   35.6260   21.5750 N.ar  274  HIS274     -0.2212
     62  N         30.9960   31.3310   18.0370 N.am  275  GLY275     -0.1942
     63  CA        31.3950   30.0760   18.6680 C.3   275  GLY275      0.2014
     64  C         32.3070   30.3450   19.8570 C.2   275  GLY275      0.2640
     65  O         32.3820   31.4880   20.3460 O.2   275  GLY275     -0.2714
     66  N         33.0340   29.3230   20.2800 N.am  276  SER276     -0.1935
     67  CA        33.7070   29.3740   21.5730 C.3   276  SER276      0.2055
     68  C         35.0840   30.0520   21.4350 C.2   276  SER276      0.2643
     69  O         35.7130   30.3480   22.4490 O.2   276  SER276     -0.2714
     70  CB        33.7930   27.9790   22.2180 C.3   276  SER276      0.2130
     71  OG        34.5160   27.0870   21.4030 O.3   276  SER276     -0.2179
     72  N         35.5650   30.2670   20.2040 N.am  277  ALA277     -0.1963
     73  CA        36.8350   31.0410   19.9860 C.3   277  ALA277      0.1713
     74  C         37.9490   30.6720   20.9870 C.2   277  ALA277      0.2458
     75  O         38.5040   31.5360   21.6780 O.2   277  ALA277     -0.2730
     76  CB        36.5190   32.5890   20.0110 C.3   277  ALA277      0.0333
     77  N         38.2870   29.3700   21.0950 N.am  278  PRO278     -0.2716
     78  CA        39.1640   28.9100   22.1800 C.3   278  PRO278      0.1536
     79  C         40.5560   29.5290   22.1400 C.2   278  PRO278      0.2599
     80  O         41.2070   29.6220   23.1850 O.2   278  PRO278     -0.2715
     81  CB        39.2600   27.3800   21.9450 C.3   278  PRO278      0.0310
     82  CG        38.9380   27.2290   20.4430 C.3   278  PRO278      0.0237
     83  CD        37.8180   28.2300   20.2660 C.3   278  PRO278      0.0939
     84  N         40.9830   29.9860   20.9660 N.am  279  ASP279     -0.1958
     85  CA        42.3250   30.6250   20.8750 C.3   279  ASP279      0.1840
     86  C         42.4320   31.9290   21.6670 C.2   279  ASP279      0.2621
     87  O         43.5280   32.3850   21.9400 O.2   279  ASP279     -0.2715
     88  CB        42.6330   30.9190   19.4010 C.3   279  ASP279      0.1450
     89  CG        41.5220   31.7160   18.7110 C.2   279  ASP279      0.3671
     90  OD1       40.3250   31.2700   18.6980 O.co2 279  ASP279     -0.2456
     91  OD2       41.8640   32.7860   18.1610 O.co2 279  ASP279     -0.2456
     92  N         41.2830   32.5640   21.9600 N.am  280  ILE280     -0.1977
     93  CA        41.3280   33.8030   22.7510 C.3   280  ILE280      0.1596
     94  C         40.6580   33.6350   24.1400 C.2   280  ILE280      0.2287
     95  O         40.4820   34.6380   24.8460 O.2   280  ILE280     -0.2864
     96  CB        40.7510   35.0160   21.9780 C.3   280  ILE280      0.0276
     97  CG1       39.2440   34.7430   21.6510 C.3   280  ILE280      0.0022
     98  CG2       41.5900   35.2600   20.7300 C.3   280  ILE280      0.0022
     99  CD1       38.4540   36.0080   21.4650 C.3   280  ILE280      0.0001
    100  N         39.7980   39.7090   25.7890 N.3   285  ILE285     -0.1231
    101  CA        39.5520   40.4870   24.5910 C.3   285  ILE285      0.1692
    102  C         38.2510   40.2080   23.8150 C.2   285  ILE285      0.2592
    103  O         37.8910   40.9810   22.9680 O.2   285  ILE285     -0.2718
    104  CB        40.7500   40.4350   23.5980 C.3   285  ILE285      0.0266
    105  CG1       40.9890   38.9930   23.1030 C.3   285  ILE285      0.0019
    106  CG2       42.0380   41.0080   24.2710 C.3   285  ILE285      0.0020
    107  CD1       42.1580   38.9670   22.0540 C.3   285  ILE285      0.0001
    108  N         37.5930   39.0900   24.0700 N.am  286  ALA286     -0.1966
    109  CA        36.4130   38.7470   23.3550 C.3   286  ALA286      0.1728
    110  C         35.4230   39.9050   23.4380 C.2   286  ALA286      0.2616
    111  O         35.2260   40.5010   24.4960 O.2   286  ALA286     -0.2715
    112  CB        35.8130   37.5150   23.9290 C.3   286  ALA286      0.0334
    113  N         34.7590   40.1700   22.3220 N.am  287  ASN287     -0.1972
    114  CA        33.7190   41.2030   22.2940 C.3   287  ASN287      0.1688
    115  C         32.4490   40.6550   22.9880 C.2   287  ASN287      0.2292
    116  O         31.8790   39.6760   22.5220 O.2   287  ASN287     -0.2864
    117  CB        33.4160   41.5130   20.8110 C.3   287  ASN287      0.1181
    118  CG        32.3860   42.6070   20.6480 C.2   287  ASN287      0.2629
    119  OD1       31.7500   43.0340   21.6080 O.2   287  ASN287     -0.2716
    120  ND2       32.2240   43.0690   19.4210 N.am  287  ASN287     -0.0877
    121  N         37.7290   43.5000   17.3760 N.3   327  ASP327     -0.1239
    122  CA        37.0050   43.0930   16.1680 C.3   327  ASP327      0.1674
    123  C         36.3220   44.2170   15.4150 C.2   327  ASP327      0.2266
    124  O         35.9600   44.0400   14.2550 O.2   327  ASP327     -0.2867
    125  CB        36.0150   41.9410   16.4030 C.3   327  ASP327      0.1410
    126  CG        35.0870   42.1850   17.6020 C.2   327  ASP327      0.3668
    127  OD1       35.6290   42.5060   18.6840 O.co2 327  ASP327     -0.2456
    128  OD2       33.8630   42.0370   17.4570 O.co2 327  ASP327     -0.2456
@<TRIPOS>BOND
     1    40    41    1
     2    44    41    1
     3    44    45    1
     4    41    42    1
     5   124   123    2
     6    47    45    1
     7    46    45    1
     8   123   122    1
     9    42    43    2
    10    42    48   am
    11   122   125    1
    12   122   121    1
    13    48    49    1
    14   125   126    1
    15   128   126   ar
    16   126   127   ar
    17    49    50    1
    18    53    52    1
    19    53    56    1
    20    53    54    1
    21    36    35    1
    22    36    37    1
    23    50    51    2
    24    62    54   am
    25    62    63    1
    26    56    57    1
    27    35    32    1
    28    91    89   ar
    29    37    39   ar
    30    37    38   ar
    31    54    55    2
    32    28    25    1
    33    28    29    1
    34    25    24    1
    35    25    26    1
    36    63    64    1
    37    90    89   ar
    38    89    88    1
    39    27    26    2
    40    24    30    1
    41    24    22   am
    42    30    29    1
    43    88    85    1
    44   120   118   am
    45    32    33    1
    46    32    31    1
    47    57    59   ar
    48    57    58   ar
    49    22    23    2
    50    22    21    1
    51    34    33    2
    52    64    66   am
    53    64    65    2
    54    73    76    1
    55    73    72    1
    56    73    74    1
    57    21    20    1
    58    72    68   am
    59    59    61   ar
    60    83    82    1
    61    83    77    1
    62    66    67    1
    63    82    81    1
    64    20    18   am
    65    58    60   ar
    66   118   117    1
    67   118   119    2
    68    98    96    1
    69   117   114    1
    70    85    84    1
    71    85    86    1
    72    84    79   am
    73    74    77   am
    74    74    75    2
    75    12    11    2
    76    77    78    1
    77    18    17    1
    78    18    19    2
    79    71    70    1
    80    68    67    1
    81    68    69    2
    82    99    97    1
    83    67    70    1
    84    61    60   ar
    85    97    96    1
    86    86    87    2
    87    86    92   am
    88    17    16    1
    89    81    78    1
    90    92    93    1
    91    96    93    1
    92   107   105    1
    93    79    78    1
    94    79    80    2
    95    11    16   am
    96    11    10    1
    97   114   113    1
    98   114   115    1
    99   113   110   am
   100     8     6    1
   101   116   115    2
   102    93    94    1
   103   103   102    2
   104     9    10    1
   105   105   104    1
   106    10    13    1
   107   109   110    1
   108   109   112    1
   109   109   108    1
   110    14    13    1
   111    13    15    1
   112     6     5    1
   113   110   111    2
   114   104   106    1
   115   104   101    1
   116   102   108   am
   117   102   101    1
   118     7     5    1
   119    94    95    2
   120   101   100    1
   121     5     2    1
   122     1     2    1
   123     2     3    1
   124     3     4    2
