@<TRIPOS>MOLECULE
tmp/2y3zA01.pdb
 91 87 0 0 0
SMALL
GASTEIGER

@<TRIPOS>ATOM
      1  N         14.9740   33.2450   16.9600 N.3   104  LEU104     -0.1245
      2  CA        14.9080   34.6650   16.6160 C.3   104  LEU104      0.1561
      3  C         16.3230   35.2230   16.5260 C.2   104  LEU104      0.2260
      4  O         17.0850   35.1350   17.5060 O.2   104  LEU104     -0.2867
      5  CB        14.2710   35.4260   17.7760 C.3   104  LEU104      0.0270
      6  CG        12.7050   35.3410   17.8010 C.3   104  LEU104      0.0019
      7  CD1       12.1290   33.9480   18.0050 C.3   104  LEU104      0.0001
      8  CD2       12.2280   36.2090   18.9960 C.3   104  LEU104      0.0001
      9  N          4.6180   33.7200   17.6090 N.3   169  VAL169     -0.1245
     10  CA         5.8600   34.2820   18.1780 C.3   169  VAL169      0.1561
     11  C          6.3000   35.5100   17.3650 C.2   169  VAL169      0.2260
     12  O          6.6650   36.4880   17.9370 O.2   169  VAL169     -0.2867
     13  CB         6.9960   33.2250   18.2420 C.3   169  VAL169      0.0252
     14  CG1        8.3270   33.9320   18.5840 C.3   169  VAL169      0.0019
     15  CG2        6.6300   32.1730   19.3310 C.3   169  VAL169      0.0019
     16  N          3.9420   38.4670   18.1480 N.3   172  GLU172     -0.1231
     17  CA         4.2420   38.9840   19.4990 C.3   172  GLU172      0.1699
     18  C          5.5440   39.8200   19.4740 C.2   172  GLU172      0.2592
     19  O          5.6330   40.8800   20.1500 O.2   172  GLU172     -0.2718
     20  CB         4.3890   37.8440   20.5310 C.3   172  GLU172      0.0402
     21  CG         3.0040   37.0390   20.8320 C.3   172  GLU172      0.1161
     22  CD         1.9050   37.8300   21.5390 C.2   172  GLU172      0.3649
     23  OE1        2.0810   39.0280   21.8610 O.co2 172  GLU172     -0.2457
     24  OE2        0.8250   37.2280   21.7660 O.co2 172  GLU172     -0.2457
     25  N          6.5330   39.3080   18.7500 N.am  173  ALA173     -0.1980
     26  CA         7.8290   40.0160   18.6820 C.3   173  ALA173      0.1597
     27  C          7.6160   41.3770   17.9880 C.2   173  ALA173      0.2287
     28  O          8.1330   42.3950   18.4270 O.2   173  ALA173     -0.2864
     29  CB         8.8350   39.1250   17.9070 C.3   173  ALA173      0.0319
     30  N          6.4920   44.3970   20.0170 N.3   176  LYS176     -0.1245
     31  CA         7.5490   44.9930   20.8490 C.3   176  LYS176      0.1561
     32  C          8.5010   45.8830   20.0630 C.2   176  LYS176      0.2260
     33  O          9.3730   46.5320   20.6750 O.2   176  LYS176     -0.2867
     34  CB         8.3800   43.8610   21.4840 C.3   176  LYS176      0.0271
     35  CG         7.5500   43.0350   22.4440 C.3   176  LYS176      0.0035
     36  CD         8.3350   41.8510   22.9950 C.3   176  LYS176      0.0206
     37  CE         7.3330   40.9310   23.7590 C.3   176  LYS176      0.1093
     38  NZ         8.0420   39.8360   24.3280 N.3   176  LYS176     -0.1314
     39  N         12.7870   30.0790   21.3870 N.3   263  LEU263     -0.1245
     40  CA        11.5810   30.2200   22.2240 C.3   263  LEU263      0.1561
     41  C         10.6860   29.0110   21.9510 C.2   263  LEU263      0.2260
     42  O         10.6580   28.4980   20.8240 O.2   263  LEU263     -0.2867
     43  CB        10.8180   31.4970   21.7980 C.3   263  LEU263      0.0270
     44  CG        11.0830   32.7680   22.6140 C.3   263  LEU263      0.0019
     45  CD1       12.5860   33.0700   22.8790 C.3   263  LEU263      0.0001
     46  CD2       10.3130   34.0680   22.1030 C.3   263  LEU263      0.0001
     47  N         12.1280   39.0710   25.4200 N.3   301  HIS301     -0.1226
     48  CA        11.3320   37.9280   24.8890 C.3   301  HIS301      0.1752
     49  C         10.9000   36.9260   25.9710 C.2   301  HIS301      0.2596
     50  O          9.8620   36.2610   25.8320 O.2   301  HIS301     -0.2718
     51  CB        12.0990   37.1930   23.7610 C.3   301  HIS301      0.0759
     52  CG        12.3790   38.0710   22.5950 C.ar  301  HIS301      0.0818
     53  ND1       11.3740   38.5310   21.7560 N.ar  301  HIS301     -0.2268
     54  CD2       13.5430   38.6120   22.1470 C.ar  301  HIS301      0.1154
     55  CE1       11.9180   39.3030   20.8300 C.ar  301  HIS301      0.1986
     56  NE2       13.2340   39.3660   21.0440 N.ar  301  HIS301     -0.2212
     57  N         11.6610   36.7870   27.0390 N.am  302  ALA302     -0.1966
     58  CA        11.2500   35.9350   28.1520 C.3   302  ALA302      0.1728
     59  C         10.4540   36.7510   29.1730 C.2   302  ALA302      0.2616
     60  O          9.4310   36.2840   29.6690 O.2   302  ALA302     -0.2715
     61  CB        12.4640   35.3090   28.8590 C.3   302  ALA302      0.0334
     62  N         10.9120   37.9710   29.4810 N.am  303  PHE303     -0.1960
     63  CA        10.3220   38.7100   30.6210 C.3   303  PHE303      0.1771
     64  C          9.4420   39.8880   30.2390 C.2   303  PHE303      0.2620
     65  O          8.8160   40.4780   31.1220 O.2   303  PHE303     -0.2715
     66  CB        11.4370   39.1510   31.5980 C.3   303  PHE303      0.0574
     67  CG        12.1610   37.9880   32.1850 C.ar  303  PHE303     -0.0200
     68  CD1       11.5200   37.1490   33.1080 C.ar  303  PHE303     -0.0042
     69  CD2       13.4400   37.6740   31.7760 C.ar  303  PHE303     -0.0042
     70  CE1       12.1880   36.0400   33.6390 C.ar  303  PHE303     -0.0003
     71  CE2       14.1200   36.5740   32.3210 C.ar  303  PHE303     -0.0003
     72  CZ        13.4910   35.7580   33.2290 C.ar  303  PHE303     -0.0000
     73  N          9.4220   40.2290   28.9520 N.am  304  GLY304     -0.1940
     74  CA         8.5800   41.3440   28.4560 C.3   304  GLY304      0.2014
     75  C          9.0700   42.7150   28.9090 C.2   304  GLY304      0.2639
     76  O          8.3090   43.7040   28.8980 O.2   304  GLY304     -0.2714
     77  N         10.3570   42.8040   29.3050 N.am  305  LEU305     -0.1963
     78  CA        10.8930   44.0630   29.8380 C.3   305  LEU305      0.1728
     79  C         11.5240   44.8080   28.6730 C.2   305  LEU305      0.2616
     80  O         12.7780   44.9040   28.5340 O.2   305  LEU305     -0.2715
     81  CB        11.9050   43.7880   30.9730 C.3   305  LEU305      0.0311
     82  CG        11.2310   43.1960   32.2340 C.3   305  LEU305      0.0022
     83  CD1       12.2920   42.6680   33.1810 C.3   305  LEU305      0.0001
     84  CD2       10.4100   44.2310   32.9630 C.3   305  LEU305      0.0001
     85  N         10.6470   45.3160   27.8110 N.am  306  VAL306     -0.1977
     86  CA        11.0670   45.7850   26.4760 C.3   306  VAL306      0.1596
     87  C         11.8320   47.0830   26.6600 C.2   306  VAL306      0.2287
     88  O         12.8730   47.2580   26.0350 O.2   306  VAL306     -0.2864
     89  CB         9.8240   46.0550   25.5550 C.3   306  VAL306      0.0276
     90  CG1       10.3020   46.5480   24.1520 C.3   306  VAL306      0.0022
     91  CG2        9.0380   44.7280   25.3890 C.3   306  VAL306      0.0022
@<TRIPOS>BOND
     1     3     2    1
     2     3     4    2
     3     2     1    1
     4     2     5    1
     5    11    12    2
     6    11    10    1
     7     9    10    1
     8     5     6    1
     9     6     7    1
    10     6     8    1
    11    29    26    1
    12    27    28    2
    13    27    26    1
    14    16    17    1
    15    10    13    1
    16    13    14    1
    17    13    15    1
    18    26    25    1
    19    25    18   am
    20    18    17    1
    21    18    19    2
    22    17    20    1
    23    30    31    1
    24    32    33    2
    25    32    31    1
    26    20    21    1
    27    42    41    2
    28    55    56   ar
    29    55    53   ar
    30    21    22    1
    31    31    34    1
    32    56    54   ar
    33    39    40    1
    34    34    35    1
    35    22    24   ar
    36    22    23   ar
    37    53    52   ar
    38    43    40    1
    39    43    44    1
    40    41    40    1
    41    46    44    1
    42    54    52   ar
    43    35    36    1
    44    52    51    1
    45    44    45    1
    46    36    37    1
    47    37    38    1
    48    51    48    1
    49    90    89    1
    50    48    47    1
    51    48    49    1
    52    91    89    1
    53    89    86    1
    54    50    49    2
    55    49    57   am
    56    88    87    2
    57    86    87    1
    58    86    85    1
    59    57    58    1
    60    85    79   am
    61    58    61    1
    62    58    59    1
    63    74    75    1
    64    74    73    1
    65    80    79    2
    66    79    78    1
    67    76    75    2
    68    75    77   am
    69    73    64   am
    70    59    62   am
    71    59    60    2
    72    77    78    1
    73    62    63    1
    74    78    81    1
    75    64    63    1
    76    64    65    2
    77    63    66    1
    78    81    82    1
    79    66    67    1
    80    69    67   ar
    81    69    71   ar
    82    67    68   ar
    83    82    84    1
    84    82    83    1
    85    71    72   ar
    86    68    70   ar
    87    72    70   ar
