@<TRIPOS>MOLECULE
tmp/2y3zA02.pdb
 131 122 0 0 0
SMALL
GASTEIGER

@<TRIPOS>ATOM
      1  N         21.4190   20.2490   20.9160 N.3    92  LEU92      -0.1245
      2  CA        20.1480   19.6900   20.3990 C.3    92  LEU92       0.1561
      3  C         19.2980   19.1360   21.5410 C.2    92  LEU92       0.2260
      4  O         18.0670   19.3520   21.5400 O.2    92  LEU92      -0.2867
      5  CB        20.4470   18.5860   19.3640 C.3    92  LEU92       0.0270
      6  CG        21.3030   19.1200   18.2040 C.3    92  LEU92       0.0019
      7  CD1       21.6780   18.0180   17.2000 C.3    92  LEU92       0.0001
      8  CD2       20.6440   20.3370   17.4820 C.3    92  LEU92       0.0001
      9  N         17.7090   22.1600   23.4150 N.3    95  ARG95      -0.1245
     10  CA        16.5940   22.7700   22.6670 C.3    95  ARG95       0.1563
     11  C         15.3940   21.8050   22.5850 C.2    95  ARG95       0.2260
     12  O         14.2500   22.2110   22.7920 O.2    95  ARG95      -0.2867
     13  CB        17.0650   23.2810   21.2710 C.3    95  ARG95       0.0307
     14  CG        18.3260   24.2760   21.4490 C.3    95  ARG95       0.0489
     15  CD        18.3740   25.5810   20.5860 C.3    95  ARG95       0.2205
     16  NE        19.7330   26.1880   20.5940 N.pl3  95  ARG95      -0.0865
     17  CZ        20.7860   25.6710   19.9380 C.cat  95  ARG95       0.5346
     18  NH1       20.6140   24.5580   19.2190 N.pl3  95  ARG95       0.1354
     19  NH2       22.0100   26.2570   19.9770 N.pl3  95  ARG95       0.1354
     20  N         13.3310   30.2210   16.3660 N.3   103  ASN103     -0.1240
     21  CA        14.6480   30.8690   16.5780 C.3   103  ASN103      0.1653
     22  C         14.5500   32.3220   16.1200 C.2   103  ASN103      0.2266
     23  O         14.1440   32.6120   14.9970 O.2   103  ASN103     -0.2867
     24  CB        15.7170   30.1070   15.7860 C.3   103  ASN103      0.1155
     25  CG        17.1040   30.6990   15.9900 C.2   103  ASN103      0.2627
     26  OD1       17.6950   31.1550   15.0590 O.2   103  ASN103     -0.2716
     27  ND2       17.5690   30.7470   17.2300 N.am  103  ASN103     -0.0877
     28  N         16.6710   35.7070   15.3410 N.3   105  ARG105     -0.1245
     29  CA        17.9730   36.2700   15.1730 C.3   105  ARG105      0.1563
     30  C         17.8820   37.6740   14.6040 C.2   105  ARG105      0.2260
     31  O         17.6030   37.8280   13.3860 O.2   105  ARG105     -0.2867
     32  CB        18.8590   35.3340   14.3920 C.3   105  ARG105      0.0307
     33  CG        19.4110   34.2400   15.2990 C.3   105  ARG105      0.0489
     34  CD        20.2280   33.2700   14.4560 C.3   105  ARG105      0.2205
     35  NE        21.2720   33.9800   13.7250 N.pl3 105  ARG105     -0.0865
     36  CZ        22.2030   33.3710   13.0010 C.cat 105  ARG105      0.5346
     37  NH1       22.2090   32.0460   12.9260 N.pl3 105  ARG105      0.1354
     38  NH2       23.1330   34.0840   12.3650 N.pl3 105  ARG105      0.1354
     39  N         12.6370   32.0680   12.6980 N.3   133  ARG133     -0.1245
     40  CA        12.7970   30.8250   11.9000 C.3   133  ARG133      0.1563
     41  C         12.1540   29.6770   12.6520 C.2   133  ARG133      0.2260
     42  O         12.4630   29.4430   13.8360 O.2   133  ARG133     -0.2867
     43  CB        14.3230   30.5130   11.7220 C.3   133  ARG133      0.0307
     44  CG        14.6120   29.1390   11.1660 C.3   133  ARG133      0.0489
     45  CD        16.1450   28.9320   11.2740 C.3   133  ARG133      0.2205
     46  NE        16.4010   27.5060   11.0600 N.pl3 133  ARG133     -0.0865
     47  CZ        17.5270   26.9160   11.4190 C.cat 133  ARG133      0.5346
     48  NH1       18.4890   27.6540   11.9960 N.pl3 133  ARG133      0.1354
     49  NH2       17.6710   25.6060   11.2110 N.pl3 133  ARG133      0.1354
     50  N         11.7690   26.1170   13.8890 N.3   135  LEU135     -0.1245
     51  CA        12.9520   25.3640   14.2550 C.3   135  LEU135      0.1561
     52  C         12.7880   23.8440   14.2570 C.2   135  LEU135      0.2260
     53  O         13.7900   23.1170   14.1940 O.2   135  LEU135     -0.2867
     54  CB        13.4190   25.8900   15.6350 C.3   135  LEU135      0.0270
     55  CG        14.8720   25.7550   16.0650 C.3   135  LEU135      0.0019
     56  CD1       15.7760   26.3260   14.9740 C.3   135  LEU135      0.0001
     57  CD2       15.0010   26.5320   17.3710 C.3   135  LEU135      0.0001
     58  N         14.0770   19.7260    6.9100 N.3   140  TYR140     -0.1227
     59  CA        15.1300   19.2150    7.8090 C.3   140  TYR140      0.1736
     60  C         14.6910   17.9570    8.6290 C.2   140  TYR140      0.2595
     61  O         15.5160   17.0920    8.9220 O.2   140  TYR140     -0.2718
     62  CB        15.6470   20.3180    8.7420 C.3   140  TYR140      0.0548
     63  CG        16.4190   21.4430    8.0660 C.ar  140  TYR140     -0.0200
     64  CD1       16.8980   21.2800    6.7220 C.ar  140  TYR140     -0.0009
     65  CD2       16.7420   22.6240    8.7690 C.ar  140  TYR140     -0.0009
     66  CE1       17.6490   22.2870    6.1230 C.ar  140  TYR140      0.0417
     67  CE2       17.4760   23.6520    8.1690 C.ar  140  TYR140      0.0417
     68  CZ        17.9120   23.4640    6.8310 C.ar  140  TYR140      0.1957
     69  OH        18.6690   24.4350    6.2530 O.3   140  TYR140     -0.2866
     70  N         13.3880   17.8440    8.9160 N.am  141  PHE141     -0.1976
     71  CA        12.8410   16.7270    9.7020 C.3   141  PHE141      0.1639
     72  C         11.7390   15.9780    8.9900 C.2   141  PHE141      0.2290
     73  O         11.2490   14.9490    9.5010 O.2   141  PHE141     -0.2864
     74  CB        12.3600   17.2510   11.1000 C.3   141  PHE141      0.0560
     75  CG        13.4280   17.9500   11.8750 C.ar  141  PHE141     -0.0200
     76  CD1       14.4180   17.2190   12.5410 C.ar  141  PHE141     -0.0042
     77  CD2       13.4780   19.3460   11.9530 C.ar  141  PHE141     -0.0042
     78  CE1       15.4110   17.8570   13.2400 C.ar  141  PHE141     -0.0003
     79  CE2       14.4820   19.9920   12.6620 C.ar  141  PHE141     -0.0003
     80  CZ        15.4560   19.2470   13.3010 C.ar  141  PHE141     -0.0000
     81  N         11.7340   26.4870    8.2380 N.3   238  ASN238     -0.1240
     82  CA        13.0430   26.1500    8.8140 C.3   238  ASN238      0.1653
     83  C         14.1690   26.3810    7.7750 C.2   238  ASN238      0.2266
     84  O         15.1000   27.1670    8.0260 O.2   238  ASN238     -0.2867
     85  CB        13.0010   24.6670    9.2100 C.3   238  ASN238      0.1155
     86  CG        14.0510   24.2970   10.2600 C.2   238  ASN238      0.2627
     87  OD1       15.0410   25.0200   10.4780 O.2   238  ASN238     -0.2716
     88  ND2       13.8410   23.1400   10.9150 N.am  238  ASN238     -0.0877
     89  N         16.7860   29.3900    7.8100 N.3   242  ASP242     -0.1239
     90  CA        18.2420   29.1460    7.9450 C.3   242  ASP242      0.1674
     91  C         18.9610   29.9890    6.8930 C.2   242  ASP242      0.2266
     92  O         19.9190   30.6840    7.2030 O.2   242  ASP242     -0.2867
     93  CB        18.4770   27.6830    7.6690 C.3   242  ASP242      0.1410
     94  CG        19.7430   27.1630    8.2520 C.2   242  ASP242      0.3668
     95  OD1       20.4460   27.9180    8.9390 O.co2 242  ASP242     -0.2456
     96  OD2       19.9750   25.9510    7.9970 O.co2 242  ASP242     -0.2456
     97  N         21.1780   35.4400   19.7150 N.3   260  SER260     -0.1217
     98  CA        20.1100   34.4990   19.2920 C.3   260  SER260      0.1889
     99  C         19.1800   34.1890   20.4520 C.2   260  SER260      0.2288
    100  O         19.6240   34.0630   21.6050 O.2   260  SER260     -0.2866
    101  CB        20.7610   33.1940   18.7720 C.3   260  SER260      0.2089
    102  OG        19.8020   32.1430   18.5920 O.3   260  SER260     -0.2183
    103  N         15.9510   31.2870   21.3420 N.3   262  SER262     -0.1217
    104  CA        15.1320   30.1330   20.9280 C.3   262  SER262      0.1889
    105  C         14.0160   30.0200   21.9240 C.2   262  SER262      0.2288
    106  O         14.2480   29.9290   23.1620 O.2   262  SER262     -0.2866
    107  CB        15.9950   28.8700   20.9010 C.3   262  SER262      0.2089
    108  OG        17.0270   29.1050   19.9080 O.3   262  SER262     -0.2183
    109  N         21.5820   33.0950   23.5870 N.3   271  GLU271     -0.1231
    110  CA        23.0430   32.7340   23.4030 C.3   271  GLU271      0.1684
    111  C         23.6250   33.5710   22.3100 C.2   271  GLU271      0.2434
    112  O         22.9110   34.1290   21.4780 O.2   271  GLU271     -0.2733
    113  CB        23.1290   31.2390   22.9980 C.3   271  GLU271      0.0402
    114  CG        22.5200   30.9620   21.5580 C.3   271  GLU271      0.1161
    115  CD        22.2300   29.5090   21.3500 C.2   271  GLU271      0.3649
    116  OE1       23.2060   28.7170   21.1740 O.co2 271  GLU271     -0.2457
    117  OE2       21.0350   29.1280   21.3790 O.co2 271  GLU271     -0.2457
    118  N         24.9750   33.6590   22.2570 N.am  272  PRO272     -0.2718
    119  CA        25.5730   34.3680   21.1200 C.3   272  PRO272      0.1535
    120  C         25.5300   33.5040   19.9020 C.2   272  PRO272      0.2598
    121  O         25.5650   32.2770   19.9920 O.2   272  PRO272     -0.2715
    122  CB        27.0760   34.5200   21.5450 C.3   272  PRO272      0.0310
    123  CG        27.2700   33.4940   22.6890 C.3   272  PRO272      0.0237
    124  CD        25.9030   33.3640   23.3510 C.3   272  PRO272      0.0939
    125  N         25.5850   34.1350   18.7460 N.am  273  VAL273     -0.1978
    126  CA        25.7370   33.3200   17.5220 C.3   273  VAL273      0.1596
    127  C         27.1600   32.8130   17.3820 C.2   273  VAL273      0.2287
    128  O         27.3900   31.7060   16.8720 O.2   273  VAL273     -0.2864
    129  CB        25.3410   34.1790   16.3090 C.3   273  VAL273      0.0276
    130  CG1       25.7030   33.5020   14.9630 C.3   273  VAL273      0.0022
    131  CG2       23.7640   34.5400   16.3560 C.3   273  VAL273      0.0022
@<TRIPOS>BOND
     1    66    64   ar
     2    66    68   ar
     3    69    68    1
     4    64    63   ar
     5    68    67   ar
     6    91    92    2
     7    91    90    1
     8    58    59    1
     9    93    90    1
    10    93    94    1
    11    83    84    2
    12    83    82    1
    13    59    60    1
    14    59    62    1
    15    89    90    1
    16    96    94   ar
    17    63    62    1
    18    63    65   ar
    19    67    65   ar
    20    81    82    1
    21    94    95   ar
    22    60    70   am
    23    60    61    2
    24    82    85    1
    25    70    71    1
    26    72    73    2
    27    72    71    1
    28    85    86    1
    29    71    74    1
    30    86    87    2
    31    86    88   am
    32    46    45    1
    33    46    47    2
    34    74    75    1
    35    44    45    1
    36    44    43    1
    37    49    47    1
    38    47    48    1
    39    43    40    1
    40    75    77   ar
    41    75    76   ar
    42    40    41    1
    43    40    39    1
    44    77    79   ar
    45    38    36    1
    46    76    78   ar
    47    41    42    2
    48    79    80   ar
    49    37    36    1
    50    36    35    2
    51    78    80   ar
    52    31    30    2
    53    35    34    1
    54    50    51    1
    55    53    52    2
    56    51    52    1
    57    51    54    1
    58    32    29    1
    59    32    33    1
    60    34    33    1
    61    30    29    1
    62   130   129    1
    63    56    55    1
    64    23    22    2
    65    26    25    2
    66    29    28    1
    67    54    55    1
    68    24    25    1
    69    24    21    1
    70    25    27   am
    71    55    57    1
    72    22    21    1
    73   129   131    1
    74   129   126    1
    75    20    21    1
    76   128   127    2
    77     7     6    1
    78   127   126    1
    79     8     6    1
    80   126   125    1
    81     6     5    1
    82   102   101    1
    83   125   120   am
    84   101    98    1
    85    18    17    1
    86    98    97    1
    87    98    99    1
    88     5     2    1
    89   120   121    2
    90   120   119    1
    91   108   107    1
    92    17    19    1
    93    17    16    2
    94     2     1    1
    95     2     3    1
    96    99   100    2
    97    15    16    1
    98    15    14    1
    99   107   104    1
   100   104   103    1
   101   104   105    1
   102   119   122    1
   103   119   118    1
   104   116   115   ar
   105    13    14    1
   106    13    10    1
   107   115   117   ar
   108   115   114    1
   109   112   111    2
   110     4     3    2
   111   122   123    1
   112   114   113    1
   113   105   106    2
   114   118   111   am
   115   118   124    1
   116   111   110    1
   117    11    10    1
   118    11    12    2
   119    10     9    1
   120   123   124    1
   121   113   110    1
   122   110   109    1
