@<TRIPOS>MOLECULE
tmp/2y42D02.pdb
 163 157 0 0 0
SMALL
GASTEIGER

@<TRIPOS>ATOM
      1  N         15.6470   27.5950   38.4720 N.3    12  ILE12      -0.1245
      2  CA        17.0310   27.4430   38.9130 C.3    12  ILE12       0.1561
      3  C         17.5490   28.6830   39.6370 C.2    12  ILE12       0.2260
      4  O         18.6330   28.6480   40.2150 O.2    12  ILE12      -0.2867
      5  CB        18.0070   26.9600   37.7900 C.3    12  ILE12       0.0252
      6  CG1       18.0620   27.9040   36.6010 C.3    12  ILE12       0.0019
      7  CG2       17.6920   25.5430   37.3280 C.3    12  ILE12       0.0019
      8  CD1       19.4140   27.7660   35.8410 C.3    12  ILE12       0.0001
      9  N         16.2180   34.1040   38.6670 N.3    72  SER72      -0.1202
     10  CA        15.3870   34.0650   37.4660 C.3    72  SER72       0.2020
     11  C         13.8950   33.9270   37.7340 C.2    72  SER72       0.2619
     12  O         13.4800   33.3200   38.7310 O.2    72  SER72      -0.2717
     13  CB        15.9080   33.0070   36.5010 C.3    72  SER72       0.2103
     14  OG        17.0210   33.5420   35.7760 O.3    72  SER72      -0.2182
     15  N         13.0950   34.4940   36.8380 N.am   73  VAL73      -0.1965
     16  CA        11.6420   34.4540   36.9810 C.3    73  VAL73       0.1727
     17  C         10.9470   33.6880   35.8670 C.2    73  VAL73       0.2617
     18  O         11.3500   33.7580   34.7070 O.2    73  VAL73      -0.2715
     19  CB        11.0690   35.8720   37.0490 C.3    73  VAL73       0.0290
     20  CG1       11.2330   36.4150   38.4340 C.3    73  VAL73       0.0023
     21  CG2       11.7850   36.7660   36.0660 C.3    73  VAL73       0.0023
     22  N          9.8940   32.9600   36.2390 N.am   74  GLY74      -0.1940
     23  CA         8.9800   32.3360   35.2660 C.3    74  GLY74       0.2014
     24  C          8.9620   30.8200   35.2690 C.2    74  GLY74       0.2639
     25  O          9.8980   30.1860   35.7350 O.2    74  GLY74      -0.2714
     26  N          7.8910   30.2360   34.7360 N.am   75  GLY75      -0.1940
     27  CA         7.8220   28.7820   34.5730 C.3    75  GLY75       0.1998
     28  C          6.4820   28.3390   34.0360 C.2    75  GLY75       0.2480
     29  O          5.6550   29.1880   33.7270 O.2    75  GLY75      -0.2729
     30  N          6.2570   27.0080   33.9290 N.am   76  PRO76      -0.2726
     31  CA         4.9970   26.4230   33.4360 C.3    76  PRO76       0.1402
     32  C          3.7400   26.9420   34.1550 C.2    76  PRO76       0.2269
     33  O          2.7470   27.2740   33.4960 O.2    76  PRO76      -0.2865
     34  CB         5.1730   24.9160   33.7230 C.3    76  PRO76       0.0296
     35  CG         6.2850   24.8380   34.7710 C.3    76  PRO76       0.0237
     36  CD         7.1990   25.9550   34.3540 C.3    76  PRO76       0.0939
     37  N          2.6800   30.6090   33.2350 N.3    79  ASP79      -0.1239
     38  CA         2.6090   30.9180   31.8120 C.3    79  ASP79       0.1674
     39  C          1.1900   31.3090   31.3730 C.2    79  ASP79       0.2266
     40  O          1.0260   32.1770   30.5200 O.2    79  ASP79      -0.2867
     41  CB         3.1830   29.7750   30.9720 C.3    79  ASP79       0.1410
     42  CG         4.7030   29.8540   30.8520 C.2    79  ASP79       0.3668
     43  OD1        5.2240   30.9530   30.5450 O.co2  79  ASP79      -0.2456
     44  OD2        5.3850   28.8260   31.0720 O.co2  79  ASP79      -0.2456
     45  N          7.0720   37.9660   34.1680 N.3    88  GLU88      -0.1245
     46  CA         7.9640   38.6950   33.3000 C.3    88  GLU88       0.1567
     47  C          7.6680   40.1930   33.3550 C.2    88  GLU88       0.2260
     48  O          8.5590   40.9860   33.0950 O.2    88  GLU88      -0.2867
     49  CB         7.9540   38.1620   31.8460 C.3    88  GLU88       0.0388
     50  CG         7.1040   36.8720   31.5540 C.3    88  GLU88       0.1160
     51  CD         7.6470   35.5500   32.1250 C.2    88  GLU88       0.3649
     52  OE1        8.8770   35.2840   31.9960 O.co2  88  GLU88      -0.2457
     53  OE2        6.8220   34.7700   32.6790 O.co2  88  GLU88      -0.2457
     54  N          9.4010   41.6400   36.4760 N.3    91  LEU91      -0.1245
     55  CA        10.7890   41.9260   36.1620 C.3    91  LEU91       0.1561
     56  C         10.9760   43.2710   35.4400 C.2    91  LEU91       0.2260
     57  O         11.9350   44.0120   35.7140 O.2    91  LEU91      -0.2867
     58  CB        11.3940   40.7760   35.3480 C.3    91  LEU91       0.0270
     59  CG        12.8870   40.8520   35.0250 C.3    91  LEU91       0.0019
     60  CD1       13.7050   41.0620   36.2820 C.3    91  LEU91       0.0001
     61  CD2       13.3220   39.5930   34.3080 C.3    91  LEU91       0.0001
     62  N         27.6190   28.8850   26.0030 N.3   254  SER254     -0.1202
     63  CA        26.6440   28.4730   26.9840 C.3   254  SER254      0.2020
     64  C         26.0330   29.6640   27.6870 C.2   254  SER254      0.2619
     65  O         26.7370   30.4620   28.2960 O.2   254  SER254     -0.2717
     66  CB        27.2720   27.5410   28.0130 C.3   254  SER254      0.2103
     67  OG        26.2750   27.0450   28.8770 O.3   254  SER254     -0.2182
     68  N         24.7150   29.7580   27.5850 N.am  255  LEU255     -0.1965
     69  CA        23.9050   30.6250   28.4100 C.3   255  LEU255      0.1728
     70  C         24.3480   30.6670   29.8860 C.2   255  LEU255      0.2616
     71  O         24.3590   31.7250   30.5290 O.2   255  LEU255     -0.2715
     72  CB        22.4600   30.1280   28.3450 C.3   255  LEU255      0.0311
     73  CG        21.3830   30.7970   27.4750 C.3   255  LEU255      0.0022
     74  CD1       21.9360   31.4970   26.2470 C.3   255  LEU255      0.0001
     75  CD2       20.3390   29.7170   27.0840 C.3   255  LEU255      0.0001
     76  N         24.6940   29.5050   30.4220 N.am  256  GLY256     -0.1955
     77  CA        25.1110   29.4140   31.7930 C.3   256  GLY256      0.1869
     78  C         26.2880   30.2880   32.1560 C.2   256  GLY256      0.2309
     79  O         26.5180   30.4990   33.3330 O.2   256  GLY256     -0.2863
     80  N         21.7770   36.2730   32.5780 N.3   273  VAL273     -0.1231
     81  CA        21.0600   36.3840   31.3270 C.3   273  VAL273      0.1692
     82  C         20.1180   35.2120   31.0830 C.2   273  VAL273      0.2592
     83  O         19.1030   35.3800   30.4420 O.2   273  VAL273     -0.2718
     84  CB        22.0640   36.4410   30.1730 C.3   273  VAL273      0.0266
     85  CG1       21.3340   36.5090   28.8340 C.3   273  VAL273      0.0020
     86  CG2       23.0030   37.6340   30.3440 C.3   273  VAL273      0.0020
     87  N         20.4360   34.0300   31.5880 N.am  274  HIS274     -0.1962
     88  CA        19.5970   32.8620   31.3430 C.3   274  HIS274      0.1787
     89  C         18.2530   32.9770   32.0720 C.2   274  HIS274      0.2621
     90  O         18.0470   33.9040   32.8750 O.2   274  HIS274     -0.2715
     91  CB        20.3270   31.5670   31.7290 C.3   274  HIS274      0.0785
     92  CG        20.7230   31.4820   33.1750 C.ar  274  HIS274      0.0821
     93  ND1       19.8080   31.3160   34.1980 N.ar  274  HIS274     -0.2267
     94  CD2       21.9420   31.5060   33.7670 C.ar  274  HIS274      0.1154
     95  CE1       20.4470   31.2640   35.3560 C.ar  274  HIS274      0.1986
     96  NE2       21.7440   31.3660   35.1220 N.ar  274  HIS274     -0.2212
     97  N         17.3470   32.0400   31.8210 N.am  275  GLY275     -0.1940
     98  CA        16.0820   32.0420   32.5420 C.3   275  GLY275      0.2014
     99  C         15.9150   30.9690   33.6080 C.2   275  GLY275      0.2640
    100  O         16.8810   30.4910   34.1970 O.2   275  GLY275     -0.2714
    101  N         14.6670   30.5810   33.8450 N.am  276  SER276     -0.1935
    102  CA        14.3450   29.6630   34.9390 C.3   276  SER276      0.2055
    103  C         14.8100   28.2230   34.7800 C.2   276  SER276      0.2643
    104  O         14.9030   27.5020   35.7670 O.2   276  SER276     -0.2714
    105  CB        12.8610   29.6850   35.1610 C.3   276  SER276      0.2130
    106  OG        12.4640   31.0300   35.1950 O.3   276  SER276     -0.2179
    107  N         15.1070   27.8220   33.5440 N.am  277  ALA277     -0.1963
    108  CA        15.4730   26.4400   33.1950 C.3   277  ALA277      0.1713
    109  C         14.6500   25.4150   33.9420 C.2   277  ALA277      0.2458
    110  O         15.1970   24.5680   34.6520 O.2   277  ALA277     -0.2730
    111  CB        16.9480   26.1980   33.4200 C.3   277  ALA277      0.0333
    112  N         13.3240   25.4480   33.7570 N.am  278  PRO278     -0.2716
    113  CA        12.4850   24.5230   34.5280 C.3   278  PRO278      0.1536
    114  C         12.9120   23.0550   34.3730 C.2   278  PRO278      0.2599
    115  O         12.7140   22.2430   35.2850 O.2   278  PRO278     -0.2715
    116  CB        11.0940   24.7330   33.9300 C.3   278  PRO278      0.0310
    117  CG        11.2040   26.0010   33.0690 C.3   278  PRO278      0.0237
    118  CD        12.5960   26.0770   32.6380 C.3   278  PRO278      0.0939
    119  N         13.5110   22.7360   33.2280 N.am  279  ASP279     -0.1958
    120  CA        13.8340   21.3600   32.8680 C.3   279  ASP279      0.1840
    121  C         14.9830   20.7850   33.6830 C.2   279  ASP279      0.2621
    122  O         15.2200   19.5810   33.6520 O.2   279  ASP279     -0.2715
    123  CB        14.0830   21.2140   31.3470 C.3   279  ASP279      0.1450
    124  CG        15.0680   22.2620   30.7840 C.2   279  ASP279      0.3671
    125  OD1       15.3640   23.2760   31.4500 O.co2 279  ASP279     -0.2456
    126  OD2       15.5440   22.0710   29.6480 O.co2 279  ASP279     -0.2456
    127  N         15.6880   21.6350   34.4200 N.am  280  ILE280     -0.1977
    128  CA        16.7920   21.1570   35.2650 C.3   280  ILE280      0.1596
    129  C         16.6940   21.5990   36.7300 C.2   280  ILE280      0.2287
    130  O         17.5420   21.2320   37.5560 O.2   280  ILE280     -0.2864
    131  CB        18.2180   21.4950   34.6860 C.3   280  ILE280      0.0276
    132  CG1       18.3990   23.0050   34.4850 C.3   280  ILE280      0.0022
    133  CG2       18.5190   20.6810   33.4100 C.3   280  ILE280      0.0022
    134  CD1       19.8420   23.4510   34.2060 C.3   280  ILE280      0.0001
    135  N         22.3920   20.4160   38.8530 N.3   285  ILE285     -0.1231
    136  CA        23.4580   20.5200   37.8630 C.3   285  ILE285      0.1692
    137  C         23.5210   21.8680   37.1690 C.2   285  ILE285      0.2592
    138  O         24.3880   22.0600   36.3190 O.2   285  ILE285     -0.2718
    139  CB        23.4210   19.3890   36.7680 C.3   285  ILE285      0.0266
    140  CG1       22.1420   19.4650   35.9320 C.3   285  ILE285      0.0019
    141  CG2       23.6270   18.0340   37.4020 C.3   285  ILE285      0.0020
    142  CD1       22.1160   18.5150   34.7400 C.3   285  ILE285      0.0001
    143  N         22.6290   22.7930   37.5140 N.am  286  ALA286     -0.1966
    144  CA        22.6680   24.1320   36.8940 C.3   286  ALA286      0.1728
    145  C         24.0200   24.8340   37.0910 C.2   286  ALA286      0.2616
    146  O         24.6160   24.7560   38.1680 O.2   286  ALA286     -0.2715
    147  CB        21.5260   25.0030   37.3930 C.3   286  ALA286      0.0334
    148  N         24.5030   25.4940   36.0390 N.am  287  ASN287     -0.1972
    149  CA        25.7920   26.1960   36.0720 C.3   287  ASN287      0.1688
    150  C         25.6440   27.5170   36.8270 C.2   287  ASN287      0.2292
    151  O         24.9090   28.3980   36.3830 O.2   287  ASN287     -0.2864
    152  CB        26.2520   26.4500   34.6400 C.3   287  ASN287      0.1181
    153  CG        27.7010   26.9190   34.5380 C.2   287  ASN287      0.2629
    154  OD1       28.3020   27.4350   35.4930 O.2   287  ASN287     -0.2716
    155  ND2       28.2580   26.7630   33.3510 N.am  287  ASN287     -0.0877
    156  N         26.5960   21.5790   31.1580 N.3   327  ASP327     -0.1239
    157  CA        26.4210   22.4130   29.9610 C.3   327  ASP327      0.1674
    158  C         27.7460   22.7420   29.2950 C.2   327  ASP327      0.2266
    159  O         27.7590   23.2560   28.2010 O.2   327  ASP327     -0.2867
    160  CB        25.6530   23.7100   30.2410 C.3   327  ASP327      0.1410
    161  CG        26.2800   24.5220   31.3340 C.2   327  ASP327      0.3668
    162  OD1       26.5950   23.9240   32.3850 O.co2 327  ASP327     -0.2456
    163  OD2       26.4540   25.7480   31.1660 O.co2 327  ASP327     -0.2456
@<TRIPOS>BOND
     1    62    63    1
     2    74    73    1
     3    63    64    1
     4    63    66    1
     5    75    73    1
     6    73    72    1
     7    68    64   am
     8    68    69    1
     9    64    65    2
    10    66    67    1
    11   159   158    2
    12    72    69    1
    13    69    70    1
    14    85    84    1
    15   158   157    1
    16   126   124   ar
    17    70    76   am
    18    70    71    2
    19   157   160    1
    20   157   156    1
    21    84    86    1
    22    84    81    1
    23   160   161    1
    24    76    77    1
    25    83    82    2
    26    40    39    2
    27    43    42   ar
    28   124   123    1
    29   124   125   ar
    30    42    41    1
    31    42    44   ar
    32    41    38    1
    33    82    81    1
    34    82    87   am
    35   163   161   ar
    36    81    80    1
    37   161   162   ar
    38    88    87    1
    39    88    91    1
    40    88    89    1
    41   123   120    1
    42    39    38    1
    43    50    49    1
    44    50    51    1
    45    91    92    1
    46    77    78    1
    47    38    37    1
    48    97    89   am
    49    97    98    1
    50    49    46    1
    51    52    51   ar
    52    89    90    2
    53    51    53   ar
    54    78    79    2
    55    98    99    1
    56   118   117    1
    57   118   112    1
    58   120   119    1
    59   120   121    1
    60   117   116    1
    61    48    47    2
    62    92    94   ar
    63    92    93   ar
    64   108   111    1
    65   108   107    1
    66   108   109    1
    67   119   114   am
    68    46    47    1
    69    46    45    1
    70   155   153   am
    71   133   131    1
    72    31    34    1
    73    31    30    1
    74    31    32    1
    75    33    32    2
    76   107   103   am
    77    99   101   am
    78    99   100    2
    79   122   121    2
    80   121   127   am
    81    34    35    1
    82    29    28    2
    83   112   109   am
    84   112   113    1
    85    94    96   ar
    86   101   102    1
    87    30    28   am
    88    30    36    1
    89   116   113    1
    90   109   110    2
    91    28    27    1
    92    93    95   ar
    93   134   132    1
    94    61    59    1
    95    36    35    1
    96   114   113    1
    97   114   115    2
    98   127   128    1
    99   132   131    1
   100   153   152    1
   101   153   154    2
   102    27    26    1
   103   152   149    1
   104   131   128    1
   105    18    17    2
   106    26    24   am
   107   142   140    1
   108   103   102    1
   109   103   104    2
   110   102   105    1
   111    59    58    1
   112    59    60    1
   113    96    95   ar
   114   105   106    1
   115   128   129    1
   116    23    24    1
   117    23    22    1
   118    24    25    2
   119    58    55    1
   120    56    57    2
   121    56    55    1
   122    14    13    1
   123     8     6    1
   124    17    22   am
   125    17    16    1
   126   140   139    1
   127   148   149    1
   128   148   145   am
   129    21    19    1
   130   149   150    1
   131    55    54    1
   132   138   137    2
   133   151   150    2
   134    13    10    1
   135     6     5    1
   136   129   130    2
   137   139   141    1
   138   139   136    1
   139    15    16    1
   140    15    11   am
   141   144   145    1
   142   144   147    1
   143   144   143    1
   144    16    19    1
   145    19    20    1
   146   145   146    2
   147   137   143   am
   148   137   136    1
   149     7     5    1
   150    10    11    1
   151    10     9    1
   152    11    12    2
   153     5     2    1
   154   136   135    1
   155     1     2    1
   156     2     3    1
   157     3     4    2
