@<TRIPOS>MOLECULE
tmp/2y4aA00.pdb
 87 80 0 0 0
SMALL
GASTEIGER

@<TRIPOS>ATOM
      1  N         -1.2420   -6.3850   31.3540 N.3    48  ALA48      -0.1231
      2  CA        -1.1170   -5.2340   32.2610 C.3    48  ALA48       0.1694
      3  C         -0.0500   -5.5450   33.3420 C.2    48  ALA48       0.2592
      4  O          1.0430   -6.0170   33.0020 O.2    48  ALA48      -0.2718
      5  CB        -2.4730   -4.8590   32.8740 C.3    48  ALA48       0.0304
      6  N         -0.3620   -5.3320   34.6200 N.am   49  SER49      -0.1952
      7  CA         0.6320   -5.5460   35.6830 C.3    49  SER49       0.1924
      8  C          1.1560   -6.9790   35.9070 C.2    49  SER49       0.2314
      9  O          2.1470   -7.1270   36.6320 O.2    49  SER49      -0.2863
     10  CB         0.1640   -4.9770   37.0190 C.3    49  SER49       0.2116
     11  OG         0.2420   -3.5850   37.0120 O.3    49  SER49      -0.2180
     12  N          4.8990   -7.6360   35.6850 N.3    52  LYS52      -0.1245
     13  CA         5.7440   -7.6080   36.8870 C.3    52  LYS52       0.1561
     14  C          6.1920   -8.9970   37.3360 C.2    52  LYS52       0.2260
     15  O          7.3330   -9.1580   37.7590 O.2    52  LYS52      -0.2867
     16  CB         5.0760   -6.8520   38.0250 C.3    52  LYS52       0.0271
     17  CG         4.9910   -5.3960   37.7030 C.3    52  LYS52       0.0035
     18  CD         4.1120   -4.6310   38.6600 C.3    52  LYS52       0.0206
     19  CE         4.1640   -3.1450   38.3780 C.3    52  LYS52       0.1093
     20  NZ         3.2490   -2.7650   37.2690 N.3    52  LYS52      -0.1314
     21  N         -1.4540   10.1770   29.8700 N.3   142  ASP142     -0.1239
     22  CA        -1.2240    9.4980   31.1480 C.3   142  ASP142      0.1674
     23  C         -0.0730   10.0920   31.9290 C.2   142  ASP142      0.2266
     24  O          0.1380    9.7330   33.0930 O.2   142  ASP142     -0.2867
     25  CB        -0.8640    8.0410   30.9150 C.3   142  ASP142      0.1410
     26  CG        -2.0610    7.1590   30.7290 C.2   142  ASP142      0.3668
     27  OD1       -3.2230    7.5980   30.9100 O.co2 142  ASP142     -0.2456
     28  OD2       -1.8310    5.9880   30.3960 O.co2 142  ASP142     -0.2456
     29  N          1.8070    6.4760   38.1230 N.3   147  TYR147     -0.1241
     30  CA         2.1800    5.2020   37.4710 C.3   147  TYR147      0.1605
     31  C          2.8610    5.4510   36.1380 C.2   147  TYR147      0.2264
     32  O          3.4380    4.5330   35.5640 O.2   147  TYR147     -0.2867
     33  CB         0.9390    4.3300   37.2460 C.3   147  TYR147      0.0534
     34  CG        -0.0500    4.9760   36.3080 C.ar  147  TYR147     -0.0201
     35  CD1        0.0440    4.7870   34.9400 C.ar  147  TYR147     -0.0009
     36  CD2       -1.0610    5.7990   36.7930 C.ar  147  TYR147     -0.0009
     37  CE1       -0.8290    5.3810   34.0900 C.ar  147  TYR147      0.0417
     38  CE2       -1.9490    6.4020   35.9450 C.ar  147  TYR147      0.0417
     39  CZ        -1.8280    6.1890   34.5930 C.ar  147  TYR147      0.1957
     40  OH        -2.7050    6.8000   33.7290 O.3   147  TYR147     -0.2866
     41  N          2.0510   -2.5940   43.0650 N.3   298  SER298     -0.1217
     42  CA         2.1240   -2.5010   41.6090 C.3   298  SER298      0.1889
     43  C          2.8160   -1.2010   41.1910 C.2   298  SER298      0.2288
     44  O          2.2860   -0.4280   40.3960 O.2   298  SER298     -0.2866
     45  CB         0.7180   -2.5470   41.0060 C.3   298  SER298      0.2089
     46  OG         0.7260   -3.1720   39.7460 O.3   298  SER298     -0.2183
     47  N          4.9480    0.8610   39.0290 N.3   300  ASN300     -0.1240
     48  CA         5.4630    0.7970   37.6680 C.3   300  ASN300      0.1653
     49  C          6.9030    1.2910   37.6600 C.2   300  ASN300      0.2266
     50  O          7.8400    0.5590   37.2750 O.2   300  ASN300     -0.2867
     51  CB         4.6090    1.6330   36.7220 C.3   300  ASN300      0.1155
     52  CG         3.2510    1.0140   36.4310 C.2   300  ASN300      0.2627
     53  OD1        2.9570   -0.1540   36.7620 O.2   300  ASN300     -0.2716
     54  ND2        2.4110    1.7950   35.7710 N.am  300  ASN300     -0.0877
     55  N          6.9900   -3.0340   33.6830 N.3   347  SER347     -0.1202
     56  CA         5.7720   -2.8100   34.4740 C.3   347  SER347      0.2020
     57  C          4.5120   -3.4090   33.8810 C.2   347  SER347      0.2619
     58  O          3.6080   -3.7720   34.6010 O.2   347  SER347     -0.2717
     59  CB         5.5560   -1.3150   34.7130 C.3   347  SER347      0.2103
     60  OG         5.1360   -0.6700   33.5290 O.3   347  SER347     -0.2182
     61  N          4.4650   -3.5110   32.5680 N.am  348  GLY348     -0.1942
     62  CA         3.2740   -3.9720   31.9180 C.3   348  GLY348      0.2014
     63  C          2.3870   -2.8100   31.5560 C.2   348  GLY348      0.2638
     64  O          1.2470   -3.0100   31.1250 O.2   348  GLY348     -0.2714
     65  N          2.8920   -1.5900   31.7200 N.am  349  LEU349     -0.1977
     66  CA         2.0930   -0.4260   31.3710 C.3   349  LEU349      0.1596
     67  C          1.9310   -0.3600   29.8510 C.2   349  LEU349      0.2287
     68  O          0.9130    0.1250   29.3540 O.2   349  LEU349     -0.2864
     69  CB         2.7280    0.8540   31.8960 C.3   349  LEU349      0.0297
     70  CG         1.9430    2.1760   31.9430 C.3   349  LEU349      0.0022
     71  CD1        2.9060    3.3350   32.2040 C.3   349  LEU349      0.0001
     72  CD2        1.1360    2.4890   30.7030 C.3   349  LEU349      0.0001
     73  N         -4.4880   -4.5610   35.4800 N.3   413  THR413     -0.1203
     74  CA        -5.6780   -3.8180   35.0520 C.3   413  THR413      0.1994
     75  C         -5.4040   -2.5750   34.1940 C.2   413  THR413      0.2617
     76  O         -4.5850   -1.7200   34.5480 O.2   413  THR413     -0.2717
     77  CB        -6.5400   -3.4000   36.2940 C.3   413  THR413      0.1784
     78  OG1       -6.9570   -4.5790   37.0140 O.3   413  THR413     -0.2211
     79  CG2       -7.7670   -2.5740   35.8750 C.3   413  THR413      0.0376
     80  N         -6.1140   -2.5060   33.0710 N.am  414  MET414     -0.1979
     81  CA        -6.3290   -1.2690   32.3280 C.3   414  MET414      0.1605
     82  C         -7.5480   -1.4050   31.4060 C.2   414  MET414      0.2287
     83  O         -8.2380   -2.4370   31.4570 O.2   414  MET414     -0.2864
     84  CB        -5.0700   -0.8380   31.5620 C.3   414  MET414      0.0413
     85  CG        -4.4710   -1.8770   30.6420 C.3   414  MET414      0.0598
     86  SD        -2.9660   -1.2200   29.8790 S.3   414  MET414     -0.1393
     87  CE        -2.1670   -2.7410   29.4380 C.3   414  MET414      0.0692
@<TRIPOS>BOND
     1    68    67    2
     2    87    86    1
     3    67    66    1
     4    21    22    1
     5    86    85    1
     6    28    26   ar
     7    85    84    1
     8    72    70    1
     9    26    27   ar
    10    26    25    1
    11    25    22    1
    12    64    63    2
    13    22    23    1
    14     1     2    1
    15    66    65    1
    16    66    69    1
    17    82    83    2
    18    82    81    1
    19    63    65   am
    20    63    62    1
    21    84    81    1
    22    69    70    1
    23    62    61    1
    24    23    24    2
    25    70    71    1
    26     2     5    1
    27     2     3    1
    28    81    80    1
    29    61    57   am
    30     4     3    2
    31    80    75   am
    32     3     6   am
    33    60    59    1
    34    55    56    1
    35    40    39    1
    36    57    56    1
    37    57    58    2
    38    37    39   ar
    39    37    35   ar
    40    75    76    2
    41    75    74    1
    42    56    59    1
    43    39    38   ar
    44     6     7    1
    45    35    34   ar
    46    74    73    1
    47    74    77    1
    48    32    31    2
    49     7     8    1
    50     7    10    1
    51    12    13    1
    52    54    52   am
    53    79    77    1
    54     8     9    2
    55    38    36   ar
    56    31    30    1
    57    77    78    1
    58    34    36   ar
    59    34    33    1
    60    52    51    1
    61    52    53    2
    62    51    48    1
    63    13    14    1
    64    13    16    1
    65    11    10    1
    66    33    30    1
    67    20    19    1
    68    50    49    2
    69    14    15    2
    70    30    29    1
    71    49    48    1
    72    48    47    1
    73    17    16    1
    74    17    18    1
    75    19    18    1
    76    46    45    1
    77    44    43    2
    78    45    42    1
    79    43    42    1
    80    42    41    1
