@<TRIPOS>MOLECULE
tmp/2y4dB01.pdb
 187 173 0 0 0
SMALL
GASTEIGER

@<TRIPOS>ATOM
      1  N         34.8910   45.7600    8.5050 N.3   182  ASN182     -0.1240
      2  CA        33.5180   46.3040    8.2620 C.3   182  ASN182      0.1653
      3  C         33.3210   47.6910    8.8540 C.2   182  ASN182      0.2266
      4  O         34.2570   48.2430    9.4020 O.2   182  ASN182     -0.2867
      5  CB        32.4080   45.3180    8.7340 C.3   182  ASN182      0.1155
      6  CG        32.4870   45.0170   10.2160 C.2   182  ASN182      0.2627
      7  OD1       32.8080   45.8880   11.0200 O.2   182  ASN182     -0.2716
      8  ND2       32.1950   43.7580   10.5850 N.am  182  ASN182     -0.0877
      9  N         31.7330   48.6750   11.3460 N.3   184  LEU184     -0.1245
     10  CA        31.7760   48.7040   12.8150 C.3   184  LEU184      0.1561
     11  C         33.2140   48.6100   13.3210 C.2   184  LEU184      0.2260
     12  O         33.4570   48.6450   14.5380 O.2   184  LEU184     -0.2867
     13  CB        30.9180   47.5910   13.4120 C.3   184  LEU184      0.0270
     14  CG        29.4470   47.6380   12.9550 C.3   184  LEU184      0.0019
     15  CD1       28.6970   46.4870   13.5920 C.3   184  LEU184      0.0001
     16  CD2       28.7640   48.9700   13.3420 C.3   184  LEU184      0.0001
     17  N         36.0720   41.1140    9.1750 N.3   188  ASP188     -0.1239
     18  CA        34.8450   40.5280    8.6360 C.3   188  ASP188      0.1674
     19  C         35.0970   39.2030    7.8880 C.2   188  ASP188      0.2266
     20  O         35.6810   39.1970    6.8040 O.2   188  ASP188     -0.2867
     21  CB        34.1990   41.5660    7.6970 C.3   188  ASP188      0.1410
     22  CG        32.6970   41.3820    7.5310 C.2   188  ASP188      0.3668
     23  OD1       31.9680   41.3250    8.5630 O.co2 188  ASP188     -0.2456
     24  OD2       32.2480   41.3470    6.3510 O.co2 188  ASP188     -0.2456
     25  N         36.5730   33.7190   10.3790 N.3   191  ALA191     -0.1245
     26  CA        36.3620   32.2790   10.5500 C.3   191  ALA191      0.1562
     27  C         35.8880   31.5760    9.2660 C.2   191  ALA191      0.2260
     28  O         35.4840   30.4180    9.3110 O.2   191  ALA191     -0.2867
     29  CB        35.3890   32.0180   11.7040 C.3   191  ALA191      0.0290
     30  N         21.9690   44.9030    5.3950 N.3   228  ILE228     -0.1245
     31  CA        21.9780   45.1200    6.8380 C.3   228  ILE228      0.1561
     32  C         22.4470   46.5460    7.1850 C.2   228  ILE228      0.2260
     33  O         23.6300   46.8830    6.9690 O.2   228  ILE228     -0.2867
     34  CB        22.8820   44.0370    7.5380 C.3   228  ILE228      0.0252
     35  CG1       22.4500   42.6070    7.1510 C.3   228  ILE228      0.0019
     36  CG2       22.8670   44.2060    9.0660 C.3   228  ILE228      0.0019
     37  CD1       23.2570   41.4650    7.8730 C.3   228  ILE228      0.0001
     38  N         23.5420   49.5730    9.6780 N.3   230  PHE230     -0.1241
     39  CA        24.1820   49.7170   10.9920 C.3   230  PHE230      0.1605
     40  C         23.8030   51.0410   11.6090 C.2   230  PHE230      0.2264
     41  O         23.8010   52.0890   10.9300 O.2   230  PHE230     -0.2867
     42  CB        25.7170   49.6970   10.9270 C.3   230  PHE230      0.0534
     43  CG        26.3110   48.4210   10.4010 C.ar  230  PHE230     -0.0203
     44  CD1       25.5730   47.2480   10.3520 C.ar  230  PHE230     -0.0042
     45  CD2       27.6500   48.3970    9.9810 C.ar  230  PHE230     -0.0042
     46  CE1       26.1150   46.0880    9.8650 C.ar  230  PHE230     -0.0003
     47  CE2       28.2240   47.2080    9.4770 C.ar  230  PHE230     -0.0003
     48  CZ        27.4440   46.0480    9.4290 C.ar  230  PHE230     -0.0000
     49  N         30.8890   41.3400   19.8800 N.3   247  PHE247     -0.1241
     50  CA        31.4650   40.4580   18.8510 C.3   247  PHE247      0.1605
     51  C         32.1010   39.1890   19.4060 C.2   247  PHE247      0.2264
     52  O         32.2300   38.1900   18.7010 O.2   247  PHE247     -0.2867
     53  CB        32.4410   41.2170   17.9250 C.3   247  PHE247      0.0534
     54  CG        31.7410   41.9450   16.7570 C.ar  247  PHE247     -0.0203
     55  CD1       31.2440   41.2420   15.6690 C.ar  247  PHE247     -0.0042
     56  CD2       31.5800   43.3140   16.7850 C.ar  247  PHE247     -0.0042
     57  CE1       30.5810   41.9000   14.6290 C.ar  247  PHE247     -0.0003
     58  CE2       30.9420   44.0050   15.7340 C.ar  247  PHE247     -0.0003
     59  CZ        30.4400   43.3130   14.6620 C.ar  247  PHE247     -0.0000
     60  N         28.3610   37.4150   18.9110 N.3   282  HIS282     -0.1226
     61  CA        28.2250   36.9660   17.5250 C.3   282  HIS282      0.1752
     62  C         29.0230   35.6740   17.2450 C.2   282  HIS282      0.2595
     63  O         28.5000   34.7370   16.6550 O.2   282  HIS282     -0.2718
     64  CB        28.6420   38.1040   16.5730 C.3   282  HIS282      0.0759
     65  CG        28.1670   37.9180   15.1650 C.ar  282  HIS282      0.0818
     66  ND1       26.8400   38.0240   14.8080 N.ar  282  HIS282     -0.2268
     67  CD2       28.8430   37.6290   14.0250 C.ar  282  HIS282      0.1154
     68  CE1       26.7150   37.8030   13.5090 C.ar  282  HIS282      0.1986
     69  NE2       27.9180   37.5710   13.0100 N.ar  282  HIS282     -0.2212
     70  N         30.2840   35.6180   17.6780 N.am  283  ILE283     -0.1980
     71  CA        31.1440   34.4520   17.4460 C.3   283  ILE283      0.1595
     72  C         30.5620   33.1760   18.0980 C.2   283  ILE283      0.2287
     73  O         30.5590   32.1010   17.4890 O.2   283  ILE283     -0.2864
     74  CB        32.6070   34.7300   17.9330 C.3   283  ILE283      0.0276
     75  CG1       33.5560   33.5950   17.5470 C.3   283  ILE283      0.0022
     76  CG2       32.6760   34.9490   19.4720 C.3   283  ILE283      0.0022
     77  CD1       35.0050   33.8470   17.9670 C.3   283  ILE283      0.0001
     78  N         26.8440   31.8790   16.9730 N.3   286  ALA286     -0.1231
     79  CA        26.9510   31.3520   15.6050 C.3   286  ALA286      0.1694
     80  C         27.4830   29.9190   15.5530 C.2   286  ALA286      0.2592
     81  O         26.9670   29.0970   14.7770 O.2   286  ALA286     -0.2718
     82  CB        27.8060   32.2650   14.7350 C.3   286  ALA286      0.0304
     83  N         28.4990   29.6450   16.3880 N.am  287  ASN287     -0.1974
     84  CA        29.2850   28.3970   16.4130 C.3   287  ASN287      0.1688
     85  C         29.1900   27.7180   17.7940 C.2   287  ASN287      0.2292
     86  O         29.7070   28.2460   18.7790 O.2   287  ASN287     -0.2864
     87  CB        30.7890   28.6840   16.1630 C.3   287  ASN287      0.1181
     88  CG        31.0880   29.2850   14.7780 C.2   287  ASN287      0.2629
     89  OD1       31.0800   28.5810   13.7640 O.2   287  ASN287     -0.2716
     90  ND2       31.4140   30.5760   14.7480 N.am  287  ASN287     -0.0877
     91  N         29.6570   27.7500    6.0100 N.3   294  MET294     -0.1245
     92  CA        29.2610   28.4300    4.7660 C.3   294  MET294      0.1570
     93  C         30.3650   29.3950    4.4150 C.2   294  MET294      0.2261
     94  O         31.1550   29.7790    5.2880 O.2   294  MET294     -0.2867
     95  CB        27.9170   29.1780    4.9200 C.3   294  MET294      0.0387
     96  CG        27.9470   30.4070    5.8220 C.3   294  MET294      0.0595
     97  SD        26.3220   30.8540    6.5570 S.3   294  MET294     -0.1393
     98  CE        26.7900   32.3910    7.3060 C.3   294  MET294      0.0692
     99  N         31.2610   33.0880    3.4620 N.3   296  ARG296     -0.1245
    100  CA        30.8150   34.4740    3.4620 C.3   296  ARG296      0.1563
    101  C         31.6850   35.3270    2.5510 C.2   296  ARG296      0.2260
    102  O         32.9030   35.1750    2.5030 O.2   296  ARG296     -0.2867
    103  CB        30.7990   35.0670    4.8960 C.3   296  ARG296      0.0307
    104  CG        29.6350   34.5930    5.7270 C.3   296  ARG296      0.0489
    105  CD        29.7990   35.0050    7.2010 C.3   296  ARG296      0.2205
    106  NE        30.9420   34.3340    7.8090 N.pl3 296  ARG296     -0.0865
    107  CZ        31.5990   34.7520    8.8830 C.cat 296  ARG296      0.5346
    108  NH1       31.2330   35.8730    9.5020 N.pl3 296  ARG296      0.1354
    109  NH2       32.6330   34.0460    9.3370 N.pl3 296  ARG296      0.1354
    110  N         26.2270   46.6630    5.7620 N.3   315  LEU315     -0.1245
    111  CA        26.8370   45.5000    5.1720 C.3   315  LEU315      0.1561
    112  C         25.9190   44.8890    4.1120 C.2   315  LEU315      0.2260
    113  O         24.7220   44.6610    4.3620 O.2   315  LEU315     -0.2867
    114  CB        27.1170   44.4430    6.2570 C.3   315  LEU315      0.0270
    115  CG        27.8500   43.1850    5.7740 C.3   315  LEU315      0.0019
    116  CD1       29.2980   43.5580    5.3520 C.3   315  LEU315      0.0001
    117  CD2       27.8260   42.1160    6.8650 C.3   315  LEU315      0.0001
    118  N         25.5910   41.5820    2.9870 N.3   317  PHE317     -0.1241
    119  CA        25.9640   40.2260    3.3850 C.3   317  PHE317      0.1605
    120  C         25.5970   39.2400    2.2750 C.2   317  PHE317      0.2264
    121  O         24.4750   39.2470    1.7850 O.2   317  PHE317     -0.2867
    122  CB        25.2390   39.8470    4.6900 C.3   317  PHE317      0.0534
    123  CG        25.4670   38.4150    5.1290 C.ar  317  PHE317     -0.0203
    124  CD1       24.6540   37.3920    4.6560 C.ar  317  PHE317     -0.0042
    125  CD2       26.5080   38.1040    6.0050 C.ar  317  PHE317     -0.0042
    126  CE1       24.8720   36.0560    5.0570 C.ar  317  PHE317     -0.0003
    127  CE2       26.7310   36.7990    6.4180 C.ar  317  PHE317     -0.0003
    128  CZ        25.9000   35.7660    5.9380 C.ar  317  PHE317     -0.0000
    129  N         22.6770   28.9850    6.0250 N.3   328  PHE328     -0.1241
    130  CA        22.1060   30.2670    6.5100 C.3   328  PHE328      0.1605
    131  C         20.9040   30.1580    7.4340 C.2   328  PHE328      0.2264
    132  O         20.8600   30.8400    8.4690 O.2   328  PHE328     -0.2867
    133  CB        21.7760   31.2770    5.3780 C.3   328  PHE328      0.0534
    134  CG        21.3480   32.6300    5.9080 C.ar  328  PHE328     -0.0203
    135  CD1       22.2930   33.5320    6.3880 C.ar  328  PHE328     -0.0042
    136  CD2       20.0030   32.9660    5.9970 C.ar  328  PHE328     -0.0042
    137  CE1       21.8830   34.7780    6.9400 C.ar  328  PHE328     -0.0003
    138  CE2       19.5930   34.1860    6.5230 C.ar  328  PHE328     -0.0003
    139  CZ        20.5290   35.1050    6.9930 C.ar  328  PHE328     -0.0000
    140  N         22.1190   28.9120   10.8820 N.3   331  VAL331     -0.1231
    141  CA        22.9390   29.9020   11.5870 C.3   331  VAL331      0.1692
    142  C         22.1750   31.1560   12.0070 C.2   331  VAL331      0.2591
    143  O         22.3060   31.5940   13.1720 O.2   331  VAL331     -0.2718
    144  CB        24.2300   30.2560   10.8110 C.3   331  VAL331      0.0266
    145  CG1       25.1200   31.2270   11.6310 C.3   331  VAL331      0.0020
    146  CG2       25.0210   28.9830   10.4670 C.3   331  VAL331      0.0020
    147  N         21.3610   31.7340   11.1130 N.am  332  GLN332     -0.1979
    148  CA        20.5600   32.8940   11.5130 C.3   332  GLN332      0.1601
    149  C         19.5620   32.5320   12.6200 C.2   332  GLN332      0.2287
    150  O         19.2930   33.3480   13.5070 O.2   332  GLN332     -0.2864
    151  CB        19.8900   33.6170   10.3230 C.3   332  GLN332      0.0394
    152  CG        19.1170   34.9060   10.6830 C.3   332  GLN332      0.0908
    153  CD        19.9600   35.9930   11.3470 C.2   332  GLN332      0.2608
    154  OE1       21.0860   36.2860   10.9290 O.2   332  GLN332     -0.2717
    155  NE2       19.4110   36.5950   12.4020 N.am  332  GLN332     -0.0878
    156  N         21.2100   32.7230   15.8580 N.3   335  LEU335     -0.1245
    157  CA        21.5540   34.1040   16.2030 C.3   335  LEU335      0.1561
    158  C         20.3860   34.9660   16.6970 C.2   335  LEU335      0.2260
    159  O         20.6030   36.1010   17.1210 O.2   335  LEU335     -0.2867
    160  CB        22.3050   34.7640   15.0330 C.3   335  LEU335      0.0270
    161  CG        23.7500   34.2940   14.7730 C.3   335  LEU335      0.0019
    162  CD1       24.2270   34.7950   13.4230 C.3   335  LEU335      0.0001
    163  CD2       24.7300   34.7450   15.8600 C.3   335  LEU335      0.0001
    164  N         20.7250   37.8530   19.4930 N.3   338  GLU338     -0.1245
    165  CA        22.1340   38.1610   19.8040 C.3   338  GLU338      0.1567
    166  C         22.2740   39.6240   20.2020 C.2   338  GLU338      0.2260
    167  O         21.4400   40.4580   19.8140 O.2   338  GLU338     -0.2867
    168  CB        23.0480   37.8340   18.6070 C.3   338  GLU338      0.0388
    169  CG        22.9290   38.8340   17.4310 C.3   338  GLU338      0.1160
    170  CD        23.8420   38.4720   16.2410 C.2   338  GLU338      0.3649
    171  OE1       25.0650   38.2800   16.4780 O.co2 338  GLU338     -0.2457
    172  OE2       23.3460   38.3920   15.0770 O.co2 338  GLU338     -0.2457
    173  N         24.1920   41.9120   19.2280 N.3   340  LEU340     -0.1245
    174  CA        24.4280   42.8170   18.0830 C.3   340  LEU340      0.1561
    175  C         23.1270   43.3460   17.4920 C.2   340  LEU340      0.2260
    176  O         23.1220   44.3940   16.8250 O.2   340  LEU340     -0.2867
    177  CB        25.2560   42.0940   17.0260 C.3   340  LEU340      0.0270
    178  CG        25.7030   42.8640   15.7840 C.3   340  LEU340      0.0019
    179  CD1       26.7130   43.9310   16.1790 C.3   340  LEU340      0.0001
    180  CD2       26.2800   41.8190   14.8560 C.3   340  LEU340      0.0001
    181  N         22.1470   46.5430   14.6350 N.3   344  VAL344     -0.1245
    182  CA        21.9800   46.2070   13.1930 C.3   344  VAL344      0.1561
    183  C         20.5050   46.0010   12.8460 C.2   344  VAL344      0.2260
    184  O         19.7170   45.6440   13.7000 O.2   344  VAL344     -0.2867
    185  CB        22.7990   44.9720   12.7610 C.3   344  VAL344      0.0252
    186  CG1       24.2800   45.1500   13.0770 C.3   344  VAL344      0.0019
    187  CG2       22.2490   43.6640   13.3860 C.3   344  VAL344      0.0019
@<TRIPOS>BOND
     1   121   120    2
     2   120   119    1
     3   102   101    2
     4   101   100    1
     5   118   119    1
     6   119   122    1
     7    99   100    1
     8   100   103    1
     9   112   113    2
    10   112   111    1
    11    93    92    1
    12    93    94    2
    13   124   126   ar
    14   124   123   ar
    15   122   123    1
    16    92    95    1
    17    92    91    1
    18   103   104    1
    19    95    96    1
    20   126   128   ar
    21   123   125   ar
    22   111   110    1
    23   111   114    1
    24   116   115    1
    25   133   134    1
    26   133   130    1
    27    30    31    1
    28   104   105    1
    29   115   114    1
    30   115   117    1
    31    96    97    1
    32   134   136   ar
    33   134   135   ar
    34   128   127   ar
    35   136   138   ar
    36   125   127   ar
    37   129   130    1
    38    24    22   ar
    39   135   137   ar
    40   130   131    1
    41   138   139   ar
    42    97    98    1
    43    20    19    2
    44    31    32    1
    45    31    34    1
    46   137   139   ar
    47    33    32    2
    48    35    34    1
    49    35    37    1
    50   105   106    1
    51   131   132    2
    52    22    21    1
    53    22    23   ar
    54    34    36    1
    55    21    18    1
    56   106   107    2
    57    19    18    1
    58     2     1    1
    59     2     5    1
    60     2     3    1
    61    18    17    1
    62     5     6    1
    63     3     4    2
    64   107   109    1
    65   107   108    1
    66    27    28    2
    67    27    26    1
    68    48    47   ar
    69    48    46   ar
    70    47    45   ar
    71    38    39    1
    72    46    44   ar
    73    45    43   ar
    74     6     8   am
    75     6     7    2
    76   151   152    1
    77   151   148    1
    78    44    43   ar
    79    25    26    1
    80    43    42    1
    81   146   144    1
    82    26    29    1
    83   152   153    1
    84   144   141    1
    85   144   145    1
    86   140   141    1
    87    42    39    1
    88   154   153    2
    89    41    40    2
    90    39    40    1
    91   147   148    1
    92   147   142   am
    93     9    10    1
    94   153   155   am
    95   148   149    1
    96   141   142    1
    97   142   143    2
    98   149   150    2
    99   185   186    1
   100   185   182    1
   101   185   187    1
   102    10    11    1
   103    10    13    1
   104   183   182    1
   105   183   184    2
   106    14    16    1
   107    14    13    1
   108    14    15    1
   109    69    68   ar
   110    69    67   ar
   111   182   181    1
   112    11    12    2
   113   162   161    1
   114    68    66   ar
   115    89    88    2
   116    67    65   ar
   117    57    59   ar
   118    57    55   ar
   119    59    58   ar
   120    82    79    1
   121    90    88   am
   122   161   160    1
   123   161   163    1
   124    81    80    2
   125    88    87    1
   126    66    65   ar
   127   180   178    1
   128   160   157    1
   129   172   170   ar
   130    65    64    1
   131    80    79    1
   132    80    83   am
   133    79    78    1
   134    55    54   ar
   135    58    56   ar
   136   178   179    1
   137   178   177    1
   138   156   157    1
   139    87    84    1
   140   157   158    1
   141   170   171   ar
   142   170   169    1
   143    83    84    1
   144    84    85    1
   145    64    61    1
   146    63    62    2
   147   158   159    2
   148    54    56   ar
   149    54    53    1
   150   176   175    2
   151   177   174    1
   152    62    61    1
   153    62    70   am
   154   169   168    1
   155    71    70    1
   156    71    74    1
   157    71    72    1
   158    73    72    2
   159   175   174    1
   160    61    60    1
   161    75    74    1
   162    75    77    1
   163    85    86    2
   164    53    50    1
   165    74    76    1
   166   174   173    1
   167   168   165    1
   168    52    51    2
   169    50    51    1
   170    50    49    1
   171   164   165    1
   172   165   166    1
   173   167   166    2
