@<TRIPOS>MOLECULE
tmp/2y4eA02.pdb
 95 90 0 0 0
SMALL
GASTEIGER

@<TRIPOS>ATOM
      1  N        -22.2950  -27.6170    9.5970 N.3    39  ASP39      -0.1225
      2  CA       -21.6790  -28.7230   10.3220 C.3    39  ASP39       0.1805
      3  C        -22.6010  -29.1080   11.4880 C.2    39  ASP39       0.2598
      4  O        -23.2450  -28.2330   12.1020 O.2    39  ASP39      -0.2718
      5  CB       -20.3010  -28.3100   10.8500 C.3    39  ASP39       0.1424
      6  CG       -19.3930  -27.7440    9.7610 C.2    39  ASP39       0.3668
      7  OD1      -19.2140  -28.3720    8.6920 O.co2  39  ASP39      -0.2456
      8  OD2      -18.8580  -26.6460    9.9900 O.co2  39  ASP39      -0.2456
      9  N        -22.6910  -30.3970   11.8010 N.am   40  VAL40      -0.1966
     10  CA       -23.5240  -30.7980   12.9490 C.3    40  VAL40       0.1727
     11  C        -22.7270  -30.8240   14.2620 C.2    40  VAL40       0.2616
     12  O        -21.6580  -31.4210   14.3440 O.2    40  VAL40      -0.2715
     13  CB       -24.2770  -32.1270   12.6650 C.3    40  VAL40       0.0290
     14  CG1      -24.9920  -32.6170   13.9080 C.3    40  VAL40       0.0023
     15  CG2      -25.3120  -31.9190   11.5320 C.3    40  VAL40       0.0023
     16  N        -23.2250  -30.1420   15.2810 N.am   41  LEU41      -0.1977
     17  CA       -22.4970  -30.0470   16.5570 C.3    41  LEU41       0.1596
     18  C        -23.0550  -30.9610   17.6300 C.2    41  LEU41       0.2287
     19  O        -22.6690  -30.8690   18.8020 O.2    41  LEU41      -0.2864
     20  CB       -22.4700  -28.6070   17.0660 C.3    41  LEU41       0.0297
     21  CG       -22.0260  -27.5380   16.0710 C.3    41  LEU41       0.0022
     22  CD1      -22.0640  -26.1790   16.7360 C.3    41  LEU41       0.0001
     23  CD2      -20.6270  -27.8270   15.4850 C.3    41  LEU41       0.0001
     24  N        -22.9530  -37.2720    3.1580 N.3   101  HIS101     -0.1226
     25  CA       -22.1090  -38.4610    3.4360 C.3   101  HIS101      0.1752
     26  C        -21.4870  -38.4710    4.8400 C.2   101  HIS101      0.2596
     27  O        -21.4440  -39.5060    5.4880 O.2   101  HIS101     -0.2718
     28  CB       -21.0050  -38.5770    2.3670 C.3   101  HIS101      0.0759
     29  CG       -20.1340  -39.7920    2.5020 C.ar  101  HIS101      0.0818
     30  ND1      -18.9990  -39.8120    3.2820 N.ar  101  HIS101     -0.2268
     31  CD2      -20.2150  -41.0150    1.9320 C.ar  101  HIS101      0.1154
     32  CE1      -18.4210  -40.9950    3.1920 C.ar  101  HIS101      0.1986
     33  NE2      -19.1460  -41.7460    2.3860 N.ar  101  HIS101     -0.2212
     34  N        -21.0270  -37.3170    5.3150 N.am  102  SER102     -0.1952
     35  CA       -20.3140  -37.2650    6.5840 C.3   102  SER102      0.1924
     36  C        -21.1950  -37.5190    7.7850 C.2   102  SER102      0.2314
     37  O        -20.6880  -37.8260    8.8620 O.2   102  SER102     -0.2863
     38  CB       -19.5950  -35.9270    6.7530 C.3   102  SER102      0.2116
     39  OG       -20.5070  -34.8440    6.7340 O.3   102  SER102     -0.2180
     40  N        -20.9330  -41.0020    9.4600 N.3   105  ASP105     -0.1225
     41  CA       -19.6730  -41.4400   10.0170 C.3   105  ASP105      0.1805
     42  C        -19.8250  -42.0920   11.4060 C.2   105  ASP105      0.2598
     43  O        -20.9040  -42.5740   11.7600 O.2   105  ASP105     -0.2718
     44  CB       -18.5980  -40.3410    9.9390 C.3   105  ASP105      0.1424
     45  CG       -18.8390  -39.1560   10.8790 C.2   105  ASP105      0.3668
     46  OD1      -19.7970  -39.0980   11.6900 O.co2 105  ASP105     -0.2456
     47  OD2      -18.0080  -38.2430   10.7850 O.co2 105  ASP105     -0.2456
     48  N        -18.7500  -42.1330   12.1760 N.am  106  GLU106     -0.1965
     49  CA       -18.7380  -42.9100   13.4130 C.3   106  GLU106      0.1733
     50  C        -19.4970  -42.2370   14.5490 C.2   106  GLU106      0.2616
     51  O        -19.7920  -42.8720   15.5710 O.2   106  GLU106     -0.2715
     52  CB       -17.3000  -43.2390   13.8290 C.3   106  GLU106      0.0429
     53  CG       -16.4110  -42.0080   14.0350 C.3   106  GLU106      0.1163
     54  CD       -16.0560  -41.2550   12.7380 C.2   106  GLU106      0.3649
     55  OE1      -16.1320  -41.8500   11.6290 O.co2 106  GLU106     -0.2457
     56  OE2      -15.6920  -40.0560   12.8370 O.co2 106  GLU106     -0.2457
     57  N        -19.8140  -40.9550   14.3720 N.am  107  ARG107     -0.1977
     58  CA       -20.4750  -40.1710   15.4020 C.3   107  ARG107      0.1597
     59  C        -21.8300  -40.7180   15.8650 C.2   107  ARG107      0.2287
     60  O        -22.1070  -40.7820   17.0580 O.2   107  ARG107     -0.2864
     61  CB       -20.6570  -38.7180   14.9360 C.3   107  ARG107      0.0334
     62  CG       -19.3980  -37.8450   15.0240 C.3   107  ARG107      0.0492
     63  CD       -19.6290  -36.4830   14.3200 C.3   107  ARG107      0.2205
     64  NE       -19.8970  -36.6810   12.8900 N.pl3 107  ARG107     -0.0865
     65  CZ       -20.3230  -35.7340   12.0600 C.cat 107  ARG107      0.5346
     66  NH1      -20.5420  -34.4970   12.5140 N.pl3 107  ARG107      0.1354
     67  NH2      -20.5090  -36.0340   10.7780 N.pl3 107  ARG107      0.1354
     68  N        -19.1750  -38.5420   -0.8950 N.3   120  LYS120     -0.1245
     69  CA       -18.5880  -37.1930   -0.9400 C.3   120  LYS120      0.1561
     70  C        -18.4170  -36.7950   -2.3800 C.2   120  LYS120      0.2260
     71  O        -17.9930  -37.6000   -3.1850 O.2   120  LYS120     -0.2867
     72  CB       -17.1890  -37.1970   -0.3390 C.3   120  LYS120      0.0271
     73  CG       -17.0550  -36.6870    1.0790 C.3   120  LYS120      0.0035
     74  CD       -15.6260  -36.8910    1.5620 C.3   120  LYS120      0.0206
     75  CE       -14.7190  -35.7660    1.1330 C.3   120  LYS120      0.1093
     76  NZ       -14.9160  -34.6610    2.0940 N.3   120  LYS120     -0.1314
     77  N        -22.6590  -31.7290    6.6820 N.3   137  ASP137     -0.1239
     78  CA       -23.3920  -32.8130    7.3130 C.3   137  ASP137      0.1674
     79  C        -24.8730  -32.7520    6.9170 C.2   137  ASP137      0.2266
     80  O        -25.4860  -33.7850    6.5410 O.2   137  ASP137     -0.2867
     81  CB       -23.2860  -32.7040    8.8320 C.3   137  ASP137      0.1410
     82  CG       -21.9810  -33.2680    9.3910 C.2   137  ASP137      0.3668
     83  OD1      -21.4090  -34.1990    8.8080 O.co2 137  ASP137     -0.2456
     84  OD2      -21.5510  -32.7890   10.4460 O.co2 137  ASP137     -0.2456
     85  N        -21.7390  -23.6330    7.5790 N.3   168  ARG168     -0.1245
     86  CA       -20.5430  -24.0200    6.8170 C.3   168  ARG168      0.1563
     87  C        -20.4000  -23.0860    5.6420 C.2   168  ARG168      0.2260
     88  O        -19.4800  -22.2610    5.6060 O.2   168  ARG168     -0.2867
     89  CB       -20.6780  -25.4540    6.3070 C.3   168  ARG168      0.0307
     90  CG       -19.4000  -26.0750    5.7960 C.3   168  ARG168      0.0489
     91  CD       -19.6360  -27.4900    5.3440 C.3   168  ARG168      0.2205
     92  NE       -18.4640  -28.0680    4.6910 N.pl3 168  ARG168     -0.0865
     93  CZ       -17.4540  -28.7030    5.3090 C.cat 168  ARG168      0.5346
     94  NH1      -17.4260  -28.8550    6.6320 N.pl3 168  ARG168      0.1354
     95  NH2      -16.4490  -29.1840    4.5840 N.pl3 168  ARG168      0.1354
@<TRIPOS>BOND
     1    71    70    2
     2    70    69    1
     3    69    68    1
     4    69    72    1
     5    72    73    1
     6    73    74    1
     7    75    74    1
     8    75    76    1
     9    31    33   ar
    10    31    29   ar
    11    28    29    1
    12    28    25    1
    13    33    32   ar
    14    29    30   ar
    15    24    25    1
    16    32    30   ar
    17    25    26    1
    18    95    93    1
    19    92    93    2
    20    92    91    1
    21    26    34   am
    22    26    27    2
    23    93    94    1
    24    34    35    1
    25    91    90    1
    26    88    87    2
    27    87    86    1
    28    90    89    1
    29    89    86    1
    30    80    79    2
    31    35    38    1
    32    35    36    1
    33    77    78    1
    34    39    38    1
    35    86    85    1
    36    79    78    1
    37    78    81    1
    38    36    37    2
    39     7     6   ar
    40    83    82   ar
    41    81    82    1
    42    82    84   ar
    43    40    41    1
    44     1     2    1
    45     6     8   ar
    46     6     5    1
    47    44    41    1
    48    44    45    1
    49    41    42    1
    50     2     5    1
    51     2     3    1
    52    67    65    1
    53    47    45   ar
    54    45    46   ar
    55    42    43    2
    56    42    48   am
    57     3     9   am
    58     3     4    2
    59    15    13    1
    60    55    54   ar
    61     9    10    1
    62    65    66    1
    63    65    64    2
    64    48    49    1
    65    13    10    1
    66    13    14    1
    67    54    56   ar
    68    54    53    1
    69    64    63    1
    70    10    11    1
    71    49    52    1
    72    49    50    1
    73    52    53    1
    74    11    12    2
    75    11    16   am
    76    63    62    1
    77    57    50   am
    78    57    58    1
    79    50    51    2
    80    61    62    1
    81    61    58    1
    82    16    17    1
    83    58    59    1
    84    23    21    1
    85    59    60    2
    86    21    22    1
    87    21    20    1
    88    17    20    1
    89    17    18    1
    90    18    19    2
