@<TRIPOS>MOLECULE
tmp/2y4gB01.pdb
 185 171 0 0 0
SMALL
GASTEIGER

@<TRIPOS>ATOM
      1  N         19.9970  -10.1910  -14.6920 N.3    22  ASN22      -0.1225
      2  CA        19.7960  -11.0380  -13.5040 C.3    22  ASN22       0.1785
      3  C         21.1030  -11.1270  -12.7270 C.2    22  ASN22       0.2597
      4  O         22.0610  -11.7660  -13.1660 O.2    22  ASN22      -0.2718
      5  CB        19.3500  -12.4110  -14.0140 C.3    22  ASN22       0.1169
      6  CG        18.9610  -13.4110  -12.8900 C.2    22  ASN22       0.2627
      7  OD1       19.4600  -13.3560  -11.7440 O.2    22  ASN22      -0.2716
      8  ND2       18.0960  -14.3610  -13.2510 N.am   22  ASN22      -0.0877
      9  N         21.1830  -10.4730  -11.5860 N.am   23  LEU23      -0.1980
     10  CA        22.4740  -10.2700  -10.9370 C.3    23  LEU23       0.1596
     11  C         22.9650  -11.5190  -10.1940 C.2    23  LEU23       0.2287
     12  O         24.1210  -11.5500   -9.7370 O.2    23  LEU23      -0.2864
     13  CB        22.4240   -9.0680   -9.9620 C.3    23  LEU23       0.0297
     14  CG        22.3350   -7.6070  -10.4250 C.3    23  LEU23       0.0022
     15  CD1       22.4370   -6.5470   -9.2170 C.3    23  LEU23       0.0001
     16  CD2       23.3940   -7.2770  -11.4910 C.3    23  LEU23       0.0001
     17  N         15.8110  -15.4280  -16.7580 N.3    64  TYR64      -0.1241
     18  CA        15.6300  -15.7510  -15.3340 C.3    64  TYR64       0.1605
     19  C         16.5130  -16.8860  -14.8300 C.2    64  TYR64       0.2264
     20  O         16.5400  -17.1310  -13.5960 O.2    64  TYR64      -0.2867
     21  CB        14.1580  -16.0940  -15.0420 C.3    64  TYR64       0.0534
     22  CG        13.2960  -14.8560  -14.9770 C.ar   64  TYR64      -0.0201
     23  CD1       13.6350  -13.7860  -14.1260 C.ar   64  TYR64      -0.0009
     24  CD2       12.1610  -14.7370  -15.7570 C.ar   64  TYR64      -0.0009
     25  CE1       12.8550  -12.6480  -14.0580 C.ar   64  TYR64       0.0417
     26  CE2       11.3710  -13.5950  -15.7060 C.ar   64  TYR64       0.0417
     27  CZ        11.7300  -12.5370  -14.8680 C.ar   64  TYR64       0.1957
     28  OH        10.8920  -11.3830  -14.8230 O.3    64  TYR64      -0.2866
     29  N          5.6390   -8.5140  -24.1260 N.3   120  GLY120     -0.1210
     30  CA         5.7650   -8.3620  -22.7100 C.3   120  GLY120      0.1956
     31  C          5.4900   -6.9180  -22.2340 C.2   120  GLY120      0.2612
     32  O          5.4800   -5.9430  -23.0380 O.2   120  GLY120     -0.2717
     33  N          5.3370   -6.8040  -20.9140 N.am  121  ALA121     -0.1965
     34  CA         5.0710   -5.5280  -20.2440 C.3   121  ALA121      0.1728
     35  C          6.3560   -4.7160  -20.0200 C.2   121  ALA121      0.2616
     36  O          6.3360   -3.4640  -20.0030 O.2   121  ALA121     -0.2715
     37  CB         4.4510   -5.8150  -18.9460 C.3   121  ALA121      0.0334
     38  N          7.4610   -5.4210  -19.8040 N.am  122  CYS122     -0.1968
     39  CA         8.7180   -4.7950  -19.3920 C.3   122  CYS122      0.1712
     40  C          9.4400   -4.1150  -20.5440 C.2   122  CYS122      0.2296
     41  O          9.7920   -4.7520  -21.4890 O.2   122  CYS122     -0.2864
     42  CB         9.6370   -5.7940  -18.7190 C.3   122  CYS122      0.0983
     43  SG         8.7690   -6.6890  -17.4060 S.3   122  CYS122     -0.0798
     44  N          4.2800  -12.5750  -24.5390 N.3   136  TYR136     -0.1241
     45  CA         2.9020  -12.1630  -24.3250 C.3   136  TYR136      0.1605
     46  C          2.9430  -11.0330  -23.3090 C.2   136  TYR136      0.2264
     47  O          3.9650  -10.8090  -22.6210 O.2   136  TYR136     -0.2867
     48  CB         2.0390  -13.3160  -23.7160 C.3   136  TYR136      0.0534
     49  CG         2.2530  -13.4070  -22.2160 C.ar  136  TYR136     -0.0201
     50  CD1        3.4570  -13.8820  -21.6760 C.ar  136  TYR136     -0.0009
     51  CD2        1.2970  -12.9510  -21.3360 C.ar  136  TYR136     -0.0009
     52  CE1        3.6530  -13.9160  -20.2490 C.ar  136  TYR136      0.0417
     53  CE2        1.5010  -12.9270  -19.9550 C.ar  136  TYR136      0.0417
     54  CZ         2.6370  -13.4410  -19.4220 C.ar  136  TYR136      0.1957
     55  OH         2.7700  -13.4300  -18.0640 O.3   136  TYR136     -0.2866
     56  N         -7.0670   -6.7210  -18.9550 N.3   264  TYR264     -0.1241
     57  CA        -5.8900   -7.4440  -18.5260 C.3   264  TYR264      0.1605
     58  C         -5.6980   -7.0330  -17.1210 C.2   264  TYR264      0.2264
     59  O         -5.9920   -5.9010  -16.7730 O.2   264  TYR264     -0.2867
     60  CB        -4.6520   -7.0540  -19.3440 C.3   264  TYR264      0.0534
     61  CG        -3.2870   -7.3910  -18.7520 C.ar  264  TYR264     -0.0201
     62  CD1       -2.7190   -8.6810  -18.9000 C.ar  264  TYR264     -0.0009
     63  CD2       -2.5310   -6.4300  -18.1050 C.ar  264  TYR264     -0.0009
     64  CE1       -1.4370   -8.9730  -18.4140 C.ar  264  TYR264      0.0417
     65  CE2       -1.2710   -6.7180  -17.6070 C.ar  264  TYR264      0.0417
     66  CZ        -0.7200   -7.9680  -17.7750 C.ar  264  TYR264      0.1957
     67  OH         0.5580   -8.2000  -17.3050 O.3   264  TYR264     -0.2866
     68  N         -3.4080   -8.1310  -13.1270 N.3   266  VAL266     -0.1245
     69  CA        -2.4630   -8.9100  -12.3840 C.3   266  VAL266      0.1561
     70  C         -2.9210   -8.7930  -10.9300 C.2   266  VAL266      0.2260
     71  O         -2.9470   -7.7160  -10.3490 O.2   266  VAL266     -0.2867
     72  CB        -0.9700   -8.3750  -12.5370 C.3   266  VAL266      0.0252
     73  CG1        0.0310   -9.1840  -11.6420 C.3   266  VAL266      0.0019
     74  CG2       -0.4960   -8.3470  -14.0040 C.3   266  VAL266      0.0019
     75  N          1.9080   -1.1900  -14.7330 N.3   327  ILE327     -0.1231
     76  CA         1.8790   -2.2020  -15.8090 C.3   327  ILE327      0.1692
     77  C          3.2920   -2.5680  -16.2160 C.2   327  ILE327      0.2592
     78  O          3.5810   -3.7370  -16.4260 O.2   327  ILE327     -0.2718
     79  CB         1.1610   -1.6520  -17.0660 C.3   327  ILE327      0.0266
     80  CG1       -0.3460   -1.6070  -16.8450 C.3   327  ILE327      0.0019
     81  CG2        1.5400   -2.4470  -18.3270 C.3   327  ILE327      0.0020
     82  CD1       -1.0640   -2.9420  -16.8080 C.3   327  ILE327      0.0001
     83  N          4.1950   -1.5820  -16.3100 N.am  328  ALA328     -0.1966
     84  CA         5.5840   -1.8560  -16.7930 C.3   328  ALA328      0.1728
     85  C          6.5140   -2.6110  -15.8140 C.2   328  ALA328      0.2617
     86  O          7.4910   -3.2650  -16.2310 O.2   328  ALA328     -0.2715
     87  CB         6.2350   -0.5970  -17.3260 C.3   328  ALA328      0.0334
     88  N          6.1710   -2.5500  -14.5310 N.am  329  GLY329     -0.1940
     89  CA         7.0860   -2.9770  -13.4930 C.3   329  GLY329      0.2014
     90  C          7.9160   -1.8040  -13.0040 C.2   329  GLY329      0.2638
     91  O          7.9580   -0.7280  -13.6380 O.2   329  GLY329     -0.2714
     92  N          8.5930   -1.9890  -11.8840 N.am  330  ASP330     -0.1971
     93  CA         9.1980   -0.8170  -11.2170 C.3   330  ASP330      0.1709
     94  C         10.6400   -0.5350  -11.7120 C.2   330  ASP330      0.2293
     95  O         11.3620    0.2760  -11.1760 O.2   330  ASP330     -0.2864
     96  CB         9.1560   -1.0010   -9.7120 C.3   330  ASP330      0.1436
     97  CG        10.1050   -2.0960   -9.2520 C.2   330  ASP330      0.3671
     98  OD1       10.8220   -2.6800  -10.1010 O.co2 330  ASP330     -0.2456
     99  OD2       10.1520   -2.3830   -8.0440 O.co2 330  ASP330     -0.2456
    100  N         13.4410   -1.9860  -11.2890 N.3   332  ASP332     -0.1225
    101  CA        14.5790   -2.3090  -10.4210 C.3   332  ASP332      0.1805
    102  C         15.0710   -3.7640  -10.6180 C.2   332  ASP332      0.2597
    103  O         14.4720   -4.7400  -10.1500 O.2   332  ASP332     -0.2718
    104  CB        14.2230   -2.0950   -8.9690 C.3   332  ASP332      0.1424
    105  CG        15.4210   -2.0140   -8.0870 C.2   332  ASP332      0.3668
    106  OD1       16.5330   -2.3670   -8.5150 O.co2 332  ASP332     -0.2456
    107  OD2       15.2520   -1.6100   -6.9260 O.co2 332  ASP332     -0.2456
    108  N         16.1650   -3.9010  -11.3060 N.am  333  MET333     -0.1979
    109  CA        16.6980   -5.2150  -11.5130 C.3   333  MET333      0.1605
    110  C         17.9260   -5.4900  -10.6270 C.2   333  MET333      0.2287
    111  O         18.6810   -6.3610  -10.9390 O.2   333  MET333     -0.2864
    112  CB        17.0220   -5.4030  -13.0040 C.3   333  MET333      0.0413
    113  CG        15.7950   -5.5500  -13.9400 C.3   333  MET333      0.0598
    114  SD        14.6910   -6.9600  -13.5680 S.3   333  MET333     -0.1393
    115  CE        15.8500   -8.3680  -13.5130 C.3   333  MET333      0.0692
    116  N         18.2950   -6.4340   -7.3810 N.3   335  GLY335     -0.1225
    117  CA        18.2050   -7.3520   -6.2820 C.3   335  GLY335      0.1811
    118  C         18.5490   -8.7290   -6.8040 C.2   335  GLY335      0.2280
    119  O         19.1540   -8.8880   -7.8750 O.2   335  GLY335     -0.2866
    120  N         16.4820  -12.3400   -7.4570 N.3   337  ALA337     -0.1245
    121  CA        15.1440  -12.8920   -7.5550 C.3   337  ALA337      0.1562
    122  C         15.1580  -14.3850   -7.9680 C.2   337  ALA337      0.2260
    123  O         16.0320  -14.8240   -8.7230 O.2   337  ALA337     -0.2867
    124  CB        14.3140  -12.0940   -8.5690 C.3   337  ALA337      0.0290
    125  N         12.2530  -16.9640   -9.7330 N.3   339  ILE339     -0.1245
    126  CA        10.9310  -17.0150  -10.3600 C.3   339  ILE339      0.1561
    127  C         10.5640  -18.4590  -10.6720 C.2   339  ILE339      0.2260
    128  O         11.4390  -19.2180  -11.1120 O.2   339  ILE339     -0.2867
    129  CB        10.9190  -16.1690  -11.6490 C.3   339  ILE339      0.0252
    130  CG1       10.5970  -14.7230  -11.3150 C.3   339  ILE339      0.0019
    131  CG2        9.8240  -16.5910  -12.5570 C.3   339  ILE339      0.0019
    132  CD1       11.8660  -13.8700  -10.9180 C.3   339  ILE339      0.0001
    133  N          5.6660  -13.1430   -3.5910 N.3   371  VAL371     -0.1245
    134  CA         4.3830  -12.8420   -4.2260 C.3   371  VAL371      0.1561
    135  C          3.9510  -14.0140   -5.1010 C.2   371  VAL371      0.2260
    136  O          4.7840  -14.5790   -5.7960 O.2   371  VAL371     -0.2867
    137  CB         4.4960  -11.6460   -5.2050 C.3   371  VAL371      0.0252
    138  CG1        3.1230  -11.0750   -5.5200 C.3   371  VAL371      0.0019
    139  CG2        5.4750  -10.5730   -4.6890 C.3   371  VAL371      0.0019
    140  N          1.6080  -14.0470   -8.2590 N.3   373  ALA373     -0.1245
    141  CA         0.8470  -13.1520   -9.1180 C.3   373  ALA373      0.1562
    142  C          0.1390  -13.9420  -10.1950 C.2   373  ALA373      0.2260
    143  O          0.7700  -14.7260  -10.9220 O.2   373  ALA373     -0.2867
    144  CB         1.7430  -12.1680   -9.7580 C.3   373  ALA373      0.0290
    145  N         -1.7840  -13.6450  -13.6180 N.3   375  ILE375     -0.1245
    146  CA        -1.7770  -12.7890  -14.7710 C.3   375  ILE375      0.1561
    147  C         -2.7780  -13.2690  -15.7840 C.2   375  ILE375      0.2260
    148  O         -2.6840  -14.4070  -16.2760 O.2   375  ILE375     -0.2867
    149  CB        -0.3800  -12.7480  -15.4080 C.3   375  ILE375      0.0252
    150  CG1        0.6440  -12.4020  -14.3310 C.3   375  ILE375      0.0019
    151  CG2       -0.3700  -11.8040  -16.6400 C.3   375  ILE375      0.0019
    152  CD1        2.0020  -12.4350  -14.8400 C.3   375  ILE375      0.0001
    153  N          2.7760  -16.7800  -11.4200 N.3   401  VAL401     -0.1245
    154  CA         4.1970  -16.4960  -11.2780 C.3   401  VAL401      0.1561
    155  C          4.4420  -16.3380   -9.8080 C.2   401  VAL401      0.2260
    156  O          3.7920  -15.5350   -9.1510 O.2   401  VAL401     -0.2867
    157  CB         4.6380  -15.1520  -11.9810 C.3   401  VAL401      0.0252
    158  CG1        6.1670  -14.9150  -11.8620 C.3   401  VAL401      0.0019
    159  CG2        4.2390  -15.1060  -13.4600 C.3   401  VAL401      0.0019
    160  N          7.2620  -15.6070   -7.0440 N.3   403  VAL403     -0.1245
    161  CA         8.5040  -14.9110   -6.9710 C.3   403  VAL403      0.1561
    162  C          8.8510  -14.5470   -5.5440 C.2   403  VAL403      0.2260
    163  O          7.9900  -14.3370   -4.7030 O.2   403  VAL403     -0.2867
    164  CB         8.6120  -13.7200   -8.0370 C.3   403  VAL403      0.0252
    165  CG1        7.2370  -13.2870   -8.5530 C.3   403  VAL403      0.0019
    166  CG2        9.4580  -12.5960   -7.5460 C.3   403  VAL403      0.0019
    167  N         12.1600  -12.1970   -3.7000 N.3   405  THR405     -0.1218
    168  CA        13.2480  -11.2840   -4.0100 C.3   405  THR405      0.1862
    169  C         13.9490  -10.8910   -2.7020 C.2   405  THR405      0.2287
    170  O         13.2900  -10.7980   -1.6490 O.2   405  THR405     -0.2866
    171  CB        12.7140  -10.0230   -4.7400 C.3   405  THR405      0.1770
    172  OG1       11.9930  -10.4050   -5.9190 O.3   405  THR405     -0.2211
    173  CG2       13.8400   -9.1880   -5.1710 C.3   405  THR405      0.0375
    174  N          9.8000  -18.0220  -18.6600 N.3   447  TYR447     -0.1241
    175  CA        10.0080  -18.1140  -17.1990 C.3   447  TYR447      0.1605
    176  C         10.7020  -19.4120  -16.7490 C.2   447  TYR447      0.2264
    177  O         10.1620  -20.1520  -15.8650 O.2   447  TYR447     -0.2867
    178  CB         8.6940  -17.9350  -16.3770 C.3   447  TYR447      0.0534
    179  CG         7.8120  -16.7220  -16.6800 C.ar  447  TYR447     -0.0201
    180  CD1        8.3370  -15.5230  -17.2140 C.ar  447  TYR447     -0.0009
    181  CD2        6.4370  -16.7960  -16.4660 C.ar  447  TYR447     -0.0009
    182  CE1        7.5050  -14.4200  -17.4890 C.ar  447  TYR447      0.0417
    183  CE2        5.5760  -15.6930  -16.7430 C.ar  447  TYR447      0.0417
    184  CZ         6.1260  -14.5020  -17.2470 C.ar  447  TYR447      0.1957
    185  OH         5.2730  -13.4340  -17.5210 O.3   447  TYR447     -0.2866
@<TRIPOS>BOND
     1    44    45    1
     2    45    48    1
     3    45    46    1
     4    29    30    1
     5    48    49    1
     6    46    47    2
     7    32    31    2
     8    30    31    1
     9    31    33   am
    10    49    50   ar
    11    49    51   ar
    12    50    52   ar
    13    41    40    2
    14    51    53   ar
    15    33    34    1
    16    40    39    1
    17    52    54   ar
    18    34    35    1
    19    34    37    1
    20    35    36    2
    21    35    38   am
    22    53    54   ar
    23    38    39    1
    24    54    55    1
    25    39    42    1
    26    60    61    1
    27    60    57    1
    28    56    57    1
    29    62    61   ar
    30    62    64   ar
    31    61    63   ar
    32    42    43    1
    33   174   175    1
    34    57    58    1
    35    64    66   ar
    36    81    79    1
    37    63    65   ar
    38    66    65   ar
    39    66    67    1
    40   185   184    1
    41   182   184   ar
    42   182   180   ar
    43    87    84    1
    44   184   183   ar
    45   180   179   ar
    46   175   176    1
    47   175   178    1
    48    58    59    2
    49    79    80    1
    50    79    76    1
    51    80    82    1
    52    84    83    1
    53    84    85    1
    54    17    18    1
    55   176   177    2
    56   183   181   ar
    57   179   181   ar
    58   179   178    1
    59   151   149    1
    60    78    77    2
    61    83    77   am
    62   148   147    2
    63    86    85    2
    64    77    76    1
    65    85    88   am
    66    76    75    1
    67   147   146    1
    68    24    26   ar
    69    24    22   ar
    70    26    27   ar
    71   149   146    1
    72   149   150    1
    73    18    21    1
    74    18    19    1
    75    21    22    1
    76    22    23   ar
    77    27    28    1
    78    27    25   ar
    79   152   150    1
    80    19    20    2
    81   146   145    1
    82     1     2    1
    83    88    89    1
    84    23    25   ar
    85     5     2    1
    86     5     6    1
    87    74    72    1
    88   113   114    1
    89   113   112    1
    90    91    90    2
    91   114   115    1
    92     2     3    1
    93    89    90    1
    94   159   157    1
    95     8     6   am
    96     4     3    2
    97    68    69    1
    98    90    92   am
    99   112   109    1
   100     6     7    2
   101     3     9   am
   102   131   129    1
   103    72    69    1
   104    72    73    1
   105    69    70    1
   106   157   158    1
   107   157   154    1
   108    92    93    1
   109    94    93    1
   110    94    95    2
   111   129   130    1
   112   129   126    1
   113     9    10    1
   114   109   108    1
   115   109   110    1
   116    16    14    1
   117   153   154    1
   118   130   132    1
   119   108   102   am
   120   100   101    1
   121   154   155    1
   122    93    96    1
   123   128   127    2
   124   111   110    2
   125    10    11    1
   126    10    13    1
   127    70    71    2
   128   143   142    2
   129   127   126    1
   130   102   101    1
   131   102   103    2
   132    14    13    1
   133    14    15    1
   134   101   104    1
   135   126   125    1
   136   142   141    1
   137    11    12    2
   138    98    97   ar
   139   155   156    2
   140   144   141    1
   141    96    97    1
   142    97    99   ar
   143   141   140    1
   144   104   105    1
   145   123   122    2
   146   124   121    1
   147   165   164    1
   148   106   105   ar
   149   105   107   ar
   150   164   166    1
   151   164   161    1
   152   122   121    1
   153   119   118    2
   154   121   120    1
   155   116   117    1
   156   160   161    1
   157   161   162    1
   158   118   117    1
   159   172   171    1
   160   136   135    2
   161   162   163    2
   162   138   137    1
   163   137   139    1
   164   137   134    1
   165   173   171    1
   166   135   134    1
   167   171   168    1
   168   134   133    1
   169   168   167    1
   170   168   169    1
   171   169   170    2
