@<TRIPOS>MOLECULE
tmp/2y4iA00.pdb
 184 174 0 0 0
SMALL
GASTEIGER

@<TRIPOS>ATOM
      1  N         -0.7890   58.0690   -6.7930 N.3    20  ILE20      -0.1231
      2  CA        -1.2150   58.6990   -5.5510 C.3    20  ILE20       0.1692
      3  C         -2.7340   58.7210   -5.4960 C.2    20  ILE20       0.2593
      4  O         -3.3280   59.3680   -4.6330 O.2    20  ILE20      -0.2718
      5  CB        -0.6950   60.1460   -5.4510 C.3    20  ILE20       0.0266
      6  CG1       -1.2260   60.9850   -6.6150 C.3    20  ILE20       0.0019
      7  CG2        0.8250   60.1700   -5.4320 C.3    20  ILE20       0.0020
      8  CD1       -0.7180   62.4070   -6.6280 C.3    20  ILE20       0.0001
      9  N         -3.3600   58.0020   -6.4230 N.am   21  GLY21      -0.1942
     10  CA        -4.7980   58.0680   -6.5880 C.3    21  GLY21       0.2014
     11  C         -5.5530   56.7850   -6.3000 C.2    21  GLY21       0.2639
     12  O         -5.5550   55.8550   -7.1070 O.2    21  GLY21      -0.2714
     13  N         -6.1920   56.7400   -5.1350 N.am   22  LYS22      -0.1963
     14  CA        -7.1480   55.6880   -4.8160 C.3    22  LYS22       0.1728
     15  C         -8.4220   55.9480   -5.6190 C.2    22  LYS22       0.2617
     16  O         -8.5800   55.4440   -6.7330 O.2    22  LYS22      -0.2715
     17  CB        -7.4550   55.6910   -3.3170 C.3    22  LYS22       0.0311
     18  CG        -7.6520   57.0870   -2.7340 C.3    22  LYS22       0.0038
     19  CD        -8.6680   57.0810   -1.6030 C.3    22  LYS22       0.0206
     20  CE        -9.1910   58.4820   -1.3210 C.3    22  LYS22       0.1093
     21  NZ        -8.0960   59.4280   -0.9700 N.3    22  LYS22      -0.1314
     22  N         -9.3210   56.7400   -5.0390 N.am   23  GLY23      -0.1940
     23  CA       -10.4750   57.2820   -5.7380 C.3    23  GLY23       0.2014
     24  C        -11.3880   56.2920   -6.4330 C.2    23  GLY23       0.2639
     25  O        -11.0280   55.1400   -6.6670 O.2    23  GLY23      -0.2714
     26  N        -12.5870   56.7550   -6.7670 N.am   24  ARG24      -0.1963
     27  CA       -13.5360   55.9390   -7.5060 C.3    24  ARG24       0.1729
     28  C        -13.1900   55.9730   -8.9870 C.2    24  ARG24       0.2616
     29  O        -12.8160   54.9570   -9.5740 O.2    24  ARG24      -0.2715
     30  CB       -14.9660   56.4380   -7.2840 C.3    24  ARG24       0.0348
     31  CG       -15.6400   56.1390   -5.9690 C.3    24  ARG24       0.0492
     32  CD       -15.7380   54.6600   -5.7800 C.3    24  ARG24       0.2205
     33  NE       -16.5620   54.0160   -6.8020 N.pl3  24  ARG24      -0.0865
     34  CZ       -17.8790   53.8640   -6.7650 C.cat  24  ARG24       0.5346
     35  NH1      -18.5140   54.2360   -5.6660 N.pl3  24  ARG24       0.1354
     36  NH2      -18.5530   53.3100   -7.7750 N.pl3  24  ARG24       0.1354
     37  N        -13.3070   57.1550   -9.5840 N.am   25  PHE25      -0.1960
     38  CA       -13.0260   57.3260  -11.0020 C.3    25  PHE25       0.1771
     39  C        -11.5290   57.2900  -11.2760 C.2    25  PHE25       0.2620
     40  O        -10.8070   58.2290  -10.9390 O.2    25  PHE25      -0.2715
     41  CB       -13.6050   58.6490  -11.5120 C.3    25  PHE25       0.0574
     42  CG       -15.1110   58.6930  -11.5370 C.ar   25  PHE25      -0.0200
     43  CD1      -15.8190   58.0910  -12.5660 C.ar   25  PHE25      -0.0042
     44  CD2      -15.8160   59.3490  -10.5390 C.ar   25  PHE25      -0.0042
     45  CE1      -17.2040   58.1360  -12.5960 C.ar   25  PHE25      -0.0003
     46  CE2      -17.1990   59.3990  -10.5650 C.ar   25  PHE25      -0.0003
     47  CZ       -17.8930   58.7910  -11.5950 C.ar   25  PHE25      -0.0000
     48  N        -11.0720   56.2000  -11.8840 N.am   26  GLY26      -0.1954
     49  CA        -9.6930   56.0730  -12.3230 C.3    26  GLY26       0.1869
     50  C         -8.6530   56.2590  -11.2370 C.2    26  GLY26       0.2309
     51  O         -8.9780   56.5070  -10.0780 O.2    26  GLY26      -0.2863
     52  N         -5.1330   58.3260   -9.9410 N.3    28  VAL28      -0.1245
     53  CA        -4.4900   59.6210  -10.1070 C.3    28  VAL28       0.1561
     54  C         -2.9900   59.5240   -9.8570 C.2    28  VAL28       0.2260
     55  O         -2.5600   59.1300   -8.7770 O.2    28  VAL28      -0.2867
     56  CB        -5.1110   60.6810   -9.1740 C.3    28  VAL28       0.0252
     57  CG1       -4.2450   61.9300   -9.1300 C.3    28  VAL28       0.0019
     58  CG2       -6.5250   61.0210   -9.6250 C.3    28  VAL28       0.0019
     59  N         -1.3910   66.6450  -12.0850 N.3    38  ALA38      -0.1245
     60  CA        -1.9790   65.4170  -11.5720 C.3    38  ALA38       0.1562
     61  C         -2.7900   64.7350  -12.6590 C.2    38  ALA38       0.2260
     62  O         -3.7740   65.2830  -13.1490 O.2    38  ALA38      -0.2867
     63  CB        -2.8480   65.7140  -10.3690 C.3    38  ALA38       0.0290
     64  N         -5.1460   61.7490  -14.2020 N.3    40  ARG40      -0.1245
     65  CA        -6.1400   60.7360  -13.8550 C.3    40  ARG40       0.1563
     66  C         -6.4410   59.8200  -15.0360 C.2    40  ARG40       0.2260
     67  O         -6.8520   60.2810  -16.0980 O.2    40  ARG40      -0.2867
     68  CB        -7.4310   61.3920  -13.3630 C.3    40  ARG40       0.0307
     69  CG        -8.5810   60.4120  -13.1990 C.3    40  ARG40       0.0489
     70  CD        -9.8630   61.0940  -12.7500 C.3    40  ARG40       0.2205
     71  NE        -9.8660   61.3860  -11.3210 N.pl3  40  ARG40      -0.0865
     72  CZ        -9.6960   62.5990  -10.8070 C.cat  40  ARG40       0.5346
     73  NH1       -9.5110   63.6420  -11.6050 N.pl3  40  ARG40       0.1354
     74  NH2       -9.7150   62.7720   -9.4930 N.pl3  40  ARG40       0.1354
     75  N         -9.5370   74.3670   -9.8490 N.3    71  VAL71      -0.1245
     76  CA        -8.3220   73.7460  -10.3660 C.3    71  VAL71       0.1561
     77  C         -8.2080   73.9900  -11.8620 C.2    71  VAL71       0.2260
     78  O         -9.2040   73.9600  -12.5890 O.2    71  VAL71      -0.2867
     79  CB        -8.2890   72.2310  -10.1220 C.3    71  VAL71       0.0252
     80  CG1       -7.9340   71.9310   -8.6730 C.3    71  VAL71       0.0019
     81  CG2       -9.6170   71.6020  -10.5200 C.3    71  VAL71       0.0019
     82  N         -4.4790   67.8250  -14.9260 N.3    87  THR87      -0.1203
     83  CA        -4.9540   68.9200  -14.0900 C.3    87  THR87       0.1994
     84  C         -3.8600   69.4350  -13.1620 C.2    87  THR87       0.2619
     85  O         -3.0380   68.6660  -12.6750 O.2    87  THR87      -0.2717
     86  CB        -6.1570   68.4940  -13.2400 C.3    87  THR87       0.1784
     87  OG1       -6.6260   69.6200  -12.4910 O.3    87  THR87      -0.2211
     88  CG2       -5.7640   67.3820  -12.2760 C.3    87  THR87       0.0376
     89  N         -3.8530   70.7420  -12.9220 N.am   88  SER88      -0.1937
     90  CA        -2.8630   71.3410  -12.0360 C.3    88  SER88       0.2055
     91  C         -2.7490   70.5520  -10.7510 C.2    88  SER88       0.2643
     92  O         -3.7440   70.3240  -10.0670 O.2    88  SER88      -0.2714
     93  CB        -3.2370   72.7840  -11.6960 C.3    88  SER88       0.2130
     94  OG        -2.6340   73.1840  -10.4740 O.3    88  SER88      -0.2179
     95  N         -1.5360   70.1340  -10.4170 N.am   89  LEU89      -0.1963
     96  CA        -1.3300   69.4680   -9.1410 C.3    89  LEU89       0.1728
     97  C         -1.4270   70.4990   -8.0280 C.2    89  LEU89       0.2616
     98  O         -0.7120   71.5060   -8.0390 O.2    89  LEU89      -0.2715
     99  CB         0.0220   68.7560   -9.0880 C.3    89  LEU89       0.0311
    100  CG         0.2530   67.9440   -7.8120 C.3    89  LEU89       0.0022
    101  CD1       -0.5240   66.6420   -7.8510 C.3    89  LEU89       0.0001
    102  CD2        1.7250   67.6730   -7.6220 C.3    89  LEU89       0.0001
    103  N         -2.3260   70.2580   -7.0800 N.am   90  CYS90      -0.1968
    104  CA        -2.4680   71.1500   -5.9420 C.3    90  CYS90       0.1712
    105  C         -1.3910   70.8290   -4.9190 C.2    90  CYS90       0.2296
    106  O         -1.3330   69.7170   -4.3970 O.2    90  CYS90      -0.2864
    107  CB        -3.8620   71.0240   -5.3320 C.3    90  CYS90       0.0983
    108  SG        -5.1900   71.6230   -6.4130 S.3    90  CYS90      -0.0798
    109  N         -5.7990   68.5690    1.3480 N.3    94  THR94      -0.1218
    110  CA        -7.2310   68.4980    1.1150 C.3    94  THR94       0.1862
    111  C         -7.9780   69.0740    2.3130 C.2    94  THR94       0.2287
    112  O         -7.5300   68.9390    3.4500 O.2    94  THR94      -0.2866
    113  CB        -7.6820   67.0490    0.8650 C.3    94  THR94       0.1770
    114  OG1       -9.0810   66.9310    1.1440 O.3    94  THR94      -0.2211
    115  CG2       -6.9120   66.0820    1.7540 C.3    94  THR94       0.0375
    116  N        -17.2790   67.1410   -2.7750 N.3   136  LYS136     -0.1245
    117  CA       -16.9100   66.5990   -1.4790 C.3   136  LYS136      0.1561
    118  C        -16.0080   67.5830   -0.7510 C.2   136  LYS136      0.2260
    119  O        -15.6230   68.6130   -1.2970 O.2   136  LYS136     -0.2867
    120  CB       -16.1900   65.2580   -1.6340 C.3   136  LYS136      0.0271
    121  CG       -17.0100   64.1620   -2.2990 C.3   136  LYS136      0.0035
    122  CD       -16.3960   62.7890   -2.0370 C.3   136  LYS136      0.0206
    123  CE       -17.0040   61.7040   -2.9180 C.3   136  LYS136      0.1093
    124  NZ       -16.4330   61.7060   -4.2940 N.3   136  LYS136     -0.1314
    125  N        -13.1860   66.3190    0.4770 N.3   138  LYS138     -0.1231
    126  CA       -11.9420   65.7410   -0.0010 C.3   138  LYS138      0.1693
    127  C        -11.6010   66.2450   -1.3980 C.2   138  LYS138      0.2592
    128  O        -10.5810   65.8660   -1.9720 O.2   138  LYS138     -0.2718
    129  CB       -12.0430   64.2150    0.0100 C.3   138  LYS138      0.0285
    130  CG       -12.7230   63.6660    1.2550 C.3   138  LYS138      0.0035
    131  CD       -12.4390   62.1850    1.4490 C.3   138  LYS138      0.0206
    132  CE       -13.1700   61.3370    0.4220 C.3   138  LYS138      0.1093
    133  NZ       -12.8520   59.8890    0.5730 N.3   138  LYS138     -0.1314
    134  N        -12.4600   67.0990   -1.9430 N.am  139  ASN139     -0.1974
    135  CA       -12.2110   67.6990   -3.2470 C.3   139  ASN139      0.1688
    136  C        -11.9830   69.1990   -3.1670 C.2   139  ASN139      0.2292
    137  O        -12.3860   69.9500   -4.0550 O.2   139  ASN139     -0.2864
    138  CB       -13.3420   67.3830   -4.2180 C.3   139  ASN139      0.1181
    139  CG       -13.1100   66.0950   -4.9620 C.2   139  ASN139      0.2629
    140  OD1      -11.9750   65.6280   -5.0680 O.2   139  ASN139     -0.2716
    141  ND2      -14.1790   65.5110   -5.4850 N.am  139  ASN139     -0.0877
    142  N         -8.6380   71.8400   -2.0390 N.3   141  PHE141     -0.1241
    143  CA        -7.2380   71.8910   -1.6410 C.3   141  PHE141      0.1605
    144  C         -6.8220   73.2570   -1.1190 C.2   141  PHE141      0.2264
    145  O         -7.4990   74.2590   -1.3490 O.2   141  PHE141     -0.2867
    146  CB        -6.3270   71.4400   -2.7810 C.3   141  PHE141      0.0534
    147  CG        -6.3910   69.9700   -3.0520 C.ar  141  PHE141     -0.0203
    148  CD1       -5.6960   69.0790   -2.2580 C.ar  141  PHE141     -0.0042
    149  CD2       -7.1590   69.4760   -4.0870 C.ar  141  PHE141     -0.0042
    150  CE1       -5.7590   67.7230   -2.4990 C.ar  141  PHE141     -0.0003
    151  CE2       -7.2260   68.1240   -4.3350 C.ar  141  PHE141     -0.0003
    152  CZ        -6.5260   67.2450   -3.5390 C.ar  141  PHE141     -0.0000
    153  N        -12.1630   71.2450   -7.1540 N.3   148  THR148     -0.1203
    154  CA       -11.6050   70.2870   -8.0980 C.3   148  THR148      0.1994
    155  C        -12.5430   69.1210   -8.4140 C.2   148  THR148      0.2617
    156  O        -13.5580   68.9310   -7.7480 O.2   148  THR148     -0.2717
    157  CB       -10.2730   69.7340   -7.5740 C.3   148  THR148      0.1784
    158  OG1       -9.8010   68.6980   -8.4450 O.3   148  THR148     -0.2211
    159  CG2      -10.4440   69.1780   -6.1760 C.3   148  THR148      0.0376
    160  N        -12.1970   68.3550   -9.4470 N.am  149  ASP149     -0.1973
    161  CA       -12.9170   67.1330   -9.8080 C.3   149  ASP149      0.1709
    162  C        -14.4100   67.3400  -10.0780 C.2   149  ASP149      0.2293
    163  O        -15.2280   66.4580   -9.8180 O.2   149  ASP149     -0.2864
    164  CB       -12.7090   66.0520   -8.7430 C.3   149  ASP149      0.1436
    165  CG       -11.2490   65.6840   -8.5700 C.2   149  ASP149      0.3671
    166  OD1      -10.4470   66.0120   -9.4680 O.co2 149  ASP149     -0.2456
    167  OD2      -10.8990   65.0720   -7.5410 O.co2 149  ASP149     -0.2456
    168  N        -20.0030   54.5270   -1.0510 N.3   161  GLN161     -0.1231
    169  CA       -18.7210   54.7620   -0.3910 C.3   161  GLN161      0.1698
    170  C        -18.8760   55.5450    0.9090 C.2   161  GLN161      0.2592
    171  O        -19.9280   55.5060    1.5420 O.2   161  GLN161     -0.2718
    172  CB       -17.7500   55.4810   -1.3340 C.3   161  GLN161      0.0381
    173  CG       -18.3600   56.6630   -2.0770 C.3   161  GLN161      0.0905
    174  CD       -17.3330   57.4610   -2.8610 C.2   161  GLN161      0.2608
    175  OE1      -16.1360   57.1790   -2.8030 O.2   161  GLN161     -0.2717
    176  NE2      -17.7990   58.4660   -3.5970 N.am  161  GLN161     -0.0878
    177  N        -17.8210   56.2560    1.2930 N.am  162  ASN162     -0.1974
    178  CA       -17.7740   56.9910    2.5570 C.3   162  ASN162      0.1688
    179  C        -18.8900   58.0100    2.7690 C.2   162  ASN162      0.2292
    180  O        -20.0590   57.7550    2.4750 O.2   162  ASN162     -0.2864
    181  CB       -16.4220   57.6930    2.7080 C.3   162  ASN162      0.1181
    182  CG       -16.1530   58.6940    1.5920 C.2   162  ASN162      0.2629
    183  OD1      -16.0930   58.3330    0.4150 O.2   162  ASN162     -0.2716
    184  ND2      -15.9790   59.9590    1.9600 N.am  162  ASN162     -0.0877
@<TRIPOS>BOND
     1    67    66    2
     2    66    65    1
     3    82    83    1
     4    64    65    1
     5    83    86    1
     6    83    84    1
     7    65    68    1
     8    68    69    1
     9    86    87    1
    10    86    88    1
    11    69    70    1
    12    84    89   am
    13    84    85    2
    14    62    61    2
    15    89    90    1
    16    70    71    1
    17    61    60    1
    18    45    43   ar
    19    45    47   ar
    20    78    77    2
    21    43    42   ar
    22    49    48    1
    23    49    50    1
    24    59    60    1
    25    90    93    1
    26    90    91    1
    27    48    39   am
    28    77    76    1
    29    93    94    1
    30    73    72    1
    31    47    46   ar
    32    60    63    1
    33    42    41    1
    34    42    44   ar
    35    41    38    1
    36    71    72    2
    37    39    38    1
    38    39    40    2
    39    50    51    2
    40    38    37    1
    41    72    74    1
    42    91    95   am
    43    91    92    2
    44    46    44   ar
    45    81    79    1
    46    95    96    1
    47    76    79    1
    48    76    75    1
    49    79    80    1
    50    53    52    1
    51    53    54    1
    52    53    56    1
    53   162   163    2
    54   162   161    1
    55    54    55    2
    56   161   160    1
    57   161   164    1
    58    58    56    1
    59    37    28   am
    60    29    28    2
    61   166   165   ar
    62   160   155   am
    63    56    57    1
    64    96    99    1
    65    96    97    1
    66    99   100    1
    67    28    27    1
    68   164   165    1
    69   165   167   ar
    70   158   157    1
    71   155   154    1
    72   155   156    2
    73   154   157    1
    74   154   153    1
    75    98    97    2
    76    97   103   am
    77   101   100    1
    78   100   102    1
    79    36    34    1
    80   157   159    1
    81    27    30    1
    82    27    26    1
    83    30    31    1
    84    12    11    2
    85   103   104    1
    86    33    34    2
    87    33    32    1
    88     1     2    1
    89    26    24   am
    90    34    35    1
    91    16    15    2
    92    25    24    2
    93     8     6    1
    94     6     5    1
    95    10     9    1
    96    10    11    1
    97    24    23    1
    98     9     3   am
    99   108   107    1
   100    11    13   am
   101    31    32    1
   102   104   107    1
   103   104   105    1
   104    23    22    1
   105    15    22   am
   106    15    14    1
   107     2     3    1
   108     2     5    1
   109     3     4    2
   110   141   139   am
   111     5     7    1
   112    13    14    1
   113   140   139    2
   114   139   138    1
   115   105   106    2
   116    14    17    1
   117   151   149   ar
   118   151   152   ar
   119   124   123    1
   120   138   135    1
   121   149   147   ar
   122   137   136    2
   123   176   174   am
   124   152   150   ar
   125    17    18    1
   126   135   136    1
   127   135   134    1
   128   147   146    1
   129   147   148   ar
   130   123   122    1
   131   174   175    2
   132   174   173    1
   133   146   143    1
   134   116   117    1
   135    18    19    1
   136   150   148   ar
   137   121   122    1
   138   121   120    1
   139   173   172    1
   140   142   143    1
   141   128   127    2
   142   134   127   am
   143   143   144    1
   144   120   117    1
   145    19    20    1
   146   117   118    1
   147   127   126    1
   148   145   144    2
   149   172   169    1
   150    20    21    1
   151   119   118    2
   152   168   169    1
   153   169   170    1
   154   126   129    1
   155   126   125    1
   156   129   130    1
   157   183   182    2
   158   132   133    1
   159   132   131    1
   160   113   110    1
   161   113   114    1
   162   113   115    1
   163   170   177   am
   164   170   171    2
   165   110   109    1
   166   110   111    1
   167   130   131    1
   168   177   178    1
   169   182   184   am
   170   182   181    1
   171   111   112    2
   172   180   179    2
   173   178   181    1
   174   178   179    1
