@<TRIPOS>MOLECULE
tmp/2y4lB01.pdb
 83 78 0 0 0
SMALL
GASTEIGER

@<TRIPOS>ATOM
      1  N        112.2860  -56.5530  141.5560 N.3   130  ARG130     -0.1245
      2  CA       111.1700  -55.6080  141.4510 C.3   130  ARG130      0.1563
      3  C        109.9780  -55.9300  142.3210 C.2   130  ARG130      0.2260
      4  O        109.7400  -57.0890  142.6080 O.2   130  ARG130     -0.2867
      5  CB       110.7720  -55.4560  140.0030 C.3   130  ARG130      0.0307
      6  CG       111.8270  -54.7080  139.2720 C.3   130  ARG130      0.0489
      7  CD       111.4610  -54.5040  137.8710 C.3   130  ARG130      0.2205
      8  NE       110.9070  -53.1690  137.7250 N.pl3 130  ARG130     -0.0865
      9  CZ       110.3520  -52.7240  136.6020 C.cat 130  ARG130      0.5346
     10  NH1      110.2700  -53.5210  135.5170 N.pl3 130  ARG130      0.1354
     11  NH2      109.8700  -51.4860  136.5890 N.pl3 130  ARG130      0.1354
     12  N        104.8870  -53.9870  140.5210 N.3   134  ASP134     -0.1225
     13  CA       105.5580  -53.2780  139.4490 C.3   134  ASP134      0.1805
     14  C        105.6690  -54.2040  138.2850 C.2   134  ASP134      0.2598
     15  O        105.2760  -55.3470  138.3830 O.2   134  ASP134     -0.2718
     16  CB       106.9450  -52.8760  139.8860 C.3   134  ASP134      0.1424
     17  CG       106.9570  -51.6100  140.7690 C.2   134  ASP134      0.3668
     18  OD1      106.1350  -50.6880  140.5160 O.co2 134  ASP134     -0.2456
     19  OD2      107.8240  -51.5510  141.7020 O.co2 134  ASP134     -0.2456
     20  N        106.2250  -53.7120  137.1900 N.am  135  ALA135     -0.1966
     21  CA       106.5590  -54.5370  136.0290 C.3   135  ALA135      0.1728
     22  C        105.3520  -55.1660  135.3930 C.2   135  ALA135      0.2616
     23  O        105.4380  -56.2470  134.8090 O.2   135  ALA135     -0.2715
     24  CB       107.5510  -55.6050  136.4050 C.3   135  ALA135      0.0334
     25  N        104.2050  -54.5240  135.4970 N.am  136  MET136     -0.1963
     26  CA       103.0130  -55.1370  134.9500 C.3   136  MET136      0.1736
     27  C        102.9210  -55.0880  133.4010 C.2   136  MET136      0.2616
     28  O        102.1780  -55.8510  132.7830 O.2   136  MET136     -0.2715
     29  CB       101.7960  -54.5850  135.6680 C.3   136  MET136      0.0427
     30  CG       101.6840  -55.0580  137.1060 C.3   136  MET136      0.0599
     31  SD       101.4060  -56.8280  137.1130 S.3   136  MET136     -0.1393
     32  CE       103.0290  -57.4890  137.5710 C.3   136  MET136      0.0692
     33  N        103.7050  -54.2200  132.7670 N.am  137  ILE137     -0.1963
     34  CA       103.8010  -54.2490  131.3180 C.3   137  ILE137      0.1727
     35  C        104.7480  -55.3740  130.8960 C.2   137  ILE137      0.2616
     36  O        104.4320  -56.2000  129.9870 O.2   137  ILE137     -0.2715
     37  CB       104.2560  -52.9120  130.7440 C.3   137  ILE137      0.0290
     38  CG1      103.2710  -51.8170  131.1730 C.3   137  ILE137      0.0022
     39  CG2      104.3150  -52.9870  129.2380 C.3   137  ILE137      0.0023
     40  CD1      103.5760  -50.4480  130.6460 C.3   137  ILE137      0.0001
     41  N        105.8810  -55.4110  131.5870 N.am  138  THR138     -0.1951
     42  CA       106.8760  -56.4410  131.3950 C.3   138  THR138      0.1897
     43  C        106.2500  -57.8350  131.4340 C.2   138  THR138      0.2313
     44  O        106.4200  -58.6220  130.4860 O.2   138  THR138     -0.2863
     45  CB       107.9610  -56.2920  132.4660 C.3   138  THR138      0.1794
     46  OG1      108.7170  -55.1160  132.1670 O.3   138  THR138     -0.2208
     47  CG2      108.8870  -57.5030  132.5250 C.3   138  THR138      0.0378
     48  N        112.2110  -54.6900  128.8360 N.3   162  LEU162     -0.1245
     49  CA       111.9050  -53.2740  128.6670 C.3   162  LEU162      0.1561
     50  C        112.9490  -52.4780  129.3690 C.2   162  LEU162      0.2260
     51  O        112.8150  -51.2310  129.5200 O.2   162  LEU162     -0.2867
     52  CB       110.5450  -52.9250  129.2390 C.3   162  LEU162      0.0270
     53  CG       109.3740  -53.7620  128.7340 C.3   162  LEU162      0.0019
     54  CD1      108.1870  -53.3550  129.5130 C.3   162  LEU162      0.0001
     55  CD2      109.1210  -53.7130  127.2080 C.3   162  LEU162      0.0001
     56  N        105.2930  -43.2110  141.5880 N.3   216  TYR216     -0.1241
     57  CA       103.9870  -42.8780  140.9360 C.3   216  TYR216      0.1605
     58  C        102.7350  -43.5610  141.5920 C.2   216  TYR216      0.2264
     59  O        102.8450  -44.6620  142.1560 O.2   216  TYR216     -0.2867
     60  CB       104.0280  -43.2050  139.4130 C.3   216  TYR216      0.0534
     61  CG       104.1890  -44.6780  139.0850 C.ar  216  TYR216     -0.0201
     62  CD1      103.1010  -45.5500  139.1680 C.ar  216  TYR216     -0.0009
     63  CD2      105.4220  -45.1950  138.7040 C.ar  216  TYR216     -0.0009
     64  CE1      103.2350  -46.8900  138.8850 C.ar  216  TYR216      0.0417
     65  CE2      105.5650  -46.5540  138.4120 C.ar  216  TYR216      0.0417
     66  CZ       104.4650  -47.3910  138.5090 C.ar  216  TYR216      0.1957
     67  OH       104.5710  -48.7360  138.2480 O.3   216  TYR216     -0.2866
     68  N        101.1840  -45.0630  133.3340 N.3   222  LEU222     -0.1245
     69  CA       101.8270  -45.9940  132.4060 C.3   222  LEU222      0.1561
     70  C        101.0720  -46.1800  131.0890 C.2   222  LEU222      0.2260
     71  O        101.4030  -47.0560  130.2890 O.2   222  LEU222     -0.2867
     72  CB       101.9420  -47.3580  133.0570 C.3   222  LEU222      0.0270
     73  CG       103.0880  -47.8620  133.9310 C.3   222  LEU222      0.0019
     74  CD1      104.3450  -46.9890  133.9210 C.3   222  LEU222      0.0001
     75  CD2      102.5640  -48.0810  135.3330 C.3   222  LEU222      0.0001
     76  N        103.0040  -45.6940  127.7170 N.3   225  MET225     -0.1245
     77  CA       103.9710  -46.7590  127.6440 C.3   225  MET225      0.1570
     78  C        103.2810  -48.0680  127.2960 C.2   225  MET225      0.2261
     79  O        103.7150  -48.8010  126.4060 O.2   225  MET225     -0.2867
     80  CB       104.7270  -46.9090  128.9590 C.3   225  MET225      0.0387
     81  CG       105.9550  -47.7790  128.8290 C.3   225  MET225      0.0595
     82  SD       106.7950  -48.0250  130.4060 S.3   225  MET225     -0.1393
     83  CE       107.5990  -46.4780  130.7430 C.3   225  MET225      0.0692
@<TRIPOS>BOND
     1    79    78    2
     2    55    53    1
     3    78    77    1
     4    77    76    1
     5    77    80    1
     6    49    48    1
     7    49    52    1
     8    49    50    1
     9    53    52    1
    10    53    54    1
    11    81    80    1
    12    81    82    1
    13    39    37    1
    14    50    51    2
    15    36    35    2
    16    71    70    2
    17    82    83    1
    18    44    43    2
    19    40    38    1
    20    37    38    1
    21    37    34    1
    22    35    34    1
    23    35    41   am
    24    70    69    1
    25    34    33    1
    26    42    43    1
    27    42    41    1
    28    42    45    1
    29    46    45    1
    30    69    72    1
    31    69    68    1
    32    45    47    1
    33    33    27   am
    34    28    27    2
    35    72    73    1
    36    27    26    1
    37    74    73    1
    38    73    75    1
    39    23    22    2
    40    26    25    1
    41    26    29    1
    42    22    25   am
    43    22    21    1
    44    10     9    1
    45    29    30    1
    46    21    24    1
    47    21    20    1
    48    11     9    1
    49     9     8    2
    50    30    31    1
    51    31    32    1
    52    20    14   am
    53     8     7    1
    54     7     6    1
    55    67    66    1
    56    14    15    2
    57    14    13    1
    58    65    66   ar
    59    65    63   ar
    60    66    64   ar
    61    63    61   ar
    62    64    62   ar
    63    61    62   ar
    64    61    60    1
    65     6     5    1
    66    60    57    1
    67    13    16    1
    68    13    12    1
    69    16    17    1
    70     5     2    1
    71    18    17   ar
    72    17    19   ar
    73    57    56    1
    74    57    58    1
    75     2     1    1
    76     2     3    1
    77    58    59    2
    78     3     4    2
