@<TRIPOS>MOLECULE
tmp/2y4nB01.pdb
 98 96 0 0 0
SMALL
GASTEIGER

@<TRIPOS>ATOM
      1  N         17.6880  -34.8450   -7.8770 N.3    42  GLU42      -0.1231
      2  CA        16.8170  -35.6380   -8.7310 C.3    42  GLU42       0.1699
      3  C         17.0890  -35.3660  -10.1980 C.2    42  GLU42       0.2592
      4  O         16.6280  -36.1060  -11.0700 O.2    42  GLU42      -0.2718
      5  CB        15.3450  -35.4020   -8.3990 C.3    42  GLU42       0.0402
      6  CG        14.8450  -36.2770   -7.2690 C.3    42  GLU42       0.1161
      7  CD        13.3540  -36.1650   -7.0570 C.2    42  GLU42       0.3649
      8  OE1       12.7150  -35.3490   -7.7510 O.co2  42  GLU42      -0.2457
      9  OE2       12.8250  -36.8720   -6.1730 O.co2  42  GLU42      -0.2457
     10  N         17.9260  -34.3650  -10.4540 N.am   43  ALA43      -0.1980
     11  CA        18.3740  -34.0540  -11.8070 C.3    43  ALA43       0.1597
     12  C         19.8370  -34.4330  -11.9650 C.2    43  ALA43       0.2287
     13  O         20.3810  -34.3860  -13.0670 O.2    43  ALA43      -0.2864
     14  CB        18.1760  -32.5690  -12.1070 C.3    43  ALA43       0.0319
     15  N         22.6840  -33.0370  -10.5720 N.3    45  VAL45      -0.1245
     16  CA        23.6930  -31.9810  -10.6040 C.3    45  VAL45       0.1561
     17  C         24.0030  -31.4760   -9.2040 C.2    45  VAL45       0.2260
     18  O         23.1440  -31.4940   -8.3240 O.2    45  VAL45      -0.2867
     19  CB        23.2430  -30.7730  -11.4470 C.3    45  VAL45       0.0252
     20  CG1       23.3490  -31.0850  -12.9240 C.3    45  VAL45       0.0019
     21  CG2       21.8220  -30.3460  -11.0670 C.3    45  VAL45       0.0019
     22  N         23.0860  -24.5590  -17.9900 N.3    57  SER57      -0.1202
     23  CA        22.1920  -25.4260  -18.7530 C.3    57  SER57       0.2020
     24  C         22.0910  -26.8110  -18.1230 C.2    57  SER57       0.2619
     25  O         21.1310  -27.5410  -18.3690 O.2    57  SER57      -0.2717
     26  CB        22.6770  -25.5510  -20.2000 C.3    57  SER57       0.2103
     27  OG        24.0390  -25.9400  -20.2410 O.3    57  SER57      -0.2182
     28  N         23.0460  -27.1340  -17.2570 N.am   58  ARG58      -0.1965
     29  CA        23.0710  -28.4200  -16.5650 C.3    58  ARG58       0.1729
     30  C         21.9670  -28.5220  -15.5150 C.2    58  ARG58       0.2616
     31  O         21.5920  -29.6230  -15.0970 O.2    58  ARG58      -0.2715
     32  CB        24.4300  -28.6350  -15.8990 C.3    58  ARG58       0.0348
     33  CG        25.6110  -28.6350  -16.8600 C.3    58  ARG58       0.0492
     34  CD        26.9180  -28.8550  -16.1170 C.3    58  ARG58       0.2205
     35  NE        27.9960  -29.2630  -17.0150 N.pl3  58  ARG58      -0.0865
     36  CZ        28.7980  -30.3020  -16.8010 C.cat  58  ARG58       0.5346
     37  NH1       28.6680  -31.0300  -15.6980 N.pl3  58  ARG58       0.1354
     38  NH2       29.7500  -30.5980  -17.6750 N.pl3  58  ARG58       0.1354
     39  N         21.5010  -27.3710  -15.0390 N.am   59  PHE59      -0.1960
     40  CA        20.6230  -27.3330  -13.8760 C.3    59  PHE59       0.1756
     41  C         19.1670  -27.3740  -14.3030 C.2    59  PHE59       0.2461
     42  O         18.8490  -26.9830  -15.4290 O.2    59  PHE59      -0.2730
     43  CB        20.9260  -26.0960  -13.0270 C.3    59  PHE59       0.0574
     44  CG        22.2620  -26.1560  -12.3300 C.ar   59  PHE59      -0.0200
     45  CD1       23.4300  -25.8740  -13.0160 C.ar   59  PHE59      -0.0042
     46  CD2       22.3530  -26.5690  -11.0090 C.ar   59  PHE59      -0.0042
     47  CE1       24.6610  -25.9500  -12.3870 C.ar   59  PHE59      -0.0003
     48  CE2       23.5850  -26.6650  -10.3790 C.ar   59  PHE59      -0.0003
     49  CZ        24.7400  -26.3650  -11.0740 C.ar   59  PHE59      -0.0000
     50  N         18.3120  -28.0280  -13.4930 N.am   60  PRO60      -0.2716
     51  CA        16.8990  -28.1840  -13.8240 C.3    60  PRO60       0.1536
     52  C         16.1560  -26.8510  -13.8050 C.2    60  PRO60       0.2598
     53  O         16.6060  -25.9030  -13.1570 O.2    60  PRO60      -0.2715
     54  CB        16.3780  -29.0820  -12.6970 C.3    60  PRO60       0.0310
     55  CG        17.2510  -28.7440  -11.5340 C.3    60  PRO60       0.0237
     56  CD        18.6150  -28.5210  -12.1370 C.3    60  PRO60       0.0939
     57  N         15.0440  -26.7790  -14.5310 N.am   61  PHE61      -0.1974
     58  CA        14.2200  -25.5780  -14.5470 C.3    61  PHE61       0.1639
     59  C         13.3660  -25.5150  -13.2900 C.2    61  PHE61       0.2290
     60  O         13.0790  -26.5360  -12.6670 O.2    61  PHE61      -0.2864
     61  CB        13.3220  -25.5410  -15.7900 C.3    61  PHE61       0.0560
     62  CG        14.0780  -25.4040  -17.0820 C.ar   61  PHE61      -0.0200
     63  CD1       14.7850  -24.2470  -17.3690 C.ar   61  PHE61      -0.0042
     64  CD2       14.1260  -26.4560  -17.9870 C.ar   61  PHE61      -0.0042
     65  CE1       15.5360  -24.1440  -18.5230 C.ar   61  PHE61      -0.0003
     66  CE2       14.8530  -26.3490  -19.1610 C.ar   61  PHE61      -0.0003
     67  CZ        15.5680  -25.1970  -19.4250 C.ar   61  PHE61      -0.0000
     68  N         11.9530  -28.0890  -26.1730 N.3   267  THR267     -0.1203
     69  CA        13.0490  -29.0000  -25.8700 C.3   267  THR267      0.1994
     70  C         13.7320  -28.6470  -24.5530 C.2   267  THR267      0.2618
     71  O         14.1870  -29.5320  -23.8270 O.2   267  THR267     -0.2717
     72  CB        14.1130  -28.9830  -26.9790 C.3   267  THR267      0.1784
     73  OG1       14.5760  -27.6430  -27.1740 O.3   267  THR267     -0.2211
     74  CG2       13.5400  -29.5180  -28.2880 C.3   267  THR267      0.0376
     75  N         13.9030  -27.3500  -24.3070 N.am  268  GLY268     -0.1942
     76  CA        14.6430  -26.8770  -23.1390 C.3   268  GLY268      0.2014
     77  C         16.0670  -26.4560  -23.4550 C.2   268  GLY268      0.2638
     78  O         16.8220  -26.0620  -22.5620 O.2   268  GLY268     -0.2714
     79  N         16.4380  -26.5300  -24.7290 N.am  269  GLU269     -0.1977
     80  CA        17.7780  -26.1420  -25.1540 C.3   269  GLU269      0.1602
     81  C         17.9770  -24.6300  -25.0900 C.2   269  GLU269      0.2287
     82  O         17.0910  -23.8590  -25.4620 O.2   269  GLU269     -0.2864
     83  CB        18.0670  -26.6400  -26.5720 C.3   269  GLU269      0.0415
     84  CG        17.8360  -28.1310  -26.7810 C.3   269  GLU269      0.1163
     85  CD        17.6930  -28.4900  -28.2500 C.2   269  GLU269      0.3649
     86  OE1       18.5030  -27.9950  -29.0660 O.co2 269  GLU269     -0.2457
     87  OE2       16.7400  -29.2210  -28.5960 O.co2 269  GLU269     -0.2457
     88  N         16.7220  -20.9480  -12.7540 N.3   293  ARG293     -0.1245
     89  CA        16.2090  -21.1890  -14.1010 C.3   293  ARG293      0.1563
     90  C         14.6900  -21.2310  -14.1050 C.2   293  ARG293      0.2260
     91  O         14.0770  -22.2380  -14.4670 O.2   293  ARG293     -0.2867
     92  CB        16.7820  -22.4870  -14.6690 C.3   293  ARG293      0.0307
     93  CG        18.2940  -22.5230  -14.6810 C.3   293  ARG293      0.0489
     94  CD        18.8010  -23.6300  -15.5920 C.3   293  ARG293      0.2205
     95  NE        18.7410  -23.2430  -16.9980 N.pl3 293  ARG293     -0.0865
     96  CZ        18.7250  -24.1070  -18.0070 C.cat 293  ARG293      0.5346
     97  NH1       18.7530  -25.4140  -17.7640 N.pl3 293  ARG293      0.1354
     98  NH2       18.7020  -23.6670  -19.2600 N.pl3 293  ARG293      0.1354
@<TRIPOS>BOND
     1    86    85   ar
     2    87    85   ar
     3    74    72    1
     4    85    84    1
     5    73    72    1
     6    72    69    1
     7    84    83    1
     8    83    80    1
     9    68    69    1
    10    69    70    1
    11    82    81    2
    12    80    81    1
    13    80    79    1
    14    79    77   am
    15    70    75   am
    16    70    71    2
    17    75    76    1
    18    77    76    1
    19    77    78    2
    20    27    26    1
    21    26    23    1
    22    67    66   ar
    23    67    65   ar
    24    98    96    1
    25    66    64   ar
    26    23    24    1
    27    23    22    1
    28    65    63   ar
    29    25    24    2
    30    24    28   am
    31    96    97    1
    32    96    95    2
    33    64    62   ar
    34    38    36    1
    35    63    62   ar
    36    28    29    1
    37    62    61    1
    38    35    36    2
    39    35    34    1
    40    95    94    1
    41    33    34    1
    42    33    32    1
    43    36    37    1
    44    29    32    1
    45    29    30    1
    46    61    58    1
    47    94    93    1
    48    30    31    2
    49    30    39   am
    50    42    41    2
    51    39    40    1
    52    93    92    1
    53    92    89    1
    54    58    57    1
    55    58    59    1
    56    57    52   am
    57    91    90    2
    58    41    40    1
    59    41    50   am
    60    90    89    1
    61    89    88    1
    62    40    43    1
    63    51    52    1
    64    51    50    1
    65    51    54    1
    66    52    53    2
    67    50    56    1
    68    59    60    2
    69    13    12    2
    70    43    44    1
    71    45    47   ar
    72    45    44   ar
    73    20    19    1
    74    54    55    1
    75    47    49   ar
    76    44    46   ar
    77    56    55    1
    78    14    11    1
    79    12    11    1
    80    11    10    1
    81    19    21    1
    82    19    16    1
    83    49    48   ar
    84     4     3    2
    85    46    48   ar
    86    16    15    1
    87    16    17    1
    88    10     3   am
    89     3     2    1
    90    17    18    2
    91     2     5    1
    92     2     1    1
    93     5     6    1
    94     8     7   ar
    95     6     7    1
    96     7     9   ar
