@<TRIPOS>MOLECULE
tmp/2y4nA01.pdb
 207 203 0 0 0
SMALL
GASTEIGER

@<TRIPOS>ATOM
      1  N         -8.0180   21.7130   11.7780 N.3    65  LYS65      -0.1245
      2  CA        -8.1090   21.1190   10.4500 C.3    65  LYS65       0.1561
      3  C         -8.3070   22.2060    9.4020 C.2    65  LYS65       0.2260
      4  O         -7.6940   22.1610    8.3270 O.2    65  LYS65      -0.2867
      5  CB        -9.2540   20.1000   10.3970 C.3    65  LYS65       0.0271
      6  CG        -9.1680   19.1130    9.2310 C.3    65  LYS65       0.0035
      7  CD        -9.9820   17.8640    9.5180 C.3    65  LYS65       0.0206
      8  CE        -9.5890   16.7230    8.5950 C.3    65  LYS65       0.1093
      9  NZ        -9.5190   15.4170    9.3170 N.3    65  LYS65      -0.1314
     10  N         -5.4790   -2.8960    7.4990 N.3   131  TYR131     -0.1241
     11  CA        -5.6660   -1.4600    7.2820 C.3   131  TYR131      0.1605
     12  C         -5.4480   -1.0840    5.8200 C.2   131  TYR131      0.2264
     13  O         -4.5590   -1.6190    5.1510 O.2   131  TYR131     -0.2867
     14  CB        -4.7200   -0.6370    8.1720 C.3   131  TYR131      0.0534
     15  CG        -5.0140   -0.6970    9.6570 C.ar  131  TYR131     -0.0201
     16  CD1       -6.2190   -0.2210   10.1770 C.ar  131  TYR131     -0.0009
     17  CD2       -4.0530   -1.1420   10.5460 C.ar  131  TYR131     -0.0009
     18  CE1       -6.4550   -0.2160   11.5570 C.ar  131  TYR131      0.0417
     19  CE2       -4.2560   -1.0970   11.9180 C.ar  131  TYR131      0.0417
     20  CZ        -5.4780   -0.6850   12.4150 C.ar  131  TYR131      0.1957
     21  OH        -5.6610   -0.6610   13.7770 O.3   131  TYR131     -0.2866
     22  N         -4.5030    6.7840    2.6480 N.3   136  PHE136     -0.1227
     23  CA        -4.7990    6.6080    4.0660 C.3   136  PHE136      0.1736
     24  C         -3.4820    6.3060    4.7960 C.2   136  PHE136      0.2596
     25  O         -2.5850    5.7300    4.2020 O.2   136  PHE136     -0.2718
     26  CB        -5.7820    5.4440    4.2450 C.3   136  PHE136      0.0547
     27  CG        -6.1500    5.1710    5.6720 C.ar  136  PHE136     -0.0202
     28  CD1       -6.5950    6.1910    6.4940 C.ar  136  PHE136     -0.0042
     29  CD2       -6.2170    3.8700    6.1390 C.ar  136  PHE136     -0.0042
     30  CE1       -6.9620    5.9360    7.7990 C.ar  136  PHE136     -0.0003
     31  CE2       -6.5640    3.6110    7.4400 C.ar  136  PHE136     -0.0003
     32  CZ        -6.9450    4.6440    8.2740 C.ar  136  PHE136     -0.0000
     33  N         -3.3520    6.7210    6.0590 N.am  137  THR137     -0.1939
     34  CA        -2.1120    6.4630    6.8030 C.3   137  THR137      0.2028
     35  C         -2.0380    5.0590    7.4060 C.2   137  THR137      0.2642
     36  O         -0.9670    4.5950    7.7840 O.2   137  THR137     -0.2714
     37  CB        -1.8490    7.4950    7.9190 C.3   137  THR137      0.1808
     38  OG1       -2.9590    7.5290    8.8130 O.3   137  THR137     -0.2208
     39  CG2       -1.5970    8.9070    7.3430 C.3   137  THR137      0.0379
     40  N         -3.1820    4.4060    7.5580 N.am  138  GLY138     -0.1954
     41  CA        -3.2380    3.1720    8.3360 C.3   138  GLY138      0.1869
     42  C         -2.3570    2.0430    7.8230 C.2   138  GLY138      0.2309
     43  O         -1.5510    1.4930    8.5740 O.2   138  GLY138     -0.2863
     44  N         -7.5890    0.1350   15.6870 N.3   208  GLY208     -0.1210
     45  CA        -7.7370    1.5790   15.8160 C.3   208  GLY208      0.1956
     46  C         -8.3960    2.1880   14.5930 C.2   208  GLY208      0.2612
     47  O         -8.9440    1.4670   13.7590 O.2   208  GLY208     -0.2717
     48  N         -8.2350    3.5010   14.4390 N.am  209  ALA209     -0.1965
     49  CA        -8.7930    4.2750   13.3180 C.3   209  ALA209      0.1728
     50  C        -10.2210    4.7760   13.5480 C.2   209  ALA209      0.2616
     51  O        -10.7520    5.5430   12.7520 O.2   209  ALA209     -0.2715
     52  CB        -8.6960    3.5140   12.0070 C.3   209  ALA209      0.0334
     53  N        -10.8120    4.3750   14.6620 N.am  210  GLU210     -0.1964
     54  CA       -12.2260    4.6240   14.8980 C.3   210  GLU210      0.1718
     55  C        -12.5320    4.2620   16.3360 C.2   210  GLU210      0.2458
     56  O        -11.8010    3.4870   16.9510 O.2   210  GLU210     -0.2730
     57  CB       -13.0970    3.8070   13.9320 C.3   210  GLU210      0.0428
     58  CG       -13.1110    2.2980   14.2120 C.3   210  GLU210      0.1163
     59  CD       -13.9510    1.5200   13.2130 C.2   210  GLU210      0.3649
     60  OE1      -14.7960    2.1420   12.5310 O.co2 210  GLU210     -0.2457
     61  OE2      -13.8020    0.2770   13.1350 O.co2 210  GLU210     -0.2457
     62  N        -13.5410    4.9200   16.9160 N.am  211  PRO211     -0.2716
     63  CA       -13.8950    4.6870   18.3060 C.3   211  PRO211      0.1536
     64  C        -14.5070    3.3020   18.4790 C.2   211  PRO211      0.2598
     65  O        -15.1790    2.8120   17.5720 O.2   211  PRO211     -0.2715
     66  CB       -14.9430    5.7710   18.5830 C.3   211  PRO211      0.0310
     67  CG       -14.6880    6.8280   17.5480 C.3   211  PRO211      0.0237
     68  CD       -14.2990    6.0370   16.3340 C.3   211  PRO211      0.0939
     69  N        -14.1190    2.6190   19.5530 N.am  212  TRP212     -0.1974
     70  CA       -14.6820    1.3150   19.8920 C.3   212  TRP212      0.1640
     71  C        -14.6320    1.1240   21.4050 C.2   212  TRP212      0.2290
     72  O        -13.6590    1.5130   22.0470 O.2   212  TRP212     -0.2864
     73  CB       -13.9280    0.1770   19.1770 C.3   212  TRP212      0.0576
     74  CG       -12.4460    0.1250   19.4560 C.ar  212  TRP212      0.0006
     75  CD1      -11.5270    1.1020   19.1850 C.ar  212  TRP212      0.0946
     76  CD2      -11.6960   -1.0000   19.9440 C.ar  212  TRP212      0.0152
     77  NE1      -10.2680    0.6870   19.5590 N.ar  212  TRP212     -0.2442
     78  CE2      -10.3460   -0.5980   20.0290 C.ar  212  TRP212      0.0810
     79  CE3      -12.0440   -2.2850   20.3770 C.ar  212  TRP212      0.0012
     80  CZ2       -9.3370   -1.4520   20.4860 C.ar  212  TRP212      0.0191
     81  CZ3      -11.0340   -3.1480   20.7860 C.ar  212  TRP212      0.0001
     82  CH2       -9.7030   -2.7080   20.8850 C.ar  212  TRP212      0.0015
     83  N         -5.4150   -1.1700   21.7330 N.3   230  ASP230     -0.1225
     84  CA        -5.9790    0.0390   21.1520 C.3   230  ASP230      0.1805
     85  C         -4.8090    0.8560   20.6080 C.2   230  ASP230      0.2598
     86  O         -3.9610    1.3150   21.3780 O.2   230  ASP230     -0.2718
     87  CB        -6.6770    0.8290   22.2660 C.3   230  ASP230      0.1424
     88  CG        -7.6690    1.8480   21.7460 C.2   230  ASP230      0.3668
     89  OD1       -7.7330    2.0650   20.5210 O.co2 230  ASP230     -0.2456
     90  OD2       -8.3210    2.5100   22.5850 O.co2 230  ASP230     -0.2456
     91  N         -4.7300    0.9880   19.2890 N.am  231  ILE231     -0.1966
     92  CA        -3.7170    1.8640   18.6790 C.3   231  ILE231      0.1727
     93  C         -4.3550    3.1300   18.1140 C.2   231  ILE231      0.2616
     94  O         -5.4180    3.0790   17.5040 O.2   231  ILE231     -0.2715
     95  CB        -2.8980    1.1330   17.5910 C.3   231  ILE231      0.0290
     96  CG1       -1.7170    2.0000   17.1200 C.3   231  ILE231      0.0022
     97  CG2       -3.7910    0.7110   16.4100 C.3   231  ILE231      0.0023
     98  CD1       -0.7910    1.2740   16.1850 C.3   231  ILE231      0.0001
     99  N         -3.7740    4.2780   18.4460 N.am  232  TYR232     -0.1960
    100  CA        -4.4070    5.5630   18.1520 C.3   232  TYR232      0.1771
    101  C         -3.5150    6.4210   17.2620 C.2   232  TYR232      0.2620
    102  O         -2.2870    6.3130   17.2980 O.2   232  TYR232     -0.2715
    103  CB        -4.7280    6.3010   19.4500 C.3   232  TYR232      0.0574
    104  CG        -5.1510    7.7430   19.2560 C.ar  232  TYR232     -0.0198
    105  CD1       -6.4860    8.0730   19.0180 C.ar  232  TYR232     -0.0009
    106  CD2       -4.2160    8.7660   19.2740 C.ar  232  TYR232     -0.0009
    107  CE1       -6.8720    9.3920   18.8110 C.ar  232  TYR232      0.0417
    108  CE2       -4.5860   10.0820   19.0640 C.ar  232  TYR232      0.0417
    109  CZ        -5.9140   10.3920   18.8330 C.ar  232  TYR232      0.1957
    110  OH        -6.2900   11.7120   18.6940 O.3   232  TYR232     -0.2866
    111  N         -4.1320    7.2440   16.4300 N.am  233  GLY233     -0.1940
    112  CA        -3.3870    8.2700   15.7100 C.3   233  GLY233      0.2014
    113  C         -4.3140    9.0650   14.8130 C.2   233  GLY233      0.2639
    114  O         -5.5000    8.7770   14.7420 O.2   233  GLY233     -0.2714
    115  N         -3.7770   10.1060   14.1860 N.am  234  LEU234     -0.1963
    116  CA        -4.5020   10.8810   13.1840 C.3   234  LEU234      0.1728
    117  C         -3.4800   11.4630   12.2270 C.2   234  LEU234      0.2617
    118  O         -2.3260   11.6570   12.5960 O.2   234  LEU234     -0.2715
    119  CB        -5.3070   12.0120   13.8400 C.3   234  LEU234      0.0311
    120  CG        -4.5500   13.1130   14.5940 C.3   234  LEU234      0.0022
    121  CD1       -5.4210   14.3580   14.6950 C.3   234  LEU234      0.0001
    122  CD2       -4.1280   12.6530   15.9900 C.3   234  LEU234      0.0001
    123  N         -3.8620   11.5420   10.9600 N.am  235  SER235     -0.1936
    124  CA        -2.9300   11.7610    9.8780 C.3   235  SER235      0.2055
    125  C         -2.2590   13.1390    9.9860 C.2   235  SER235      0.2642
    126  O         -1.0970   13.3050    9.6060 O.2   235  SER235     -0.2714
    127  CB        -3.6740   11.6230    8.5520 C.3   235  SER235      0.2130
    128  OG        -4.5480   12.7210    8.3600 O.3   235  SER235     -0.2179
    129  N         -2.9390   14.0790   10.6420 N.am  236  GLU236     -0.1976
    130  CA        -2.4240   15.4440   10.7680 C.3   236  GLU236      0.1602
    131  C         -1.2200   15.4580   11.7010 C.2   236  GLU236      0.2287
    132  O         -0.3250   16.2860   11.5620 O.2   236  GLU236     -0.2864
    133  CB        -3.5110   16.3870   11.3110 C.3   236  GLU236      0.0415
    134  CG        -4.6730   16.6130   10.3370 C.3   236  GLU236      0.1163
    135  CD        -5.7800   15.5820   10.4730 C.2   236  GLU236      0.3649
    136  OE1       -5.5830   14.5620   11.1730 O.co2 236  GLU236     -0.2457
    137  OE2       -6.8540   15.7940    9.8680 O.co2 236  GLU236     -0.2457
    138  N         -0.2130    9.6840   11.8890 N.3   239  GLY239     -0.1210
    139  CA        -0.6810    8.3720   11.4340 C.3   239  GLY239      0.1940
    140  C         -0.9250    7.4910   12.6440 C.2   239  GLY239      0.2453
    141  O         -0.8870    7.9780   13.7760 O.2   239  GLY239     -0.2732
    142  N         -1.1690    6.1850   12.4240 N.am  240  PRO240     -0.2728
    143  CA        -1.2350    5.2830   13.5680 C.3   240  PRO240      0.1401
    144  C          0.0960    5.3350   14.3050 C.2   240  PRO240      0.2269
    145  O          1.1400    5.5890   13.6850 O.2   240  PRO240     -0.2865
    146  CB        -1.4030    3.9020   12.9130 C.3   240  PRO240      0.0296
    147  CG        -0.8010    4.0550   11.5470 C.3   240  PRO240      0.0237
    148  CD        -1.1760    5.4550   11.1420 C.3   240  PRO240      0.0939
    149  N         -4.4610    3.8710   25.4750 N.3   253  PRO253     -0.2116
    150  CA        -3.2220    4.0590   24.7150 C.3   253  PRO253      0.1372
    151  C         -2.1880    4.8660   25.5070 C.2   253  PRO253      0.2244
    152  O         -2.4990    5.9400   26.0260 O.2   253  PRO253     -0.2868
    153  CB        -3.6890    4.8440   23.4890 C.3   253  PRO253      0.0268
    154  CG        -5.1130    4.3820   23.2800 C.3   253  PRO253      0.0207
    155  CD        -5.6660    4.1180   24.6620 C.3   253  PRO253      0.0892
    156  N         -7.4650   17.9430   18.0740 N.3   298  THR298     -0.1218
    157  CA        -7.8250   16.6880   17.4260 C.3   298  THR298      0.1862
    158  C         -9.3470   16.5280   17.3000 C.2   298  THR298      0.2287
    159  O         -9.8160   15.6600   16.5690 O.2   298  THR298     -0.2866
    160  CB        -7.3100   15.4740   18.2110 C.3   298  THR298      0.1770
    161  OG1       -7.9630   15.4340   19.4810 O.3   298  THR298     -0.2211
    162  CG2       -5.7830   15.5360   18.4170 C.3   298  THR298      0.0375
    163  N        -10.9010   15.0510   19.5160 N.3   300  ASP300     -0.1239
    164  CA       -11.1570   13.8690   20.3350 C.3   300  ASP300      0.1674
    165  C        -11.2390   14.2350   21.8080 C.2   300  ASP300      0.2266
    166  O        -10.4330   15.0140   22.3160 O.2   300  ASP300     -0.2867
    167  CB       -10.0780   12.7970   20.1160 C.3   300  ASP300      0.1410
    168  CG       -10.0300   12.2990   18.6830 C.2   300  ASP300      0.3668
    169  OD1      -11.1090   12.1230   18.0720 O.co2 300  ASP300     -0.2456
    170  OD2       -8.9090   12.1420   18.1400 O.co2 300  ASP300     -0.2456
    171  N         -9.2590    5.8320   26.8220 N.3   317  LYS317     -0.1231
    172  CA        -9.9460    5.4630   25.5970 C.3   317  LYS317      0.1693
    173  C        -10.9370    6.5590   25.2210 C.2   317  LYS317      0.2591
    174  O        -11.6100    7.1230   26.0780 O.2   317  LYS317     -0.2718
    175  CB       -10.6730    4.1300   25.7670 C.3   317  LYS317      0.0285
    176  CG       -11.6000    3.7740   24.6100 C.3   317  LYS317      0.0035
    177  CD       -12.1600    2.3690   24.7730 C.3   317  LYS317      0.0206
    178  CE       -11.2540    1.3410   24.1300 C.3   317  LYS317      0.1093
    179  NZ       -11.2620    1.4520   22.6420 N.3   317  LYS317     -0.1314
    180  N        -11.0130    6.8640   23.9330 N.am  318  ILE318     -0.1980
    181  CA       -11.6190    8.1070   23.4950 C.3   318  ILE318      0.1595
    182  C        -13.1360    8.0940   23.6920 C.2   318  ILE318      0.2287
    183  O        -13.8340    7.2250   23.1660 O.2   318  ILE318     -0.2864
    184  CB       -11.2150    8.4490   22.0520 C.3   318  ILE318      0.0276
    185  CG1       -9.7460    8.8930   22.0290 C.3   318  ILE318      0.0022
    186  CG2      -12.1280    9.5140   21.4690 C.3   318  ILE318      0.0022
    187  CD1       -9.3510    9.6860   20.8170 C.3   318  ILE318      0.0001
    188  N        -15.9640   12.0810   20.0980 N.3   321  ARG321     -0.1245
    189  CA       -15.3310   13.1000   19.2820 C.3   321  ARG321      0.1563
    190  C        -16.4230   13.9280   18.6320 C.2   321  ARG321      0.2260
    191  O        -17.5340   13.4440   18.4270 O.2   321  ARG321     -0.2867
    192  CB       -14.4690   12.4470   18.2050 C.3   321  ARG321      0.0307
    193  CG       -15.0570   11.1700   17.6490 C.3   321  ARG321      0.0489
    194  CD       -14.2880   10.6890   16.4320 C.3   321  ARG321      0.2205
    195  NE       -15.0940    9.7950   15.6030 N.pl3 321  ARG321     -0.0865
    196  CZ       -14.6240    9.1210   14.5580 C.cat 321  ARG321      0.5346
    197  NH1      -13.3510    9.2490   14.1980 N.pl3 321  ARG321      0.1354
    198  NH2      -15.4290    8.3280   13.8630 N.pl3 321  ARG321      0.1354
    199  N        -13.1800    2.2270    8.3270 N.3   417  LYS417     -0.1245
    200  CA       -13.9880    2.9030    9.3310 C.3   417  LYS417      0.1561
    201  C        -15.4640    2.7310    9.0120 C.2   417  LYS417      0.2260
    202  O        -15.8910    2.9690    7.8800 O.2   417  LYS417     -0.2867
    203  CB       -13.6460    4.3900    9.3930 C.3   417  LYS417      0.0271
    204  CG       -12.2000    4.6860    9.7110 C.3   417  LYS417      0.0035
    205  CD       -11.8650    6.1300    9.3570 C.3   417  LYS417      0.0206
    206  CE       -10.4390    6.4800    9.7760 C.3   417  LYS417      0.1093
    207  NZ       -10.1030    7.8840    9.4400 N.3   417  LYS417     -0.1314
@<TRIPOS>BOND
     1    22    23    1
     2    23    26    1
     3    23    24    1
     4    25    24    2
     5    26    27    1
     6    24    33   am
     7    13    12    2
     8    27    29   ar
     9    27    28   ar
    10    12    11    1
    11    33    34    1
    12    29    31   ar
    13    28    30   ar
    14    34    35    1
    15    34    37    1
    16    11    10    1
    17    11    14    1
    18    39    37    1
    19    35    40   am
    20    35    36    2
    21    31    32   ar
    22    40    41    1
    23    30    32   ar
    24    42    41    1
    25    42    43    2
    26   202   201    2
    27    37    38    1
    28    14    15    1
    29   199   200    1
    30     4     3    2
    31   128   127    1
    32   127   124    1
    33     8     9    1
    34     8     7    1
    35   201   200    1
    36     6     7    1
    37     6     5    1
    38   200   203    1
    39   205   204    1
    40   205   206    1
    41   203   204    1
    42     3     2    1
    43   207   206    1
    44   126   125    2
    45    15    16   ar
    46    15    17   ar
    47   137   135   ar
    48   124   125    1
    49   124   123    1
    50   125   129   am
    51    16    18   ar
    52   134   135    1
    53   134   133    1
    54     5     2    1
    55     2     1    1
    56   135   136   ar
    57    17    19   ar
    58   129   130    1
    59   130   133    1
    60   130   131    1
    61   123   117   am
    62   148   147    1
    63   148   142    1
    64   139   138    1
    65   139   140    1
    66   147   146    1
    67    18    20   ar
    68   132   131    2
    69    19    20   ar
    70    52    49    1
    71   117   118    2
    72   117   116    1
    73    20    21    1
    74   142   140   am
    75   142   143    1
    76    60    59   ar
    77   140   141    2
    78    51    50    2
    79   146   143    1
    80    61    59   ar
    81   116   119    1
    82   116   115    1
    83    59    58    1
    84    49    50    1
    85    49    48    1
    86    50    53   am
    87   143   144    1
    88   145   144    2
    89    47    46    2
    90   119   120    1
    91   198   196    1
    92    57    58    1
    93    57    54    1
    94   115   113   am
    95   197   196    1
    96    48    46   am
    97   196   195    2
    98    46    45    1
    99   120   121    1
   100   120   122    1
   101    53    54    1
   102   114   113    2
   103   113   112    1
   104    54    55    1
   105   195   194    1
   106    44    45    1
   107   112   111    1
   108    98    96    1
   109    68    62    1
   110    68    67    1
   111    55    62   am
   112    55    56    2
   113    97    95    1
   114   111   101   am
   115   194   193    1
   116   159   158    2
   117    62    63    1
   118    96    95    1
   119   101   102    2
   120   101   100    1
   121   158   157    1
   122   157   156    1
   123   157   160    1
   124    94    93    2
   125    67    66    1
   126    65    64    2
   127    95    92    1
   128   193   192    1
   129   169   168   ar
   130    93    99   am
   131    93    92    1
   132   170   168   ar
   133   100    99    1
   134   100   103    1
   135   192   189    1
   136   160   162    1
   137   160   161    1
   138    63    64    1
   139    63    66    1
   140   191   190    2
   141    64    69   am
   142   190   189    1
   143    92    91    1
   144   168   167    1
   145   110   109    1
   146   107   109   ar
   147   107   105   ar
   148   109   108   ar
   149   105   104   ar
   150   108   106   ar
   151    73    74    1
   152    73    70    1
   153    75    74   ar
   154    75    77   ar
   155   104   106   ar
   156   104   103    1
   157   189   188    1
   158    91    85   am
   159    74    76   ar
   160   163   164    1
   161    69    70    1
   162    77    78   ar
   163    70    71    1
   164    76    78   ar
   165    76    79   ar
   166    78    80   ar
   167   167   164    1
   168   164   165    1
   169    79    81   ar
   170    80    82   ar
   171    89    88   ar
   172    85    84    1
   173    85    86    2
   174    81    82   ar
   175   187   185    1
   176    84    83    1
   177    84    87    1
   178    71    72    2
   179   186   184    1
   180    88    87    1
   181    88    90   ar
   182   165   166    2
   183   185   184    1
   184   184   181    1
   185   179   178    1
   186   183   182    2
   187   154   153    1
   188   154   155    1
   189   153   150    1
   190   181   182    1
   191   181   180    1
   192   180   173   am
   193   178   177    1
   194   176   177    1
   195   176   175    1
   196   155   149    1
   197   150   149    1
   198   150   151    1
   199   173   172    1
   200   173   174    2
   201   151   152    2
   202   172   175    1
   203   172   171    1
