@<TRIPOS>MOLECULE
tmp/2y4nA00.pdb
 93 87 0 0 0
SMALL
GASTEIGER

@<TRIPOS>ATOM
      1  N        -14.6480   -0.5530   25.2520 N.3   214  ASN214     -0.1240
      2  CA       -14.0560   -1.6910   25.9410 C.3   214  ASN214      0.1653
      3  C        -14.9600   -2.9180   25.9510 C.2   214  ASN214      0.2266
      4  O        -14.4770   -4.0490   25.9640 O.2   214  ASN214     -0.2867
      5  CB       -13.6520   -1.3090   27.3640 C.3   214  ASN214      0.1155
      6  CG       -12.3620   -0.5110   27.4030 C.2   214  ASN214      0.2627
      7  OD1      -11.4150   -0.8150   26.6750 O.2   214  ASN214     -0.2716
      8  ND2      -12.3600    0.5780   28.1620 N.am  214  ASN214     -0.0877
      9  N        -14.0900   -4.5030   22.9050 N.3   217  ARG217     -0.1245
     10  CA       -12.8040   -5.1690   23.1110 C.3   217  ARG217      0.1563
     11  C        -12.9840   -6.5790   23.6540 C.2   217  ARG217      0.2260
     12  O        -12.4510   -7.5400   23.0980 O.2   217  ARG217     -0.2867
     13  CB       -11.9280   -4.3640   24.0670 C.3   217  ARG217      0.0307
     14  CG       -10.4700   -4.8120   24.0830 C.3   217  ARG217      0.0489
     15  CD        -9.9460   -4.9290   25.5020 C.3   217  ARG217      0.2205
     16  NE        -9.7590   -3.6200   26.1130 N.pl3 217  ARG217     -0.0865
     17  CZ        -8.6710   -2.8700   25.9650 C.cat 217  ARG217      0.5346
     18  NH1       -7.6320   -3.3190   25.2660 N.pl3 217  ARG217      0.1354
     19  NH2       -8.6110   -1.6790   26.5380 N.pl3 217  ARG217      0.1354
     20  N         -1.6210    1.0810   23.1600 N.3   245  GLU245     -0.1245
     21  CA        -1.8990    0.4640   24.4450 C.3   245  GLU245      0.1567
     22  C         -0.8430   -0.6020   24.7370 C.2   245  GLU245      0.2260
     23  O         -0.4910   -1.3870   23.8670 O.2   245  GLU245     -0.2867
     24  CB        -3.2860   -0.1640   24.4010 C.3   245  GLU245      0.0388
     25  CG        -3.9210   -0.4310   25.7460 C.3   245  GLU245      0.1160
     26  CD        -5.3860   -0.7970   25.6130 C.2   245  GLU245      0.3649
     27  OE1       -5.7250   -1.5670   24.6880 O.co2 245  GLU245     -0.2457
     28  OE2       -6.2090   -0.2470   26.3730 O.co2 245  GLU245     -0.2457
     29  N         -3.5240   -2.8970   29.3940 N.3   250  LYS250     -0.1231
     30  CA        -4.7450   -2.6220   28.6470 C.3   250  LYS250      0.1693
     31  C         -5.5440   -1.4950   29.2950 C.2   250  LYS250      0.2592
     32  O         -6.7400   -1.6360   29.5690 O.2   250  LYS250     -0.2718
     33  CB        -5.5950   -3.8860   28.5430 C.3   250  LYS250      0.0285
     34  CG        -4.8790   -5.0420   27.8550 C.3   250  LYS250      0.0035
     35  CD        -5.8360   -6.1740   27.5630 C.3   250  LYS250      0.0206
     36  CE        -5.1360   -7.3660   26.9320 C.3   250  LYS250      0.1093
     37  NZ        -6.0900   -8.5140   26.8530 N.3   250  LYS250     -0.1314
     38  N         -4.8730   -0.3770   29.5360 N.am  251  ASP251     -0.1960
     39  CA        -5.4300    0.6970   30.3510 C.3   251  ASP251      0.1840
     40  C         -5.4470    2.0220   29.5960 C.2   251  ASP251      0.2623
     41  O         -5.2870    3.0850   30.1850 O.2   251  ASP251     -0.2715
     42  CB        -4.6720    0.8240   31.6810 C.3   251  ASP251      0.1450
     43  CG        -3.1610    0.9640   31.5040 C.2   251  ASP251      0.3671
     44  OD1       -2.6490    0.8320   30.3710 O.co2 251  ASP251     -0.2456
     45  OD2       -2.4750    1.2040   32.5200 O.co2 251  ASP251     -0.2456
     46  N         -5.6860    1.9490   28.2920 N.am  252  GLY252     -0.1940
     47  CA        -5.6920    3.1390   27.4440 C.3   252  GLY252      0.1998
     48  C         -4.3930    3.2820   26.6720 C.2   252  GLY252      0.2480
     49  O         -3.3430    2.8230   27.1210 O.2   252  GLY252     -0.2729
     50  N         -4.4610    3.8710   25.4750 N.am  253  PRO253     -0.2726
     51  CA        -3.2220    4.0590   24.7150 C.3   253  PRO253      0.1402
     52  C         -2.1880    4.8660   25.5070 C.2   253  PRO253      0.2269
     53  O         -2.4990    5.9400   26.0260 O.2   253  PRO253     -0.2865
     54  CB        -3.6890    4.8440   23.4890 C.3   253  PRO253      0.0296
     55  CG        -5.1130    4.3820   23.2800 C.3   253  PRO253      0.0237
     56  CD        -5.6660    4.1180   24.6620 C.3   253  PRO253      0.0939
     57  N         -3.7000   10.5190   31.8520 N.3   305  LEU305     -0.1245
     58  CA        -3.6060    9.6580   33.0180 C.3   305  LEU305      0.1561
     59  C         -2.1440    9.2880   33.2120 C.2   305  LEU305      0.2260
     60  O         -1.3910    9.1850   32.2420 O.2   305  LEU305     -0.2867
     61  CB        -4.4330    8.3870   32.8110 C.3   305  LEU305      0.0270
     62  CG        -5.9400    8.5300   32.5690 C.3   305  LEU305      0.0019
     63  CD1       -6.5380    7.1890   32.1710 C.3   305  LEU305      0.0001
     64  CD2       -6.6480    9.0880   33.8060 C.3   305  LEU305      0.0001
     65  N         -0.8480    8.1500   29.6580 N.3   314  ARG314     -0.1245
     66  CA        -1.8600    7.5850   28.7580 C.3   314  ARG314      0.1563
     67  C         -2.9700    8.5910   28.4370 C.2   314  ARG314      0.2260
     68  O         -3.1420    9.5710   29.1600 O.2   314  ARG314     -0.2867
     69  CB        -2.4800    6.3270   29.3700 C.3   314  ARG314      0.0307
     70  CG        -1.4790    5.2770   29.8470 C.3   314  ARG314      0.0489
     71  CD        -2.1500    4.3520   30.8600 C.3   314  ARG314      0.2205
     72  NE        -2.1680    4.9470   32.1950 N.pl3 314  ARG314     -0.0865
     73  CZ        -3.2050    4.9140   33.0260 C.cat 314  ARG314      0.5346
     74  NH1       -4.3350    4.3170   32.6690 N.pl3 314  ARG314      0.1354
     75  NH2       -3.1040    5.4840   34.2210 N.pl3 314  ARG314      0.1354
     76  N         -7.0920    8.2620   28.2680 N.3   316  GLU316     -0.1231
     77  CA        -8.2720    7.4150   28.3780 C.3   316  GLU316      0.1699
     78  C         -8.7890    7.0590   26.9860 C.2   316  GLU316      0.2592
     79  O         -8.7010    7.8570   26.0590 O.2   316  GLU316     -0.2718
     80  CB        -9.3630    8.1190   29.1850 C.3   316  GLU316      0.0402
     81  CG       -10.2880    7.1790   29.9280 C.3   316  GLU316      0.1161
     82  CD       -11.1960    7.9090   30.8970 C.2   316  GLU316      0.3649
     83  OE1      -11.9970    8.7490   30.4330 O.co2 316  GLU316     -0.2457
     84  OE2      -11.0770    7.6710   32.1200 O.co2 316  GLU316     -0.2457
     85  N         -9.2590    5.8320   26.8220 N.am  317  LYS317     -0.1980
     86  CA        -9.9460    5.4630   25.5970 C.3   317  LYS317      0.1596
     87  C        -10.9370    6.5590   25.2210 C.2   317  LYS317      0.2287
     88  O        -11.6100    7.1230   26.0780 O.2   317  LYS317     -0.2864
     89  CB       -10.6730    4.1300   25.7670 C.3   317  LYS317      0.0298
     90  CG       -11.6000    3.7740   24.6100 C.3   317  LYS317      0.0038
     91  CD       -12.1600    2.3690   24.7730 C.3   317  LYS317      0.0206
     92  CE       -11.2540    1.3410   24.1300 C.3   317  LYS317      0.1093
     93  NZ       -11.2620    1.4520   22.6420 N.3   317  LYS317     -0.1314
@<TRIPOS>BOND
     1    93    92    1
     2     9    10    1
     3    12    11    2
     4    10    11    1
     5    10    13    1
     6    20    21    1
     7    55    54    1
     8    55    56    1
     9    54    51    1
    10    23    22    2
    11    13    14    1
    12    14    15    1
    13    92    91    1
    14    24    21    1
    15    24    25    1
    16    21    22    1
    17    90    91    1
    18    90    89    1
    19    56    50    1
    20    27    26   ar
    21    51    50    1
    22    51    52    1
    23    87    86    1
    24    87    88    2
    25     1     2    1
    26    18    17    1
    27    50    48   am
    28    15    16    1
    29    52    53    2
    30    86    89    1
    31    86    85    1
    32    26    25    1
    33    26    28   ar
    34     2     3    1
    35     2     5    1
    36     3     4    2
    37    17    16    2
    38    17    19    1
    39    79    78    2
    40    48    49    2
    41    48    47    1
    42     7     6    2
    43    85    78   am
    44    37    36    1
    45    36    35    1
    46    78    77    1
    47     5     6    1
    48     6     8   am
    49    47    46    1
    50    35    34    1
    51    34    33    1
    52    76    77    1
    53    46    40   am
    54    77    80    1
    55    67    66    1
    56    67    68    2
    57    33    30    1
    58    30    31    1
    59    30    29    1
    60    66    69    1
    61    66    65    1
    62    80    81    1
    63    31    38   am
    64    31    32    2
    65    69    70    1
    66    38    39    1
    67    40    41    2
    68    40    39    1
    69    70    71    1
    70    81    82    1
    71    39    42    1
    72    44    43   ar
    73    83    82   ar
    74    71    72    1
    75    82    84   ar
    76    43    42    1
    77    43    45   ar
    78    57    58    1
    79    63    62    1
    80    72    73    2
    81    60    59    2
    82    62    61    1
    83    62    64    1
    84    74    73    1
    85    61    58    1
    86    58    59    1
    87    73    75    1
