@<TRIPOS>MOLECULE
tmp/2y4oB01.pdb
 79 78 0 0 0
SMALL
GASTEIGER

@<TRIPOS>ATOM
      1  N         45.2060   35.8750   18.6310 N.3    46  ALA46      -0.1245
      2  CA        45.1110   34.4250   18.5610 C.3    46  ALA46       0.1562
      3  C         43.9480   33.9840   17.6860 C.2    46  ALA46       0.2260
      4  O         43.7460   32.7910   17.4800 O.2    46  ALA46      -0.2867
      5  CB        44.9840   33.8240   19.9580 C.3    46  ALA46       0.0290
      6  N         41.0190   25.4280   25.3080 N.3    60  ALA60      -0.1231
      7  CA        42.3370   25.2190   24.6800 C.3    60  ALA60       0.1694
      8  C         42.5560   26.1000   23.4540 C.2    60  ALA60       0.2592
      9  O         43.6740   26.2260   22.9630 O.2    60  ALA60      -0.2718
     10  CB        42.5460   23.7370   24.3200 C.3    60  ALA60       0.0304
     11  N         41.4980   26.7540   22.9870 N.am   61  LYS61      -0.1966
     12  CA        41.6440   27.7170   21.8920 C.3    61  LYS61       0.1728
     13  C         42.2840   29.0280   22.3270 C.2    61  LYS61       0.2616
     14  O         42.7070   29.8250   21.4900 O.2    61  LYS61      -0.2715
     15  CB        40.2970   27.9890   21.2150 C.3    61  LYS61       0.0311
     16  CG        39.6480   26.7640   20.5960 C.3    61  LYS61       0.0038
     17  CD        38.2920   27.1250   19.9980 C.3    61  LYS61       0.0206
     18  CE        37.5390   25.8860   19.5250 C.3    61  LYS61       0.1093
     19  NZ        38.4670   24.8220   19.0540 N.3    61  LYS61      -0.1314
     20  N         42.2590   29.3120   23.6250 N.am   62  PHE62      -0.1960
     21  CA        42.6430   30.6420   24.0940 C.3    62  PHE62       0.1756
     22  C         44.1380   30.6980   24.4400 C.2    62  PHE62       0.2461
     23  O         44.7420   29.6720   24.7700 O.2    62  PHE62      -0.2730
     24  CB        41.7630   31.0670   25.2730 C.3    62  PHE62       0.0574
     25  CG        40.3250   31.3290   24.8920 C.ar   62  PHE62      -0.0200
     26  CD1       39.4440   30.2730   24.6700 C.ar   62  PHE62      -0.0042
     27  CD2       39.8820   32.6260   24.6540 C.ar   62  PHE62      -0.0042
     28  CE1       38.1320   30.5050   24.2680 C.ar   62  PHE62      -0.0003
     29  CE2       38.5660   32.8710   24.2580 C.ar   62  PHE62      -0.0003
     30  CZ        37.7040   31.8010   24.0140 C.ar   62  PHE62      -0.0000
     31  N         44.7620   31.8760   24.2900 N.am   63  PRO63      -0.2716
     32  CA        46.1950   31.9600   24.5740 C.3    63  PRO63       0.1536
     33  C         46.4750   31.7880   26.0660 C.2    63  PRO63       0.2598
     34  O         45.6070   32.0730   26.8960 O.2    63  PRO63      -0.2715
     35  CB        46.5540   33.3830   24.1400 C.3    63  PRO63       0.0310
     36  CG        45.2830   34.1620   24.3600 C.3    63  PRO63       0.0237
     37  CD        44.1740   33.1980   23.9910 C.3    63  PRO63       0.0939
     38  N         47.7050   31.4020   26.3920 N.am   64  PHE64      -0.1974
     39  CA        48.1870   31.3860   27.7740 C.3    64  PHE64       0.1639
     40  C         48.5820   32.7870   28.2310 C.2    64  PHE64       0.2290
     41  O         49.0000   33.6140   27.4180 O.2    64  PHE64      -0.2864
     42  CB        49.3940   30.4640   27.8920 C.3    64  PHE64       0.0560
     43  CG        49.0820   29.0220   27.6020 C.ar   64  PHE64      -0.0200
     44  CD1       48.2390   28.3090   28.4360 C.ar   64  PHE64      -0.0042
     45  CD2       49.5970   28.3970   26.4740 C.ar   64  PHE64      -0.0042
     46  CE1       47.9670   26.9660   28.1950 C.ar   64  PHE64      -0.0003
     47  CE2       49.2450   27.0870   26.1640 C.ar   64  PHE64      -0.0003
     48  CZ        48.4250   26.3680   27.0280 C.ar   64  PHE64      -0.0000
     49  N         55.0280   22.0080   24.7210 N.3   273  THR273     -0.1203
     50  CA        54.1910   22.2270   23.5360 C.3   273  THR273      0.1994
     51  C         52.9370   23.0530   23.8380 C.2   273  THR273      0.2618
     52  O         52.2790   23.5460   22.9260 O.2   273  THR273     -0.2717
     53  CB        53.7640   20.9000   22.9220 C.3   273  THR273      0.1784
     54  OG1       52.8810   20.2300   23.8270 O.3   273  THR273     -0.2211
     55  CG2       54.9830   20.0150   22.6830 C.3   273  THR273      0.0376
     56  N         52.5060   23.0340   25.0940 N.am  274  GLY274     -0.1942
     57  CA        51.2600   23.6890   25.4720 C.3   274  GLY274      0.2014
     58  C         50.0260   22.8460   25.2440 C.2   274  GLY274      0.2638
     59  O         48.9090   23.2730   25.5510 O.2   274  GLY274     -0.2714
     60  N         50.2110   21.6160   24.7770 N.am  275  GLU275     -0.1977
     61  CA        49.0630   20.7550   24.5160 C.3   275  GLU275      0.1602
     62  C         48.3920   20.2830   25.8050 C.2   275  GLU275      0.2287
     63  O         49.0610   19.9560   26.7860 O.2   275  GLU275     -0.2864
     64  CB        49.4390   19.5850   23.5990 C.3   275  GLU275      0.0415
     65  CG        49.6110   18.2590   24.2970 C.3   275  GLU275      0.1163
     66  CD        49.4840   17.0690   23.3480 C.2   275  GLU275      0.3649
     67  OE1       48.5750   17.0640   22.4850 O.co2 275  GLU275     -0.2457
     68  OE2       50.2800   16.1210   23.4930 O.co2 275  GLU275     -0.2457
     69  N         43.9070   31.2910   31.5840 N.3   299  ARG299     -0.1245
     70  CA        44.8960   30.2770   31.2210 C.3   299  ARG299      0.1563
     71  C         46.2710   30.6920   31.7080 C.2   299  ARG299      0.2260
     72  O         47.2520   30.6710   30.9570 O.2   299  ARG299     -0.2867
     73  CB        44.8980   30.0460   29.6960 C.3   299  ARG299      0.0307
     74  CG        43.6360   29.3610   29.1960 C.3   299  ARG299      0.0489
     75  CD        43.8430   28.6870   27.8220 C.3   299  ARG299      0.2205
     76  NE        44.2230   27.2850   27.9600 N.pl3 299  ARG299     -0.0865
     77  CZ        44.8920   26.5780   27.0510 C.cat 299  ARG299      0.5346
     78  NH1       45.2710   27.1260   25.8960 N.pl3 299  ARG299      0.1354
     79  NH2       45.1260   25.2930   27.2760 N.pl3 299  ARG299      0.1354
@<TRIPOS>BOND
     1     4     3    2
     2     3     2    1
     3     2     1    1
     4     2     5    1
     5    19    18    1
     6    18    17    1
     7    17    16    1
     8    16    15    1
     9    15    12    1
    10    14    13    2
    11    12    13    1
    12    12    11    1
    13    13    20   am
    14    67    66   ar
    15    55    53    1
    16    53    50    1
    17    53    54    1
    18    52    51    2
    19     9     8    2
    20    11     8   am
    21    66    68   ar
    22    66    65    1
    23     8     7    1
    24    50    51    1
    25    50    49    1
    26    64    65    1
    27    64    61    1
    28    20    21    1
    29    51    56   am
    30    37    31    1
    31    37    36    1
    32    30    29   ar
    33    30    28   ar
    34    21    22    1
    35    21    24    1
    36    35    36    1
    37    35    32    1
    38    29    27   ar
    39    28    26   ar
    40    31    22   am
    41    31    32    1
    42    10     7    1
    43    22    23    2
    44    61    60    1
    45    61    62    1
    46    32    33    1
    47    27    25   ar
    48    26    25   ar
    49     7     6    1
    50    60    58   am
    51    25    24    1
    52    56    57    1
    53    58    57    1
    54    58    59    2
    55    62    63    2
    56    78    77    1
    57    33    38   am
    58    33    34    2
    59    47    45   ar
    60    47    48   ar
    61    38    39    1
    62    45    43   ar
    63    48    46   ar
    64    77    79    1
    65    77    76    2
    66    41    40    2
    67    43    42    1
    68    43    44   ar
    69    39    42    1
    70    39    40    1
    71    75    76    1
    72    75    74    1
    73    46    44   ar
    74    74    73    1
    75    73    70    1
    76    72    71    2
    77    70    69    1
    78    70    71    1
