@<TRIPOS>MOLECULE
tmp/2y4oA00.pdb
 222 214 0 0 0
SMALL
GASTEIGER

@<TRIPOS>ATOM
      1  N         47.1720   47.9430   83.6660 N.3    67  LYS67      -0.1245
      2  CA        47.9660   46.9230   83.0020 C.3    67  LYS67       0.1561
      3  C         48.1790   45.7080   83.9130 C.2    67  LYS67       0.2260
      4  O         48.2390   44.5670   83.4440 O.2    67  LYS67      -0.2867
      5  CB        49.3160   47.5250   82.6040 C.3    67  LYS67       0.0271
      6  CG        50.0580   46.7680   81.5230 C.3    67  LYS67       0.0035
      7  CD        49.4420   46.9930   80.1600 C.3    67  LYS67       0.0206
      8  CE        50.5120   47.1710   79.0940 C.3    67  LYS67       0.1093
      9  NZ        50.3050   48.4710   78.3940 N.3    67  LYS67      -0.1314
     10  N         50.8400   42.8960   72.9090 N.3    92  SER92      -0.1217
     11  CA        51.8660   43.9290   72.9530 C.3    92  SER92       0.1889
     12  C         52.6390   43.8340   74.2630 C.2    92  SER92       0.2288
     13  O         52.3910   42.9340   75.0720 O.2    92  SER92      -0.2866
     14  CB        51.2270   45.3080   72.8330 C.3    92  SER92       0.2089
     15  OG        50.3020   45.5190   73.8800 O.3    92  SER92      -0.2183
     16  N         51.9590   50.6210   59.1370 N.3   135  PHE135     -0.1241
     17  CA        51.9390   50.1310   60.5240 C.3   135  PHE135      0.1605
     18  C         52.1460   48.6180   60.5660 C.2   135  PHE135      0.2264
     19  O         51.8250   47.9100   59.6110 O.2   135  PHE135     -0.2867
     20  CB        50.6260   50.5040   61.2620 C.3   135  PHE135      0.0534
     21  CG        50.5350   51.9580   61.6530 C.ar  135  PHE135     -0.0203
     22  CD1       51.3070   52.4660   62.6840 C.ar  135  PHE135     -0.0042
     23  CD2       49.6540   52.8080   61.0020 C.ar  135  PHE135     -0.0042
     24  CE1       51.2660   53.8290   63.0090 C.ar  135  PHE135     -0.0003
     25  CE2       49.5230   54.1420   61.3950 C.ar  135  PHE135     -0.0003
     26  CZ        50.3480   54.6570   62.3890 C.ar  135  PHE135     -0.0000
     27  N         50.7500   43.2080   67.0050 N.3   140  PHE140     -0.1227
     28  CA        50.4600   44.6440   67.1940 C.3   140  PHE140      0.1736
     29  C         49.0530   44.9800   66.6600 C.2   140  PHE140      0.2596
     30  O         48.6170   44.4110   65.6530 O.2   140  PHE140     -0.2718
     31  CB        51.5370   45.4400   66.4440 C.3   140  PHE140      0.0547
     32  CG        51.3520   46.9330   66.4620 C.ar  140  PHE140     -0.0202
     33  CD1       51.2000   47.6130   67.6600 C.ar  140  PHE140     -0.0042
     34  CD2       51.6390   47.6730   65.3160 C.ar  140  PHE140     -0.0042
     35  CE1       51.1410   49.0020   67.6760 C.ar  140  PHE140     -0.0003
     36  CE2       51.6340   49.0570   65.3390 C.ar  140  PHE140     -0.0003
     37  CZ        51.3730   49.7190   66.5250 C.ar  140  PHE140     -0.0000
     38  N         48.3560   45.9200   67.2990 N.am  141  THR141     -0.1939
     39  CA        47.0080   46.2970   66.8270 C.3   141  THR141      0.2028
     40  C         47.0330   47.2600   65.6400 C.2   141  THR141      0.2642
     41  O         46.0180   47.4530   64.9550 O.2   141  THR141     -0.2714
     42  CB        46.1480   46.9000   67.9490 C.3   141  THR141      0.1808
     43  OG1       46.7500   48.1070   68.4330 O.3   141  THR141     -0.2208
     44  CG2       45.9810   45.9100   69.0760 C.3   141  THR141      0.0379
     45  N         48.1890   47.8660   65.3950 N.am  142  GLY142     -0.1954
     46  CA        48.2820   48.9760   64.4410 C.3   142  GLY142      0.1869
     47  C         47.9600   48.5730   63.0070 C.2   142  GLY142      0.2309
     48  O         47.0160   49.0930   62.4050 O.2   142  GLY142     -0.2863
     49  N         50.5230   58.0000   64.1250 N.3   212  GLY212     -0.1210
     50  CA        50.2480   57.6890   65.5100 C.3   212  GLY212      0.1956
     51  C         51.1210   56.5880   66.0780 C.2   212  GLY212      0.2612
     52  O         52.1930   56.2730   65.5390 O.2   212  GLY212     -0.2717
     53  N         50.6690   56.0530   67.2110 N.am  213  ALA213     -0.1965
     54  CA        51.3760   54.9950   67.9500 C.3   213  ALA213      0.1728
     55  C         52.4290   55.5320   68.9130 C.2   213  ALA213      0.2616
     56  O         52.9980   54.7810   69.7100 O.2   213  ALA213     -0.2715
     57  CB        51.9820   53.9530   67.0030 C.3   213  ALA213      0.0334
     58  N         52.6600   56.8390   68.8600 N.am  214  GLU214     -0.1964
     59  CA        53.6540   57.5000   69.7010 C.3   214  GLU214      0.1718
     60  C         53.4560   59.0100   69.5600 C.2   214  GLU214      0.2458
     61  O         52.8560   59.4640   68.5790 O.2   214  GLU214     -0.2730
     62  CB        55.0860   57.1190   69.2630 C.3   214  GLU214      0.0428
     63  CG        55.4850   57.6670   67.8990 C.3   214  GLU214      0.1163
     64  CD        56.8090   57.1160   67.3820 C.2   214  GLU214      0.3649
     65  OE1       57.5940   56.5530   68.1750 O.co2 214  GLU214     -0.2457
     66  OE2       57.0480   57.2050   66.1600 O.co2 214  GLU214     -0.2457
     67  N         54.0040   59.7980   70.5080 N.am  215  PRO215     -0.2716
     68  CA        53.8570   61.2700   70.4640 C.3   215  PRO215      0.1536
     69  C         54.5990   61.8610   69.2760 C.2   215  PRO215      0.2598
     70  O         55.6210   61.3150   68.8540 O.2   215  PRO215     -0.2715
     71  CB        54.5300   61.7380   71.7650 C.3   215  PRO215      0.0310
     72  CG        54.5630   60.5240   72.6570 C.3   215  PRO215      0.0237
     73  CD        54.6340   59.3260   71.7530 C.3   215  PRO215      0.0939
     74  N         54.0980   62.9740   68.7510 N.am  216  TRP216     -0.1974
     75  CA        54.8600   63.7960   67.8220 C.3   216  TRP216      0.1640
     76  C         54.5220   65.2830   67.9920 C.2   216  TRP216      0.2290
     77  O         53.4160   65.6390   68.4170 O.2   216  TRP216     -0.2864
     78  CB        54.6510   63.3500   66.3590 C.3   216  TRP216      0.0576
     79  CG        53.2090   63.1460   65.9370 C.ar  216  TRP216      0.0006
     80  CD1       52.3660   62.1540   66.3530 C.ar  216  TRP216      0.0946
     81  CD2       52.5410   63.8010   64.8420 C.ar  216  TRP216      0.0152
     82  NE1       51.1930   62.1890   65.6290 N.ar  216  TRP216     -0.2442
     83  CE2       51.2580   63.2230   64.7300 C.ar  216  TRP216      0.0810
     84  CE3       52.8670   64.8840   64.0150 C.ar  216  TRP216      0.0012
     85  CZ2       50.3030   63.6930   63.8270 C.ar  216  TRP216      0.0191
     86  CZ3       51.9400   65.3110   63.0760 C.ar  216  TRP216      0.0001
     87  CH2       50.6750   64.7090   62.9820 C.ar  216  TRP216      0.0015
     88  N         46.5500   63.3890   63.3430 N.3   234  ASP234     -0.1225
     89  CA        46.9370   62.5900   64.5060 C.3   234  ASP234      0.1805
     90  C         45.9110   61.5010   64.8140 C.2   234  ASP234      0.2598
     91  O         44.7460   61.8010   65.0890 O.2   234  ASP234     -0.2718
     92  CB        47.0780   63.5250   65.7070 C.3   234  ASP234      0.1424
     93  CG        47.9170   62.9320   66.8310 C.2   234  ASP234      0.3668
     94  OD1       48.3770   61.7710   66.7360 O.co2 234  ASP234     -0.2456
     95  OD2       48.0680   63.6370   67.8480 O.co2 234  ASP234     -0.2456
     96  N         46.3420   60.2390   64.7770 N.am  235  ILE235     -0.1966
     97  CA        45.4550   59.1360   65.1400 C.3   235  ILE235      0.1727
     98  C         45.9010   58.4270   66.4140 C.2   235  ILE235      0.2616
     99  O         47.0860   58.1450   66.5880 O.2   235  ILE235     -0.2715
    100  CB        45.2630   58.1110   63.9810 C.3   235  ILE235      0.0290
    101  CG1       44.1680   57.0920   64.3460 C.3   235  ILE235      0.0022
    102  CG2       46.5790   57.4290   63.6200 C.3   235  ILE235      0.0023
    103  CD1       43.6060   56.3020   63.1440 C.3   235  ILE235      0.0001
    104  N         44.9870   58.3070   67.3780 N.am  236  TYR236     -0.1960
    105  CA        45.3660   57.7970   68.6940 C.3   236  TYR236      0.1771
    106  C         44.7090   56.4470   69.0020 C.2   236  TYR236      0.2620
    107  O         43.5690   56.1840   68.5820 O.2   236  TYR236     -0.2715
    108  CB        45.0250   58.8220   69.7850 C.3   236  TYR236      0.0574
    109  CG        45.1750   58.2890   71.1990 C.ar  236  TYR236     -0.0198
    110  CD1       46.3880   58.3980   71.8770 C.ar  236  TYR236     -0.0009
    111  CD2       44.0650   57.8340   71.9110 C.ar  236  TYR236     -0.0009
    112  CE1       46.5290   57.9260   73.1750 C.ar  236  TYR236      0.0417
    113  CE2       44.1920   57.3550   73.2120 C.ar  236  TYR236      0.0417
    114  CZ        45.4170   57.4570   73.8570 C.ar  236  TYR236      0.1957
    115  OH        45.5700   56.9670   75.1410 O.3   236  TYR236     -0.2866
    116  N         45.3830   55.6410   69.8240 N.am  237  GLY237     -0.1940
    117  CA        44.7120   54.5490   70.5230 C.3   237  GLY237      0.2014
    118  C         45.6650   53.6980   71.3430 C.2   237  GLY237      0.2639
    119  O         46.8760   53.9330   71.3560 O.2   237  GLY237     -0.2714
    120  N         45.1420   52.6110   71.8920 N.am  238  LEU238     -0.1963
    121  CA        45.9630   51.6820   72.6650 C.3   238  LEU238      0.1728
    122  C         45.2680   50.3310   72.6700 C.2   238  LEU238      0.2617
    123  O         44.0390   50.2700   72.5820 O.2   238  LEU238     -0.2715
    124  CB        46.1850   52.1920   74.1000 C.3   238  LEU238      0.0311
    125  CG        44.9250   52.3850   74.9670 C.3   238  LEU238      0.0022
    126  CD1       45.2830   52.2570   76.4450 C.3   238  LEU238      0.0001
    127  CD2       44.2490   53.7300   74.6850 C.3   238  LEU238      0.0001
    128  N         46.0530   49.2560   72.6900 N.am  239  SER239     -0.1936
    129  CA        45.5230   47.9110   72.4700 C.3   239  SER239      0.2055
    130  C         44.3990   47.5490   73.4350 C.2   239  SER239      0.2642
    131  O         43.4130   46.9580   73.0370 O.2   239  SER239     -0.2714
    132  CB        46.6320   46.8610   72.5350 C.3   239  SER239      0.2130
    133  OG        46.7980   46.3580   73.8500 O.3   239  SER239     -0.2179
    134  N         44.5450   47.9300   74.7040 N.am  240  GLU240     -0.1976
    135  CA        43.5720   47.5460   75.7290 C.3   240  GLU240      0.1602
    136  C         42.1920   48.0990   75.4450 C.2   240  GLU240      0.2287
    137  O         41.1850   47.5030   75.8230 O.2   240  GLU240     -0.2864
    138  CB        44.0240   48.0030   77.1160 C.3   240  GLU240      0.0415
    139  CG        45.2910   47.3420   77.5990 C.3   240  GLU240      0.1163
    140  CD        46.5550   48.0820   77.1830 C.2   240  GLU240      0.3649
    141  OE1       46.5210   48.9060   76.2410 O.co2 240  GLU240     -0.2457
    142  OE2       47.6290   47.7100   77.6850 O.co2 240  GLU240     -0.2457
    143  N         42.6940   49.5930   69.9340 N.3   243  GLY243     -0.1210
    144  CA        43.8260   49.7050   69.0040 C.3   243  GLY243      0.1940
    145  C         43.8660   51.1300   68.4860 C.2   243  GLY243      0.2453
    146  O         43.3540   52.0300   69.1400 O.2   243  GLY243     -0.2732
    147  N         44.4210   51.3410   67.2780 N.am  244  PRO244     -0.2728
    148  CA        44.2350   52.6400   66.6190 C.3   244  PRO244      0.1401
    149  C         42.7430   52.8970   66.3970 C.2   244  PRO244      0.2269
    150  O         41.9830   51.9490   66.2100 O.2   244  PRO244     -0.2865
    151  CB        44.9210   52.4460   65.2590 C.3   244  PRO244      0.0296
    152  CG        44.8590   50.9360   65.0170 C.3   244  PRO244      0.0237
    153  CD        45.0740   50.3540   66.4000 C.3   244  PRO244      0.0939
    154  N         43.1590   65.0900   68.1940 N.3   257  PRO257     -0.2116
    155  CA        42.3280   63.9310   67.8590 C.3   257  PRO257      0.1372
    156  C         40.9160   64.0890   68.4690 C.2   257  PRO257      0.2244
    157  O         40.7880   64.4290   69.6410 O.2   257  PRO257     -0.2868
    158  CB        43.0600   62.7540   68.5220 C.3   257  PRO257      0.0268
    159  CG        44.4850   63.2450   68.7600 C.3   257  PRO257      0.0207
    160  CD        44.4050   64.7420   68.9090 C.3   257  PRO257      0.0892
    161  N         45.1600   54.7480   81.1010 N.3   302  THR302     -0.1218
    162  CA        46.0780   54.6760   79.9630 C.3   302  THR302      0.1862
    163  C         47.5030   55.0200   80.3880 C.2   302  THR302      0.2287
    164  O         48.4460   54.6870   79.6830 O.2   302  THR302     -0.2866
    165  CB        45.6860   55.6460   78.8200 C.3   302  THR302      0.1770
    166  OG1       45.8260   57.0030   79.2740 O.3   302  THR302     -0.2211
    167  CG2       44.2570   55.3970   78.3350 C.3   302  THR302      0.0375
    168  N         48.5140   57.8980   79.9660 N.3   304  ASP304     -0.1239
    169  CA        48.8480   59.0230   79.0850 C.3   304  ASP304      0.1674
    170  C         48.4070   60.3490   79.6980 C.2   304  ASP304      0.2266
    171  O         47.2750   60.4760   80.1800 O.2   304  ASP304     -0.2867
    172  CB        48.2230   58.8430   77.6910 C.3   304  ASP304      0.1410
    173  CG        48.7990   57.6550   76.9440 C.2   304  ASP304      0.3668
    174  OD1       50.0430   57.4750   76.9480 O.co2 304  ASP304     -0.2456
    175  OD2       48.0160   56.9110   76.3220 O.co2 304  ASP304     -0.2456
    176  N         49.4250   65.0480   73.9010 N.3   322  ILE322     -0.1245
    177  CA        49.9020   64.0040   74.8060 C.3   322  ILE322      0.1561
    178  C         51.3660   64.2380   75.1710 C.2   322  ILE322      0.2260
    179  O         52.2330   64.2250   74.3030 O.2   322  ILE322     -0.2867
    180  CB        49.6690   62.6070   74.2280 C.3   322  ILE322      0.0252
    181  CG1       48.1940   62.4600   73.8400 C.3   322  ILE322      0.0019
    182  CG2       50.0720   61.5270   75.2380 C.3   322  ILE322      0.0019
    183  CD1       47.7120   61.0400   73.7890 C.3   322  ILE322      0.0001
    184  N         53.8670   60.3070   80.0130 N.3   325  ARG325     -0.1245
    185  CA        53.1460   59.2790   80.7590 C.3   325  ARG325      0.1563
    186  C         53.3990   59.3640   82.2490 C.2   325  ARG325      0.2260
    187  O         54.4690   59.7860   82.6800 O.2   325  ARG325     -0.2867
    188  CB        53.5130   57.8820   80.2470 C.3   325  ARG325      0.0307
    189  CG        52.9460   57.5540   78.8730 C.3   325  ARG325      0.0489
    190  CD        53.3910   56.1800   78.4050 C.3   325  ARG325      0.2205
    191  NE        52.9440   55.1070   79.2950 N.pl3 325  ARG325     -0.0865
    192  CZ        51.8690   54.3510   79.0680 C.cat 325  ARG325      0.5346
    193  NH1       51.0740   54.6210   78.0440 N.pl3 325  ARG325      0.1354
    194  NH2       51.5740   53.3380   79.8780 N.pl3 325  ARG325      0.1354
    195  N         57.0150   53.7490   81.1610 N.3   329  MET329     -0.1245
    196  CA        57.0200   53.0980   79.8570 C.3   329  MET329      0.1570
    197  C         57.7080   53.9480   78.8000 C.2   329  MET329      0.2261
    198  O         57.5680   55.1710   78.7810 O.2   329  MET329     -0.2867
    199  CB        55.6040   52.7350   79.3960 C.3   329  MET329      0.0387
    200  CG        55.5980   51.6360   78.3240 C.3   329  MET329      0.0595
    201  SD        53.9680   51.3660   77.5860 S.3   329  MET329     -0.1393
    202  CE        53.8870   52.7870   76.5010 C.3   329  MET329      0.0692
    203  N         58.4530   54.5070   74.6320 N.3   331  ILE331     -0.1245
    204  CA        58.0470   54.1740   73.2710 C.3   331  ILE331      0.1561
    205  C         59.1750   54.4740   72.3070 C.2   331  ILE331      0.2260
    206  O         59.7040   55.5860   72.2860 O.2   331  ILE331     -0.2867
    207  CB        56.7860   54.9340   72.8360 C.3   331  ILE331      0.0252
    208  CG1       55.6480   54.6570   73.8230 C.3   331  ILE331      0.0019
    209  CG2       56.3720   54.4810   71.4290 C.3   331  ILE331      0.0019
    210  CD1       54.4490   55.5510   73.6460 C.3   331  ILE331      0.0001
    211  N         57.3660   53.5960   67.9730 N.3   334  GLY334     -0.1225
    212  CA        55.9890   53.1210   68.0610 C.3   334  GLY334      0.1811
    213  C         55.8260   51.9010   68.9470 C.2   334  GLY334      0.2280
    214  O         54.7020   51.5420   69.3240 O.2   334  GLY334     -0.2866
    215  N         56.0210   49.9780   72.3910 N.3   336  ASN336     -0.1240
    216  CA        56.0550   50.0780   73.8460 C.3   336  ASN336      0.1653
    217  C         57.1470   49.1820   74.4580 C.2   336  ASN336      0.2266
    218  O         57.2470   47.9990   74.1250 O.2   336  ASN336     -0.2867
    219  CB        54.6820   49.7430   74.4470 C.3   336  ASN336      0.1155
    220  CG        53.5850   50.6870   73.9800 C.2   336  ASN336      0.2627
    221  OD1       53.8230   51.5970   73.1780 O.2   336  ASN336     -0.2716
    222  ND2       52.3670   50.4570   74.4590 N.am  336  ASN336     -0.0877
@<TRIPOS>BOND
     1    16    17    1
     2    19    18    2
     3    17    18    1
     4    17    20    1
     5    23    25   ar
     6    23    21   ar
     7    20    21    1
     8    25    26   ar
     9    21    22   ar
    10    26    24   ar
    11    48    47    2
    12    22    24   ar
    13    87    86   ar
    14    87    85   ar
    15    47    46    1
    16    86    84   ar
    17   103   101    1
    18    88    89    1
    19   102   100    1
    20    85    83   ar
    21   100   101    1
    22   100    97    1
    23    84    81   ar
    24    49    50    1
    25    46    45    1
    26    89    90    1
    27    89    92    1
    28    83    81   ar
    29    83    82   ar
    30    96    90   am
    31    96    97    1
    32    90    91    2
    33    81    79   ar
    34    41    40    2
    35   152   151    1
    36   152   153    1
    37    97    98    1
    38   151   148    1
    39    34    36   ar
    40    34    32   ar
    41    36    37   ar
    42    45    40   am
    43    50    51    1
    44    52    51    2
    45    82    80   ar
    46    40    39    1
    47    30    29    2
    48    92    93    1
    49    79    80   ar
    50    79    78    1
    51    51    53   am
    52    66    64   ar
    53   150   149    2
    54    78    75    1
    55   149   148    1
    56   153   147    1
    57    98    99    2
    58    98   104   am
    59    31    32    1
    60    31    28    1
    61    32    33   ar
    62    37    35   ar
    63   148   147    1
    64    29    28    1
    65    29    38   am
    66    94    93   ar
    67    39    38    1
    68    39    42    1
    69    93    95   ar
    70    57    54    1
    71    27    28    1
    72    53    54    1
    73   147   145   am
    74   104   105    1
    75    64    63    1
    76    64    65   ar
    77    33    35   ar
    78    75    76    1
    79    75    74    1
    80   155   154    1
    81   155   156    1
    82   155   158    1
    83    63    62    1
    84    42    43    1
    85    42    44    1
    86    54    55    1
    87   211   212    1
    88    76    77    2
    89   212   213    1
    90   154   160    1
    91   156   157    2
    92   145   144    1
    93   145   146    2
    94   158   159    1
    95    61    60    2
    96   107   106    2
    97   105   106    1
    98   105   108    1
    99    74    69   am
   100   159   160    1
   101    70    69    2
   102    58    55   am
   103    58    59    1
   104    55    56    2
   105   213   214    2
   106   106   116   am
   107   144   143    1
   108    62    59    1
   109    69    68    1
   110    60    59    1
   111    60    67   am
   112   108   109    1
   113   116   117    1
   114    68    67    1
   115    68    71    1
   116    67    73    1
   117   117   118    1
   118   109   110   ar
   119   109   111   ar
   120   118   119    2
   121   118   120   am
   122   209   207    1
   123    73    72    1
   124    71    72    1
   125   110   112   ar
   126   120   121    1
   127   111   113   ar
   128   206   205    2
   129   205   204    1
   130   215   216    1
   131   129   132    1
   132   129   128    1
   133   129   130    1
   134   132   133    1
   135   123   122    2
   136   121   122    1
   137   121   124    1
   138   122   128   am
   139    14    11    1
   140    14    15    1
   141   207   204    1
   142   207   208    1
   143    10    11    1
   144    11    12    1
   145   131   130    2
   146   112   114   ar
   147   221   220    2
   148   113   114   ar
   149   204   203    1
   150   130   134   am
   151   210   208    1
   152   183   181    1
   153   181   180    1
   154   216   219    1
   155   216   217    1
   156   114   115    1
   157   176   177    1
   158   220   219    1
   159   220   222   am
   160   124   125    1
   161   218   217    2
   162   180   177    1
   163   180   182    1
   164    12    13    2
   165   179   178    2
   166   127   125    1
   167   134   135    1
   168   177   178    1
   169   125   126    1
   170   136   135    1
   171   136   137    2
   172   135   138    1
   173   141   140   ar
   174   175   173   ar
   175   202   201    1
   176   173   174   ar
   177   173   172    1
   178   138   139    1
   179   140   139    1
   180   140   142   ar
   181   201   200    1
   182   172   169    1
   183   193   192    1
   184   200   199    1
   185   167   165    1
   186     9     8    1
   187   190   189    1
   188   190   191    1
   189   198   197    2
   190   197   196    1
   191   165   166    1
   192   165   162    1
   193   189   188    1
   194   192   191    2
   195   192   194    1
   196   169   170    1
   197   169   168    1
   198     8     7    1
   199   199   196    1
   200   164   163    2
   201   170   171    2
   202   196   195    1
   203   162   163    1
   204   162   161    1
   205   184   185    1
   206     7     6    1
   207   188   185    1
   208   185   186    1
   209     6     5    1
   210   186   187    2
   211     5     2    1
   212     2     1    1
   213     2     3    1
   214     4     3    2
