@<TRIPOS>MOLECULE
tmp/2y4rA00.pdb
 169 161 0 0 0
SMALL
GASTEIGER

@<TRIPOS>ATOM
      1  N        -17.4940    7.2680  -33.4670 N.3    26  PHE26      -0.1241
      2  CA       -16.9540    8.5820  -33.8890 C.3    26  PHE26       0.1605
      3  C        -17.1500    8.9170  -35.3620 C.2    26  PHE26       0.2264
      4  O        -17.3910    8.0580  -36.2050 O.2    26  PHE26      -0.2867
      5  CB       -15.4290    8.7360  -33.4350 C.3    26  PHE26       0.0534
      6  CG       -14.4360    7.9190  -34.1950 C.ar   26  PHE26      -0.0203
      7  CD1      -14.3460    6.5330  -34.0170 C.ar   26  PHE26      -0.0042
      8  CD2      -13.5400    8.5290  -35.0480 C.ar   26  PHE26      -0.0042
      9  CE1      -13.3750    5.7850  -34.6850 C.ar   26  PHE26      -0.0003
     10  CE2      -12.5190    7.7710  -35.6870 C.ar   26  PHE26      -0.0003
     11  CZ       -12.4490    6.4150  -35.5130 C.ar   26  PHE26      -0.0000
     12  N        -15.0750   11.7810  -38.0990 N.3    28  THR28      -0.1218
     13  CA       -14.0790   12.8180  -38.3310 C.3    28  THR28       0.1862
     14  C        -14.4800   13.6040  -39.5520 C.2    28  THR28       0.2287
     15  O        -14.4360   13.0830  -40.6750 O.2    28  THR28      -0.2866
     16  CB       -12.7290   12.1340  -38.5600 C.3    28  THR28       0.1770
     17  OG1      -12.4410   11.4210  -37.3450 O.3    28  THR28      -0.2211
     18  CG2      -11.5820   13.2430  -38.7280 C.3    28  THR28       0.0375
     19  N        -24.0480    7.5350  -41.2080 N.3    45  ARG45      -0.1245
     20  CA       -23.1970    6.4890  -40.6260 C.3    45  ARG45       0.1563
     21  C        -23.3310    6.4500  -39.0980 C.2    45  ARG45       0.2260
     22  O        -23.4230    5.3860  -38.4970 O.2    45  ARG45      -0.2867
     23  CB       -21.7020    6.5920  -41.1230 C.3    45  ARG45       0.0307
     24  CG       -20.8090    5.5220  -40.4560 C.3    45  ARG45       0.0489
     25  CD       -19.4200    5.4880  -41.0140 C.3    45  ARG45       0.2205
     26  NE       -18.7960    6.7950  -40.7970 N.pl3  45  ARG45      -0.0865
     27  CZ       -17.6490    7.1130  -41.3960 C.cat  45  ARG45       0.5346
     28  NH1      -17.1050    6.2160  -42.2640 N.pl3  45  ARG45       0.1354
     29  NH2      -17.1230    8.3090  -41.1070 N.pl3  45  ARG45       0.1354
     30  N        -18.1400    3.0640  -37.5080 N.3   139  LYS139     -0.1245
     31  CA       -16.9070    3.8050  -37.0770 C.3   139  LYS139      0.1561
     32  C        -17.0410    3.9190  -35.5980 C.2   139  LYS139      0.2260
     33  O        -17.2440    4.9140  -34.8650 O.2   139  LYS139     -0.2867
     34  CB       -16.8590    5.1200  -37.8430 C.3   139  LYS139      0.0271
     35  CG       -15.3950    5.6530  -37.7780 C.3   139  LYS139      0.0035
     36  CD       -15.3250    6.8870  -38.7320 C.3   139  LYS139      0.0206
     37  CE       -13.9430    7.4940  -38.9270 C.3   139  LYS139      0.1093
     38  NZ       -12.9750    6.5750  -39.5030 N.3   139  LYS139     -0.1314
     39  N        -10.7480    0.3730  -31.6910 N.3   143  ARG143     -0.1245
     40  CA        -9.8480    0.5580  -32.8290 C.3   143  ARG143      0.1563
     41  C         -8.4100    0.0550  -32.5270 C.2   143  ARG143      0.2260
     42  O         -7.4550    0.5050  -33.1380 O.2   143  ARG143     -0.2867
     43  CB        -9.8090    2.0490  -33.2150 C.3   143  ARG143      0.0307
     44  CG       -11.1990    2.6000  -33.7180 C.3   143  ARG143      0.0489
     45  CD       -11.5270    2.3270  -35.1700 C.3   143  ARG143      0.2205
     46  NE       -11.7400    0.9560  -35.6890 N.pl3 143  ARG143     -0.0865
     47  CZ       -12.9340    0.4820  -36.1310 C.cat 143  ARG143      0.5346
     48  NH1      -14.0580    1.2340  -36.0570 N.pl3 143  ARG143      0.1354
     49  NH2      -13.0110   -0.7060  -36.7290 N.pl3 143  ARG143      0.1354
     50  N         -6.4370   -1.0650  -35.6580 N.3   146  GLN146     -0.1245
     51  CA        -5.8360    0.0710  -36.4000 C.3   146  GLN146      0.1566
     52  C         -4.5900    0.6220  -35.7080 C.2   146  GLN146      0.2260
     53  O         -3.6100    0.9710  -36.3640 O.2   146  GLN146     -0.2867
     54  CB        -6.8820    1.2000  -36.6240 C.3   146  GLN146      0.0367
     55  CG        -7.8270    0.8250  -37.6740 C.3   146  GLN146      0.0905
     56  CD        -8.8720   -0.2540  -37.2080 C.2   146  GLN146      0.2608
     57  OE1       -9.2620   -0.3420  -36.0420 O.2   146  GLN146     -0.2717
     58  NE2       -9.3190   -1.0220  -38.1310 N.am  146  GLN146     -0.0878
     59  N         -9.1610   -2.9490  -46.7090 N.3   172  GLU172     -0.1231
     60  CA        -9.1070   -1.4580  -46.6660 C.3   172  GLU172      0.1699
     61  C         -7.6980   -1.0280  -46.2240 C.2   172  GLU172      0.2593
     62  O         -6.8130   -1.8560  -46.0630 O.2   172  GLU172     -0.2718
     63  CB       -10.1770   -0.8950  -45.7010 C.3   172  GLU172      0.0402
     64  CG        -9.9150   -1.3130  -44.2460 C.3   172  GLU172      0.1161
     65  CD       -11.0630   -0.8810  -43.3240 C.2   172  GLU172      0.3649
     66  OE1      -12.1730   -0.4310  -43.8510 O.co2 172  GLU172     -0.2457
     67  OE2      -10.8300   -1.0780  -42.0980 O.co2 172  GLU172     -0.2457
     68  N         -7.5130    0.2640  -46.1060 N.am  173  GLY173     -0.1942
     69  CA        -6.2810    0.8180  -45.5230 C.3   173  GLY173      0.2014
     70  C         -6.4060    0.8700  -43.9930 C.2   173  GLY173      0.2639
     71  O         -7.4390    0.5670  -43.4080 O.2   173  GLY173     -0.2714
     72  N         -5.3780    1.3700  -43.3130 N.am  174  VAL174     -0.1963
     73  CA        -5.4780    1.5570  -41.8660 C.3   174  VAL174      0.1727
     74  C         -6.4520    2.6880  -41.5170 C.2   174  VAL174      0.2616
     75  O         -7.1370    2.6760  -40.4730 O.2   174  VAL174     -0.2715
     76  CB        -4.0590    1.8640  -41.2910 C.3   174  VAL174      0.0290
     77  CG1       -4.1450    2.2050  -39.7170 C.3   174  VAL174      0.0023
     78  CG2       -3.1580    0.6830  -41.6510 C.3   174  VAL174      0.0023
     79  N         -6.4910    3.7100  -42.3470 N.am  175  PHE175     -0.1960
     80  CA        -7.3460    4.8950  -42.0710 C.3   175  PHE175      0.1771
     81  C         -8.1260    5.3400  -43.3290 C.2   175  PHE175      0.2620
     82  O         -8.6060    6.4410  -43.3890 O.2   175  PHE175     -0.2715
     83  CB        -6.5760    6.0850  -41.3950 C.3   175  PHE175      0.0574
     84  CG        -5.3420    6.5400  -42.1410 C.ar  175  PHE175     -0.0200
     85  CD1       -4.0710    5.9120  -41.8860 C.ar  175  PHE175     -0.0042
     86  CD2       -5.4050    7.5510  -43.0870 C.ar  175  PHE175     -0.0042
     87  CE1       -2.9520    6.2820  -42.5580 C.ar  175  PHE175     -0.0003
     88  CE2       -4.2460    7.9440  -43.7570 C.ar  175  PHE175     -0.0003
     89  CZ        -3.0200    7.2990  -43.5010 C.ar  175  PHE175     -0.0000
     90  N         -8.3260    4.4360  -44.3050 N.am  176  SER176     -0.1936
     91  CA        -8.9740    4.9000  -45.5400 C.3   176  SER176      0.2055
     92  C         -9.5160    3.6230  -46.1970 C.2   176  SER176      0.2643
     93  O         -9.1620    2.5510  -45.7580 O.2   176  SER176     -0.2714
     94  CB        -7.9050    5.5210  -46.4860 C.3   176  SER176      0.2130
     95  OG        -6.9090    4.5470  -46.8610 O.3   176  SER176     -0.2179
     96  N        -10.4400    3.7560  -47.1440 N.am  177  ASN177     -0.1971
     97  CA       -10.8880    2.5580  -47.8780 C.3   177  ASN177      0.1688
     98  C        -10.1140    2.3850  -49.1540 C.2   177  ASN177      0.2292
     99  O         -9.4880    3.2920  -49.6760 O.2   177  ASN177     -0.2864
    100  CB       -12.4160    2.6280  -48.2380 C.3   177  ASN177      0.1181
    101  CG       -13.2610    2.6060  -47.0090 C.2   177  ASN177      0.2629
    102  OD1      -13.8660    3.6120  -46.6460 O.2   177  ASN177     -0.2716
    103  ND2      -13.2710    1.4520  -46.3160 N.am  177  ASN177     -0.0877
    104  N        -14.4240   -0.3220  -42.1750 N.3   196  VAL196     -0.1245
    105  CA       -15.3120    0.8330  -41.8740 C.3   196  VAL196      0.1561
    106  C        -15.8610    1.3190  -43.1800 C.2   196  VAL196      0.2260
    107  O        -15.0970    1.5060  -44.1430 O.2   196  VAL196     -0.2867
    108  CB       -14.5100    2.0200  -41.1900 C.3   196  VAL196      0.0252
    109  CG1      -15.3970    3.2840  -41.1230 C.3   196  VAL196      0.0019
    110  CG2      -13.9430    1.6130  -39.7780 C.3   196  VAL196      0.0019
    111  N        -16.6270    3.7820  -45.4150 N.3   198  GLY198     -0.1210
    112  CA       -16.1590    5.2000  -45.4820 C.3   198  GLY198      0.1956
    113  C        -17.2770    6.0910  -46.0870 C.2   198  GLY198      0.2612
    114  O        -18.0860    5.6810  -46.9790 O.2   198  GLY198     -0.2717
    115  N        -17.3070    7.3240  -45.6070 N.am  199  VAL199     -0.1965
    116  CA       -18.2310    8.3220  -46.2160 C.3   199  VAL199      0.1727
    117  C        -17.7020    8.6990  -47.5890 C.2   199  VAL199      0.2616
    118  O        -18.4880    8.9120  -48.5210 O.2   199  VAL199     -0.2715
    119  CB       -18.4980    9.6270  -45.3680 C.3   199  VAL199      0.0290
    120  CG1      -19.3030    9.3250  -44.0670 C.3   199  VAL199      0.0023
    121  CG2      -17.1890   10.3760  -45.0900 C.3   199  VAL199      0.0023
    122  N        -16.3630    8.7760  -47.8060 N.am  200  MET200     -0.1963
    123  CA       -15.8960    9.0700  -49.1580 C.3   200  MET200      0.1736
    124  C        -16.1390    7.8720  -50.0530 C.2   200  MET200      0.2616
    125  O        -16.4970    8.0300  -51.2350 O.2   200  MET200     -0.2715
    126  CB       -14.4040    9.4550  -49.2040 C.3   200  MET200      0.0427
    127  CG       -13.8670    9.8110  -50.5900 C.3   200  MET200      0.0599
    128  SD       -14.8190   11.2360  -51.3340 S.3   200  MET200     -0.1393
    129  CE       -14.3960   12.4990  -50.1540 C.3   200  MET200      0.0692
    130  N        -15.9820    6.6750  -49.4850 N.am  201  ARG201     -0.1977
    131  CA       -16.2660    5.4460  -50.3140 C.3   201  ARG201      0.1597
    132  C        -17.7450    5.5190  -50.7990 C.2   201  ARG201      0.2287
    133  O        -18.0370    5.2640  -51.9780 O.2   201  ARG201     -0.2864
    134  CB       -16.0360    4.2070  -49.4040 C.3   201  ARG201      0.0334
    135  CG       -16.5590    2.8890  -50.0070 C.3   201  ARG201      0.0492
    136  CD       -16.4150    1.8010  -48.9490 C.3   201  ARG201      0.2205
    137  NE       -16.6810    0.4340  -49.4410 N.pl3 201  ARG201     -0.0865
    138  CZ       -17.8520   -0.1720  -49.2330 C.cat 201  ARG201      0.5346
    139  NH1      -18.8740    0.4520  -48.6610 N.pl3 201  ARG201      0.1354
    140  NH2      -18.0190   -1.4510  -49.6090 N.pl3 201  ARG201      0.1354
    141  N         -9.3030    6.0300  -50.5160 N.3   234  CYS234     -0.1221
    142  CA       -10.1570    7.2250  -50.3480 C.3   234  CYS234      0.1808
    143  C        -10.5310    7.4460  -48.8920 C.2   234  CYS234      0.2601
    144  O        -10.6170    6.5070  -48.1240 O.2   234  CYS234     -0.2717
    145  CB       -11.4000    7.1380  -51.2610 C.3   234  CYS234      0.0970
    146  SG       -12.5930    5.7970  -50.8390 S.3   234  CYS234     -0.0800
    147  N        -10.7390    8.7030  -48.5370 N.am  235  ASN235     -0.1960
    148  CA       -11.2570    9.0660  -47.2580 C.3   235  ASN235      0.1819
    149  C        -11.6960   10.5230  -47.2600 C.2   235  ASN235      0.2622
    150  O        -11.4840   11.2440  -48.2430 O.2   235  ASN235     -0.2715
    151  CB       -10.4440    8.6100  -46.0010 C.3   235  ASN235      0.1195
    152  CG        -9.3360    9.5860  -45.5080 C.2   235  ASN235      0.2630
    153  OD1       -9.2160   10.7250  -45.9030 O.2   235  ASN235     -0.2716
    154  ND2       -8.6120    9.1160  -44.5060 N.am  235  ASN235     -0.0877
    155  N        -12.4310   10.8660  -46.2200 N.am  236  SER236     -0.1936
    156  CA       -13.1410   12.1630  -46.1490 C.3   236  SER236      0.2055
    157  C        -12.1410   13.3080  -46.0230 C.2   236  SER236      0.2642
    158  O        -12.5390   14.4900  -46.2370 O.2   236  SER236     -0.2714
    159  CB       -14.0370   12.2240  -44.8510 C.3   236  SER236      0.2130
    160  OG       -13.2700   11.9180  -43.6860 O.3   236  SER236     -0.2179
    161  N        -10.8820   12.9890  -45.6460 N.am  237  GLN237     -0.1976
    162  CA        -9.8880   14.0850  -45.3440 C.3   237  GLN237      0.1601
    163  C         -8.9820   14.3230  -46.5140 C.2   237  GLN237      0.2287
    164  O         -8.8580   15.5040  -46.9990 O.2   237  GLN237     -0.2864
    165  CB        -9.0600   13.7820  -44.0410 C.3   237  GLN237      0.0394
    166  CG        -9.9400   13.4750  -42.8230 C.3   237  GLN237      0.0908
    167  CD       -10.9110   14.6280  -42.5670 C.2   237  GLN237      0.2608
    168  OE1      -10.4950   15.8090  -42.4800 O.2   237  GLN237     -0.2717
    169  NE2      -12.2200   14.3120  -42.5840 N.am  237  GLN237     -0.0878
@<TRIPOS>BOND
     1   133   132    2
     2   128   127    1
     3   128   129    1
     4   145   146    1
     5   145   142    1
     6   125   124    2
     7   132   131    1
     8   127   126    1
     9   141   142    1
    10   142   143    1
    11   131   130    1
    12   131   134    1
    13   124   130   am
    14   124   123    1
    15   135   134    1
    16   135   136    1
    17    99    98    2
    18   140   138    1
    19   137   138    2
    20   137   136    1
    21   138   139    1
    22   126   123    1
    23   123   122    1
    24    98    97    1
    25   143   147   am
    26   143   144    2
    27   147   148    1
    28   118   117    2
    29   150   149    2
    30   100    97    1
    31   100   101    1
    32    97    96    1
    33   122   117   am
    34   117   116    1
    35   149   148    1
    36   149   155   am
    37   148   151    1
    38    96    92   am
    39   101   102    2
    40   101   103   am
    41   164   163    2
    42   114   113    2
    43    95    94    1
    44    59    60    1
    45    60    61    1
    46    60    63    1
    47   163   162    1
    48    94    91    1
    49   158   157    2
    50    61    68   am
    51    61    62    2
    52   155   156    1
    53   116   115    1
    54   116   119    1
    55    92    93    2
    56    92    91    1
    57   156   157    1
    58   156   159    1
    59    68    69    1
    60   113   115   am
    61   113   112    1
    62   157   161   am
    63   151   152    1
    64   153   152    2
    65    63    64    1
    66   161   162    1
    67    91    90    1
    68    69    70    1
    69   152   154   am
    70   112   111    1
    71   119   121    1
    72   119   120    1
    73   162   165    1
    74   159   160    1
    75    90    81   am
    76    64    65    1
    77   107   106    2
    78   165   166    1
    79    70    71    2
    80    70    72   am
    81    66    65   ar
    82    88    89   ar
    83    88    86   ar
    84    89    87   ar
    85    82    81    2
    86    81    80    1
    87    65    67   ar
    88    72    73    1
    89   106   105    1
    90    86    84   ar
    91   166   167    1
    92   169   167   am
    93   167   168    2
    94    87    85   ar
    95    79    80    1
    96    79    74   am
    97    28    27    1
    98   104   105    1
    99    84    85   ar
   100    84    83    1
   101    80    83    1
   102   105   108    1
   103    73    74    1
   104    73    76    1
   105    78    76    1
   106    74    75    2
   107    27    29    1
   108    27    26    2
   109    76    77    1
   110    19    20    1
   111   108   109    1
   112   108   110    1
   113    23    20    1
   114    23    24    1
   115    25    26    1
   116    25    24    1
   117    15    14    2
   118    20    21    1
   119    14    13    1
   120    38    37    1
   121    21    22    2
   122    37    36    1
   123    36    35    1
   124    18    16    1
   125    16    13    1
   126    16    17    1
   127    13    12    1
   128    58    56   am
   129    34    35    1
   130    34    31    1
   131    55    56    1
   132    55    54    1
   133    30    31    1
   134    56    57    2
   135    31    32    1
   136    49    47    1
   137    54    51    1
   138    51    52    1
   139    51    50    1
   140    53    52    2
   141     4     3    2
   142    47    48    1
   143    47    46    2
   144    46    45    1
   145    10    11   ar
   146    10     8   ar
   147    32    33    2
   148    11     9   ar
   149     3     2    1
   150    45    44    1
   151     8     6   ar
   152     9     7   ar
   153     6     7   ar
   154     6     5    1
   155     2     1    1
   156     2     5    1
   157    44    43    1
   158    43    40    1
   159    42    41    2
   160    40    41    1
   161    40    39    1
