@<TRIPOS>MOLECULE
tmp/2y57A00.pdb
 120 118 0 0 0
SMALL
GASTEIGER

@<TRIPOS>ATOM
      1  N        -21.0580  -89.3490   35.7440 N.3    89  THR89      -0.1218
      2  CA       -21.8070  -88.4670   36.6510 C.3    89  THR89       0.1862
      3  C        -22.6470  -89.2620   37.6440 C.2    89  THR89       0.2287
      4  O        -23.1260  -90.3430   37.2970 O.2    89  THR89      -0.2866
      5  CB       -22.7240  -87.5860   35.8030 C.3    89  THR89       0.1770
      6  OG1      -21.9410  -87.0060   34.7730 O.3    89  THR89      -0.2211
      7  CG2      -23.4280  -86.4980   36.6010 C.3    89  THR89       0.0375
      8  N        -26.0940  -89.5300   39.4710 N.3    91  TYR91      -0.1241
      9  CA       -27.4690  -89.0750   39.2330 C.3    91  TYR91       0.1605
     10  C        -28.1110  -88.2920   40.4430 C.2    91  TYR91       0.2264
     11  O        -28.4880  -87.1130   40.2840 O.2    91  TYR91      -0.2867
     12  CB       -28.3490  -90.2650   38.8360 C.3    91  TYR91       0.0534
     13  CG       -29.6040  -89.8820   38.0870 C.ar   91  TYR91      -0.0201
     14  CD1      -29.5910  -89.7130   36.7070 C.ar   91  TYR91      -0.0009
     15  CD2      -30.8230  -89.7660   38.7460 C.ar   91  TYR91      -0.0009
     16  CE1      -30.7640  -89.4180   36.0010 C.ar   91  TYR91       0.0417
     17  CE2      -32.0040  -89.4790   38.0530 C.ar   91  TYR91       0.0417
     18  CZ       -31.9710  -89.2980   36.6800 C.ar   91  TYR91       0.1957
     19  OH       -33.1330  -88.9880   36.0080 O.3    91  TYR91      -0.2866
     20  N        -26.4280  -93.8510   41.5460 N.3   141  LYS141     -0.1245
     21  CA       -26.1290  -94.3790   40.2180 C.3   141  LYS141      0.1561
     22  C        -25.1210  -93.5210   39.4690 C.2   141  LYS141      0.2260
     23  O        -25.3860  -92.3500   39.2020 O.2   141  LYS141     -0.2867
     24  CB       -27.4140  -94.4940   39.4020 C.3   141  LYS141      0.0271
     25  CG       -28.3210  -95.5810   39.9120 C.3   141  LYS141      0.0035
     26  CD       -29.7380  -95.4220   39.4630 C.3   141  LYS141      0.0206
     27  CE       -30.6100  -96.1830   40.4180 C.3   141  LYS141      0.1093
     28  NZ       -32.0340  -96.0090   40.0660 N.3   141  LYS141     -0.1314
     29  N        -22.9360  -93.0090   35.9850 N.3   143  GLY143     -0.1210
     30  CA       -22.9280  -93.3190   34.5660 C.3   143  GLY143      0.1956
     31  C        -22.6590  -92.0890   33.7320 C.2   143  GLY143      0.2613
     32  O        -22.6390  -90.9710   34.2620 O.2   143  GLY143     -0.2717
     33  N        -22.4440  -92.2820   32.4140 N.am  144  SER144     -0.1938
     34  CA       -22.2330  -91.1460   31.5080 C.3   144  SER144      0.2055
     35  C        -23.5180  -90.3350   31.4300 C.2   144  SER144      0.2643
     36  O        -24.5970  -90.8950   31.2670 O.2   144  SER144     -0.2714
     37  CB       -21.7880  -91.6050   30.1210 C.3   144  SER144      0.2130
     38  OG       -21.9450  -90.5530   29.1850 O.3   144  SER144     -0.2179
     39  N        -23.4090  -89.0390   31.6000 N.am  145  TRP145     -0.1959
     40  CA       -24.5690  -88.1730   31.5750 C.3   145  TRP145      0.1771
     41  C        -25.1300  -88.0530   30.1670 C.2   145  TRP145      0.2619
     42  O        -26.3500  -88.1170   29.9770 O.2   145  TRP145     -0.2715
     43  CB       -24.1930  -86.7840   32.1160 C.3   145  TRP145      0.0590
     44  CG       -25.3380  -85.8220   32.2290 C.ar  145  TRP145      0.0006
     45  CD1      -25.5650  -84.7240   31.4540 C.ar  145  TRP145      0.0946
     46  CD2      -26.4070  -85.8670   33.1860 C.ar  145  TRP145      0.0152
     47  NE1      -26.7010  -84.0730   31.8750 N.ar  145  TRP145     -0.2442
     48  CE2      -27.2520  -84.7670   32.9220 C.ar  145  TRP145      0.0810
     49  CE3      -26.7270  -86.7270   34.2530 C.ar  145  TRP145      0.0012
     50  CZ2      -28.3750  -84.4800   33.7090 C.ar  145  TRP145      0.0191
     51  CZ3      -27.8560  -86.4610   35.0140 C.ar  145  TRP145      0.0001
     52  CH2      -28.6570  -85.3420   34.7500 C.ar  145  TRP145      0.0015
     53  N        -24.2310  -87.9640   29.1900 N.am  146  VAL146     -0.1977
     54  CA       -24.6170  -87.6740   27.8320 C.3   146  VAL146      0.1596
     55  C        -24.6060  -88.8810   26.9020 C.2   146  VAL146      0.2287
     56  O        -25.3310  -88.8480   25.9040 O.2   146  VAL146     -0.2864
     57  CB       -23.7660  -86.5060   27.2610 C.3   146  VAL146      0.0276
     58  CG1      -23.8380  -85.2820   28.1660 C.3   146  VAL146      0.0022
     59  CG2      -22.3190  -86.9130   27.0250 C.3   146  VAL146      0.0022
     60  N        -35.1700  -94.0950   30.7040 N.3   186  TYR186     -0.1241
     61  CA       -35.7170  -92.8980   31.3390 C.3   186  TYR186      0.1605
     62  C        -36.8680  -92.4060   30.5170 C.2   186  TYR186      0.2264
     63  O        -36.9390  -92.7330   29.3340 O.2   186  TYR186     -0.2867
     64  CB       -34.6310  -91.8270   31.5380 C.3   186  TYR186      0.0534
     65  CG       -33.5940  -92.2740   32.5450 C.ar  186  TYR186     -0.0201
     66  CD1      -33.8230  -92.1470   33.9160 C.ar  186  TYR186     -0.0009
     67  CD2      -32.4220  -92.9010   32.1350 C.ar  186  TYR186     -0.0009
     68  CE1      -32.8890  -92.5850   34.8500 C.ar  186  TYR186      0.0417
     69  CE2      -31.4970  -93.3790   33.0610 C.ar  186  TYR186      0.0417
     70  CZ       -31.7300  -93.2040   34.4190 C.ar  186  TYR186      0.1957
     71  OH       -30.8320  -93.6540   35.3560 O.3   186  TYR186     -0.2866
     72  N        -37.8210  -89.4910   29.2870 N.3   188  CYS188     -0.1221
     73  CA       -37.3120  -88.5830   28.2610 C.3   188  CYS188      0.1808
     74  C        -36.8460  -89.2580   26.9990 C.2   188  CYS188      0.2601
     75  O        -36.9370  -88.6810   25.9180 O.2   188  CYS188     -0.2717
     76  CB       -36.1390  -87.7990   28.8510 C.3   188  CYS188      0.0970
     77  SG       -34.6440  -88.8020   29.1690 S.3   188  CYS188     -0.0800
     78  N        -36.1560  -90.3810   27.1730 N.am  189  CYS189     -0.1970
     79  CA       -35.2900  -90.9640   26.1960 C.3   189  CYS189      0.1712
     80  C        -35.5660  -92.4290   25.8670 C.2   189  CYS189      0.2296
     81  O        -35.6630  -93.2700   26.7620 O.2   189  CYS189     -0.2864
     82  CB       -33.8730  -90.7720   26.7130 C.3   189  CYS189      0.0983
     83  SG       -33.5790  -89.1140   27.4180 S.3   189  CYS189     -0.0798
     84  N        -33.4420  -94.4510   24.1350 N.3   191  GLU191     -0.1245
     85  CA       -32.1480  -95.1240   24.2380 C.3   191  GLU191      0.1567
     86  C        -31.8580  -95.4540   25.7180 C.2   191  GLU191      0.2260
     87  O        -32.3000  -94.7000   26.6140 O.2   191  GLU191     -0.2867
     88  CB       -31.0270  -94.2670   23.5910 C.3   191  GLU191      0.0388
     89  CG       -30.8360  -92.8650   24.1750 C.3   191  GLU191      0.1160
     90  CD       -31.7200  -91.7140   23.7140 C.2   191  GLU191      0.3649
     91  OE1      -32.3130  -91.8190   22.6140 O.co2 191  GLU191     -0.2457
     92  OE2      -31.7510  -90.6730   24.4160 O.co2 191  GLU191     -0.2457
     93  N        -29.5180  -96.1210   29.2280 N.3   193  TYR193     -0.1227
     94  CA       -28.3380  -95.5430   29.8250 C.3   193  TYR193      0.1736
     95  C        -27.8130  -96.4940   30.8650 C.2   193  TYR193      0.2595
     96  O        -28.5750  -97.0040   31.7010 O.2   193  TYR193     -0.2718
     97  CB       -28.6040  -94.1340   30.3810 C.3   193  TYR193      0.0548
     98  CG       -28.7680  -93.1110   29.2760 C.ar  193  TYR193     -0.0200
     99  CD1      -29.9320  -93.0610   28.5100 C.ar  193  TYR193     -0.0009
    100  CD2      -27.7520  -92.2110   28.9770 C.ar  193  TYR193     -0.0009
    101  CE1      -30.0710  -92.1550   27.4650 C.ar  193  TYR193      0.0417
    102  CE2      -27.8850  -91.2930   27.9360 C.ar  193  TYR193      0.0417
    103  CZ       -29.0500  -91.2650   27.1860 C.ar  193  TYR193      0.1957
    104  OH       -29.1990  -90.3560   26.1650 O.3   193  TYR193     -0.2866
    105  N        -26.5070  -96.7980   30.7450 N.am  194  ILE194     -0.1966
    106  CA       -25.8260  -97.7070   31.6510 C.3   194  ILE194      0.1727
    107  C        -25.1760  -96.9010   32.7740 C.2   194  ILE194      0.2616
    108  O        -24.5980  -95.8230   32.5700 O.2   194  ILE194     -0.2715
    109  CB       -24.8220  -98.6290   30.9160 C.3   194  ILE194      0.0290
    110  CG1      -25.5490  -99.4280   29.8440 C.3   194  ILE194      0.0022
    111  CG2      -24.0860  -99.5750   31.8950 C.3   194  ILE194      0.0023
    112  CD1      -24.7380  -99.6850   28.6770 C.3   194  ILE194      0.0001
    113  N        -25.3050  -97.4580   33.9700 N.am  195  ASP195     -0.1971
    114  CA       -24.7530  -96.9540   35.2020 C.3   195  ASP195      0.1709
    115  C        -24.2510  -98.1330   36.0470 C.2   195  ASP195      0.2293
    116  O        -24.5560  -99.3070   35.7630 O.2   195  ASP195     -0.2864
    117  CB       -25.8110  -96.1270   35.9630 C.3   195  ASP195      0.1436
    118  CG       -26.7730  -96.9500   36.8060 C.2   195  ASP195      0.3671
    119  OD1      -26.4150  -97.2830   37.9640 O.co2 195  ASP195     -0.2456
    120  OD2      -27.8720  -97.2850   36.2990 O.co2 195  ASP195     -0.2456
@<TRIPOS>BOND
     1    91    90   ar
     2    88    89    1
     3    88    85    1
     4    90    89    1
     5    90    92   ar
     6    84    85    1
     7    85    86    1
     8    86    87    2
     9    80    79    1
    10    80    81    2
    11    56    55    2
    12    75    74    2
    13   104   103    1
    14    79    82    1
    15    79    78    1
    16    82    83    1
    17    55    54    1
    18    74    78   am
    19    74    73    1
    20    59    57    1
    21   103   101   ar
    22   103   102   ar
    23    57    54    1
    24    57    58    1
    25    83    77    1
    26   101    99   ar
    27    54    53    1
    28   102   100   ar
    29    73    76    1
    30    73    72    1
    31    99    98   ar
    32   112   110    1
    33    76    77    1
    34   100    98   ar
    35    38    37    1
    36    53    41   am
    37    93    94    1
    38    98    97    1
    39    63    62    2
    40    94    97    1
    41    94    95    1
    42   110   109    1
    43    42    41    2
    44    37    34    1
    45    41    40    1
    46    62    61    1
    47    60    61    1
    48   105    95   am
    49   105   106    1
    50    95    96    2
    51   109   106    1
    52   109   111    1
    53    36    35    2
    54    61    64    1
    55    35    34    1
    56    35    39   am
    57    45    47   ar
    58    45    44   ar
    59    34    33    1
    60    64    65    1
    61    40    39    1
    62    40    43    1
    63   106   107    1
    64    47    48   ar
    65    43    44    1
    66    67    65   ar
    67    67    69   ar
    68    44    46   ar
    69    33    31   am
    70    65    66   ar
    71   108   107    2
    72   107   113   am
    73    48    46   ar
    74    48    50   ar
    75    69    70   ar
    76    46    49   ar
    77    50    52   ar
    78    31    32    2
    79    31    30    1
    80    66    68   ar
    81   113   114    1
    82    49    51   ar
    83    70    68   ar
    84    70    71    1
    85    30    29    1
    86    52    51   ar
    87     6     5    1
    88   114   117    1
    89   114   115    1
    90     1     2    1
    91   116   115    2
    92     5     7    1
    93     5     2    1
    94   117   118    1
    95    16    18   ar
    96    16    14   ar
    97    19    18    1
    98   120   118   ar
    99     2     3    1
   100    18    17   ar
   101    14    13   ar
   102   118   119   ar
   103     4     3    2
   104    17    15   ar
   105    13    15   ar
   106    13    12    1
   107    12     9    1
   108    23    22    2
   109     9     8    1
   110     9    10    1
   111    24    25    1
   112    24    21    1
   113    26    25    1
   114    26    27    1
   115    22    21    1
   116    28    27    1
   117    21    20    1
   118    11    10    2
