@<TRIPOS>MOLECULE
tmp/2y59B00.pdb
 100 93 0 0 0
SMALL
GASTEIGER

@<TRIPOS>ATOM
      1  N         57.0560   23.1340   29.3590 N.3    48  ALA48      -0.1231
      2  CA        58.2440   22.7030   30.0890 C.3    48  ALA48       0.1694
      3  C         58.3350   23.4920   31.3960 C.2    48  ALA48       0.2592
      4  O         57.3190   23.7080   32.0520 O.2    48  ALA48      -0.2718
      5  CB        59.4970   22.8780   29.2440 C.3    48  ALA48       0.0304
      6  N         59.5310   23.9420   31.7510 N.am   49  SER49      -0.1952
      7  CA        59.7810   24.6130   33.0360 C.3    49  SER49       0.1924
      8  C         58.9330   25.8770   33.3070 C.2    49  SER49       0.2314
      9  O         58.8330   26.3180   34.4650 O.2    49  SER49      -0.2863
     10  CB        61.2940   24.8990   33.2010 C.3    49  SER49       0.2116
     11  OG        61.6570   25.4100   34.4790 O.3    49  SER49      -0.2180
     12  N         56.3630   26.2990   36.2520 N.3    52  LYS52      -0.1245
     13  CA        56.7580   26.8160   37.5800 C.3    52  LYS52       0.1561
     14  C         56.2500   28.2370   37.8820 C.2    52  LYS52       0.2260
     15  O         56.2130   28.6440   39.0450 O.2    52  LYS52      -0.2867
     16  CB        58.2760   26.7480   37.7770 C.3    52  LYS52       0.0271
     17  CG        58.8240   25.3270   37.7490 C.3    52  LYS52       0.0035
     18  CD        60.2880   25.2860   38.1010 C.3    52  LYS52       0.0206
     19  CE        60.8010   23.9020   37.9200 C.3    52  LYS52       0.1093
     20  NZ        61.0940   23.7240   36.4800 N.3    52  LYS52      -0.1314
     21  N         67.0110   16.6260   38.4530 N.3   147  TYR147     -0.1241
     22  CA        65.8200   17.3110   38.0250 C.3   147  TYR147      0.1605
     23  C         64.5610   16.4400   38.1230 C.2   147  TYR147      0.2264
     24  O         63.4320   16.9530   37.9990 O.2   147  TYR147     -0.2867
     25  CB        66.0280   17.9200   36.6250 C.3   147  TYR147      0.0534
     26  CG        66.2540   16.9560   35.4750 C.ar  147  TYR147     -0.0201
     27  CD1       65.1900   16.3130   34.8570 C.ar  147  TYR147     -0.0009
     28  CD2       67.5240   16.7430   34.9670 C.ar  147  TYR147     -0.0009
     29  CE1       65.3880   15.4520   33.7930 C.ar  147  TYR147      0.0417
     30  CE2       67.7410   15.8760   33.8990 C.ar  147  TYR147      0.0417
     31  CZ        66.6610   15.2360   33.3230 C.ar  147  TYR147      0.1957
     32  OH        66.8730   14.3800   32.2680 O.3   147  TYR147     -0.2866
     33  N         65.4280   26.8020   38.6660 N.3   298  SER298     -0.1217
     34  CA        64.3390   25.9720   38.1630 C.3   298  SER298      0.1889
     35  C         64.3710   24.6050   38.8330 C.2   298  SER298      0.2288
     36  O         64.7570   23.6130   38.2320 O.2   298  SER298     -0.2866
     37  CB        64.3940   25.8550   36.6440 C.3   298  SER298      0.2089
     38  OG        63.1180   25.5930   36.0960 O.3   298  SER298     -0.2183
     39  N         62.8440   21.3180   40.1850 N.3   300  ASN300     -0.1240
     40  CA        61.6300   20.5210   39.9880 C.3   300  ASN300      0.1653
     41  C         61.0040   19.9570   41.3060 C.2   300  ASN300      0.2266
     42  O         59.7910   20.0930   41.5480 O.2   300  ASN300     -0.2867
     43  CB        61.8680   19.4320   38.9300 C.3   300  ASN300      0.1155
     44  CG        62.0560   19.9890   37.4990 C.2   300  ASN300      0.2627
     45  OD1       61.8630   21.1700   37.2030 O.2   300  ASN300     -0.2716
     46  ND2       62.3900   19.0970   36.6000 N.am  300  ASN300     -0.0877
     47  N         56.5660   21.3240   35.4140 N.3   348  GLY348     -0.1210
     48  CA        56.5390   21.4390   33.9790 C.3   348  GLY348      0.1956
     49  C         57.3710   20.3790   33.3040 C.2   348  GLY348      0.2611
     50  O         57.6340   20.4960   32.1170 O.2   348  GLY348     -0.2717
     51  N         57.7830   19.3430   34.0410 N.am  349  LEU349     -0.1979
     52  CA        58.6060   18.2910   33.4700 C.3   349  LEU349      0.1596
     53  C         57.7250   17.3730   32.6330 C.2   349  LEU349      0.2287
     54  O         58.2040   16.7350   31.6860 O.2   349  LEU349     -0.2864
     55  CB        59.3010   17.4800   34.5790 C.3   349  LEU349      0.0297
     56  CG        60.5610   16.5810   34.4070 C.3   349  LEU349      0.0022
     57  CD1       60.7180   15.5750   35.5560 C.3   349  LEU349      0.0001
     58  CD2       60.7270   15.8100   33.0700 C.3   349  LEU349      0.0001
     59  N         69.1770   30.7430   35.3740 N.3   393  THR393     -0.1218
     60  CA        69.2200   30.0430   34.0890 C.3   393  THR393      0.1862
     61  C         69.4240   30.9860   32.9050 C.2   393  THR393      0.2287
     62  O         69.4720   30.5380   31.7500 O.2   393  THR393     -0.2866
     63  CB        67.9410   29.1870   33.8800 C.3   393  THR393      0.1770
     64  OG1       66.7990   29.9050   34.3510 O.3   393  THR393     -0.2211
     65  CG2       68.0190   27.8610   34.6660 C.3   393  THR393      0.0375
     66  N         61.4110   33.3450   33.1290 N.3   410  LYS410     -0.1231
     67  CA        61.5800   31.9390   33.4660 C.3   410  LYS410      0.1693
     68  C         61.8220   31.2060   32.1840 C.2   410  LYS410      0.2593
     69  O         61.0210   31.3100   31.2550 O.2   410  LYS410     -0.2718
     70  CB        60.3370   31.3780   34.1580 C.3   410  LYS410      0.0285
     71  CG        60.4250   29.8850   34.4830 C.3   410  LYS410      0.0035
     72  CD        61.4460   29.6390   35.5780 C.3   410  LYS410      0.0206
     73  CE        61.8400   28.1810   35.7400 C.3   410  LYS410      0.1093
     74  NZ        62.6120   27.6430   34.6140 N.3   410  LYS410     -0.1314
     75  N         62.9460   30.4820   32.1480 N.am  411  THR411     -0.1939
     76  CA        63.3550   29.6330   31.0300 C.3   411  THR411      0.2028
     77  C         62.6870   28.2530   31.1180 C.2   411  THR411      0.2643
     78  O         61.8600   28.0160   31.9980 O.2   411  THR411     -0.2714
     79  CB        64.8720   29.4080   31.0460 C.3   411  THR411      0.1808
     80  OG1       65.2200   28.7270   32.2540 O.3   411  THR411     -0.2208
     81  CG2       65.6320   30.7060   30.9840 C.3   411  THR411      0.0379
     82  N         63.0600   27.3480   30.2090 N.am  412  GLY412     -0.1939
     83  CA        62.5140   25.9970   30.2070 C.3   412  GLY412      0.2014
     84  C         62.7350   25.3010   28.8760 C.2   412  GLY412      0.2640
     85  O         62.2280   25.7480   27.8350 O.2   412  GLY412     -0.2714
     86  N         63.4940   24.2060   28.9070 N.am  413  THR413     -0.1936
     87  CA        63.8410   23.4580   27.7070 C.3   413  THR413      0.2028
     88  C         63.8700   21.9460   27.9350 C.2   413  THR413      0.2642
     89  O         64.4470   21.4560   28.8980 O.2   413  THR413     -0.2714
     90  CB        65.2360   23.8510   27.1800 C.3   413  THR413      0.1808
     91  OG1       65.1980   25.1790   26.6670 O.3   413  THR413     -0.2208
     92  CG2       65.6610   22.9160   26.0710 C.3   413  THR413      0.0379
     93  N         63.2080   21.2430   27.0250 N.am  414  MET414     -0.1976
     94  CA        63.4040   19.8200   26.7740 C.3   414  MET414      0.1605
     95  C         63.1380   19.6200   25.2630 C.2   414  MET414      0.2287
     96  O         62.8440   20.6060   24.5620 O.2   414  MET414     -0.2864
     97  CB        62.5510   18.9370   27.7100 C.3   414  MET414      0.0413
     98  CG        61.0380   19.1450   27.6570 C.3   414  MET414      0.0598
     99  SD        60.2270   18.5070   29.1540 S.3   414  MET414     -0.1393
    100  CE        58.5410   19.0420   28.9120 C.3   414  MET414      0.0692
@<TRIPOS>BOND
     1    96    95    2
     2    95    94    1
     3    92    90    1
     4    91    90    1
     5    94    93    1
     6    94    97    1
     7    93    88   am
     8    90    87    1
     9    98    97    1
    10    98    99    1
    11    87    88    1
    12    87    86    1
    13    85    84    2
    14    88    89    2
    15    84    86   am
    16    84    83    1
    17   100    99    1
    18     5     2    1
    19     1     2    1
    20     2     3    1
    21    83    82    1
    22    82    77   am
    23    81    79    1
    24    76    79    1
    25    76    77    1
    26    76    75    1
    27    79    80    1
    28    77    78    2
    29    69    68    2
    30     3     6   am
    31     3     4    2
    32    54    53    2
    33    62    61    2
    34     6     7    1
    35    50    49    2
    36    75    68   am
    37    68    67    1
    38    32    31    1
    39    53    52    1
    40    61    60    1
    41     7    10    1
    42     7     8    1
    43    58    56    1
    44    66    67    1
    45    10    11    1
    46    49    48    1
    47    49    51   am
    48     8     9    2
    49    31    29   ar
    50    31    30   ar
    51    67    70    1
    52    52    51    1
    53    52    55    1
    54    29    27   ar
    55    63    60    1
    56    63    64    1
    57    63    65    1
    58    30    28   ar
    59    48    47    1
    60    60    59    1
    61    70    71    1
    62    56    55    1
    63    56    57    1
    64    71    72    1
    65    74    73    1
    66    27    26   ar
    67    28    26   ar
    68    26    25    1
    69    72    73    1
    70    38    37    1
    71    12    13    1
    72    20    19    1
    73    46    44   am
    74    25    22    1
    75    37    34    1
    76    45    44    2
    77    44    43    1
    78    13    16    1
    79    13    14    1
    80    17    16    1
    81    17    18    1
    82    14    15    2
    83    19    18    1
    84    24    23    2
    85    22    23    1
    86    22    21    1
    87    34    33    1
    88    34    35    1
    89    36    35    2
    90    43    40    1
    91    40    39    1
    92    40    41    1
    93    41    42    2
