@<TRIPOS>MOLECULE
tmp/2y5dB00.pdb
 148 145 0 0 0
SMALL
GASTEIGER

@<TRIPOS>ATOM
      1  N        -16.9630    0.0480  -32.4160 N.3    97  ASN97      -0.1240
      2  CA       -16.0760    1.0610  -31.8210 C.3    97  ASN97       0.1653
      3  C        -15.9480    0.8990  -30.3190 C.2    97  ASN97       0.2266
      4  O        -14.9260    1.0680  -29.7390 O.2    97  ASN97      -0.2867
      5  CB       -16.5340    2.4720  -32.2060 C.3    97  ASN97       0.1155
      6  CG       -16.1740    2.8530  -33.6340 C.2    97  ASN97       0.2627
      7  OD1      -15.4730    2.1270  -34.3560 O.2    97  ASN97      -0.2716
      8  ND2      -16.7340    3.9700  -34.0700 N.am   97  ASN97      -0.0877
      9  N        -13.9810   -2.1390  -29.4210 N.3   100  ALA100     -0.1231
     10  CA       -12.5810   -1.8610  -29.4830 C.3   100  ALA100      0.1694
     11  C        -11.9170   -1.3360  -28.2600 C.2   100  ALA100      0.2591
     12  O        -10.7110   -1.6080  -28.0130 O.2   100  ALA100     -0.2718
     13  CB       -12.3800   -0.8620  -30.6520 C.3   100  ALA100      0.0304
     14  N        -12.6580   -0.6210  -27.4400 N.am  101  VAL101     -0.1980
     15  CA       -12.1230   -0.0510  -26.1950 C.3   101  VAL101      0.1595
     16  C        -11.6470   -1.2660  -25.3260 C.2   101  VAL101      0.2287
     17  O        -10.6090   -1.1720  -24.6750 O.2   101  VAL101     -0.2864
     18  CB       -13.1650    0.7960  -25.4650 C.3   101  VAL101      0.0276
     19  CG1      -12.5180    1.3980  -24.1780 C.3   101  VAL101      0.0022
     20  CG2      -13.6140    2.0210  -26.3400 C.3   101  VAL101      0.0022
     21  N         -9.1130   -3.8330  -28.2360 N.3   104  ASP104     -0.1225
     22  CA        -7.8400   -3.1280  -28.6140 C.3   104  ASP104      0.1805
     23  C         -7.2510   -2.3310  -27.5350 C.2   104  ASP104      0.2598
     24  O         -6.0240   -2.1940  -27.5100 O.2   104  ASP104     -0.2718
     25  CB        -8.0990   -2.3050  -29.8940 C.3   104  ASP104      0.1424
     26  CG        -8.4700   -3.2310  -31.0950 C.2   104  ASP104      0.3668
     27  OD1       -8.0050   -4.3740  -31.0840 O.co2 104  ASP104     -0.2456
     28  OD2       -9.0090   -2.8010  -32.0960 O.co2 104  ASP104     -0.2456
     29  N         -8.0650   -1.8670  -26.5990 N.am  105  GLY105     -0.1957
     30  CA        -7.5810   -1.2820  -25.3360 C.3   105  GLY105      0.1869
     31  C         -6.7230   -2.2460  -24.5410 C.2   105  GLY105      0.2309
     32  O         -5.6290   -1.9510  -24.0460 O.2   105  GLY105     -0.2863
     33  N         -3.4590   -2.9610  -26.5650 N.3   108  PHE108     -0.1227
     34  CA        -2.5700   -1.7880  -26.4810 C.3   108  PHE108      0.1736
     35  C         -1.8350   -1.7490  -25.1120 C.2   108  PHE108      0.2596
     36  O         -0.6330   -1.4980  -24.9980 O.2   108  PHE108     -0.2718
     37  CB        -3.4110   -0.5530  -26.6590 C.3   108  PHE108      0.0547
     38  CG        -2.6540    0.7890  -26.4900 C.ar  108  PHE108     -0.0202
     39  CD1       -2.4900    1.4410  -25.3000 C.ar  108  PHE108     -0.0042
     40  CD2       -2.0430    1.3510  -27.6340 C.ar  108  PHE108     -0.0042
     41  CE1       -1.7410    2.6040  -25.1470 C.ar  108  PHE108     -0.0003
     42  CE2       -1.3280    2.5880  -27.5530 C.ar  108  PHE108     -0.0003
     43  CZ        -1.1480    3.1870  -26.3090 C.ar  108  PHE108     -0.0000
     44  N         -2.5680   -2.0380  -24.0160 N.am  109  THR109     -0.1953
     45  CA        -1.9770   -1.9900  -22.6730 C.3   109  THR109      0.1897
     46  C         -1.0160   -3.1250  -22.4870 C.2   109  THR109      0.2313
     47  O          0.0480   -2.9040  -21.9060 O.2   109  THR109     -0.2863
     48  CB        -3.1990   -2.1660  -21.6730 C.3   109  THR109      0.1794
     49  OG1       -4.0180   -0.9380  -21.8430 O.3   109  THR109     -0.2208
     50  CG2       -2.7160   -2.1840  -20.2530 C.3   109  THR109      0.0378
     51  N        -17.7020   -5.0830  -17.1530 N.3   160  ASN160     -0.1225
     52  CA       -17.6740   -4.1980  -18.3020 C.3   160  ASN160      0.1785
     53  C        -16.4650   -4.3990  -19.2610 C.2   160  ASN160      0.2597
     54  O        -16.6450   -4.1590  -20.4500 O.2   160  ASN160     -0.2718
     55  CB       -17.7410   -2.7130  -17.8480 C.3   160  ASN160      0.1169
     56  CG       -16.5670   -2.2800  -17.0010 C.2   160  ASN160      0.2627
     57  OD1      -15.7490   -3.0450  -16.4290 O.2   160  ASN160     -0.2716
     58  ND2      -16.4790   -0.9480  -16.8310 N.am  160  ASN160     -0.0877
     59  N        -15.3590   -4.8750  -18.7250 N.am  161  PHE161     -0.1976
     60  CA       -14.1210   -4.9940  -19.5950 C.3   161  PHE161      0.1639
     61  C        -13.5400   -6.3780  -19.4460 C.2   161  PHE161      0.2290
     62  O        -12.5590   -6.6370  -18.8020 O.2   161  PHE161     -0.2864
     63  CB       -13.0660   -3.9070  -19.2030 C.3   161  PHE161      0.0560
     64  CG       -13.3920   -2.5530  -19.7240 C.ar  161  PHE161     -0.0200
     65  CD1      -13.3410   -2.2940  -21.0820 C.ar  161  PHE161     -0.0042
     66  CD2      -13.6750   -1.4470  -18.8860 C.ar  161  PHE161     -0.0042
     67  CE1      -13.5470   -1.0220  -21.6330 C.ar  161  PHE161     -0.0003
     68  CE2      -13.8650   -0.1920  -19.4640 C.ar  161  PHE161     -0.0003
     69  CZ       -13.8410    0.0450  -20.8060 C.ar  161  PHE161     -0.0000
     70  N         -9.9170   -5.9520  -21.3360 N.3   164  TRP164     -0.1241
     71  CA        -8.9850   -4.9450  -20.7640 C.3   164  TRP164      0.1605
     72  C         -8.7510   -5.2190  -19.2610 C.2   164  TRP164      0.2264
     73  O         -7.6840   -5.0810  -18.6950 O.2   164  TRP164     -0.2867
     74  CB        -9.5020   -3.5240  -21.0180 C.3   164  TRP164      0.0550
     75  CG        -8.6060   -2.4750  -20.3500 C.ar  164  TRP164      0.0003
     76  CD1       -7.4250   -1.8860  -20.8120 C.ar  164  TRP164      0.0946
     77  CD2       -8.8620   -1.8780  -19.0870 C.ar  164  TRP164      0.0152
     78  NE1       -6.9940   -1.0050  -19.9000 N.ar  164  TRP164     -0.2442
     79  CE2       -7.8420   -0.9510  -18.8130 C.ar  164  TRP164      0.0810
     80  CE3       -9.8970   -2.0450  -18.1210 C.ar  164  TRP164      0.0012
     81  CZ2       -7.7370   -0.2140  -17.6990 C.ar  164  TRP164      0.0191
     82  CZ3       -9.8220   -1.2630  -16.9720 C.ar  164  TRP164      0.0001
     83  CH2       -8.7570   -0.3150  -16.7560 C.ar  164  TRP164      0.0015
     84  N        -18.5870    2.5410  -18.1240 N.3   296  LYS296     -0.1231
     85  CA       -17.1350    2.6550  -17.6980 C.3   296  LYS296      0.1693
     86  C        -17.1730    3.1780  -16.2710 C.2   296  LYS296      0.2592
     87  O        -17.8900    4.1240  -15.9830 O.2   296  LYS296     -0.2718
     88  CB       -16.3310    3.6610  -18.6320 C.3   296  LYS296      0.0285
     89  CG       -16.2420    3.1250  -20.0580 C.3   296  LYS296      0.0035
     90  CD       -15.0100    3.6660  -20.7980 C.3   296  LYS296      0.0206
     91  CE       -14.7430    5.1590  -20.6480 C.3   296  LYS296      0.1093
     92  NZ       -15.7500    6.0100  -21.4860 N.3   296  LYS296     -0.1314
     93  N        -16.2800    2.6530  -15.4370 N.am  297  ALA297     -0.1966
     94  CA       -16.2100    3.1970  -14.1110 C.3   297  ALA297      0.1728
     95  C        -15.7190    4.6630  -14.0310 C.2   297  ALA297      0.2616
     96  O        -16.0050    5.3600  -13.0770 O.2   297  ALA297     -0.2715
     97  CB       -15.2610    2.3080  -13.2180 C.3   297  ALA297      0.0334
     98  N        -14.9950    5.0610  -15.1140 N.am  298  THR298     -0.1951
     99  CA       -14.4410    6.4070  -15.2640 C.3   298  THR298      0.1897
    100  C        -15.4270    7.3020  -15.9790 C.2   298  THR298      0.2313
    101  O        -15.1060    8.4950  -16.0790 O.2   298  THR298     -0.2863
    102  CB       -13.2090    6.3190  -16.1320 C.3   298  THR298      0.1794
    103  OG1      -13.5270    5.5750  -17.3090 O.3   298  THR298     -0.2208
    104  CG2      -12.0380    5.6000  -15.3610 C.3   298  THR298      0.0378
    105  N        -12.4710    9.3280  -20.0480 N.3   474  GLY474     -0.1210
    106  CA       -12.7020    7.9600  -19.4620 C.3   474  GLY474      0.1956
    107  C        -11.7170    6.9340  -19.8750 C.2   474  GLY474      0.2612
    108  O        -11.6470    5.8880  -19.2900 O.2   474  GLY474     -0.2717
    109  N        -10.8730    7.2160  -20.8910 N.am  475  ASN475     -0.1960
    110  CA        -9.9200    6.2300  -21.3840 C.3   475  ASN475      0.1819
    111  C         -8.7170    6.1760  -20.4980 C.2   475  ASN475      0.2621
    112  O         -8.2380    7.2420  -20.0260 O.2   475  ASN475     -0.2715
    113  CB        -9.5150    6.6390  -22.7850 C.3   475  ASN475      0.1195
    114  CG       -10.6280    6.5100  -23.7420 C.2   475  ASN475      0.2630
    115  OD1      -11.4260    5.5440  -23.6980 O.2   475  ASN475     -0.2716
    116  ND2      -10.7390    7.5040  -24.6270 N.am  475  ASN475     -0.0877
    117  N         -8.2860    5.0000  -20.1050 N.am  476  VAL476     -0.1963
    118  CA        -7.2610    4.8160  -19.1160 C.3   476  VAL476      0.1727
    119  C         -5.9570    4.5210  -19.8310 C.2   476  VAL476      0.2616
    120  O         -5.7770    3.4440  -20.4350 O.2   476  VAL476     -0.2715
    121  CB        -7.6640    3.6710  -18.1600 C.3   476  VAL476      0.0290
    122  CG1       -6.5880    3.3730  -17.1860 C.3   476  VAL476      0.0023
    123  CG2       -8.9150    4.0760  -17.3710 C.3   476  VAL476      0.0023
    124  N         -5.1080    5.5140  -19.8780 N.am  477  MET477     -0.1964
    125  CA        -3.8180    5.3180  -20.4750 C.3   477  MET477      0.1722
    126  C         -2.9110    4.5490  -19.5080 C.2   477  MET477      0.2458
    127  O         -2.8000    4.9100  -18.3610 O.2   477  MET477     -0.2730
    128  CB        -3.1610    6.6730  -20.8550 C.3   477  MET477      0.0427
    129  CG        -3.9420    7.5230  -21.8720 C.3   477  MET477      0.0599
    130  SD        -4.1270    6.6530  -23.4360 S.3   477  MET477     -0.1393
    131  CE        -5.7830    5.9380  -23.2820 C.3   477  MET477      0.0692
    132  N         -2.2560    3.4930  -19.9760 N.am  478  PRO478     -0.2727
    133  CA        -1.5510    2.6020  -19.0380 C.3   478  PRO478      0.1402
    134  C         -0.3070    3.2100  -18.3470 C.2   478  PRO478      0.2269
    135  O          0.1390    2.7350  -17.3120 O.2   478  PRO478     -0.2865
    136  CB        -1.2060    1.3670  -19.9140 C.3   478  PRO478      0.0296
    137  CG        -1.0940    1.9640  -21.3020 C.3   478  PRO478      0.0237
    138  CD        -2.2520    2.9740  -21.3660 C.3   478  PRO478      0.0939
    139  N         -4.3020    4.6250  -12.4110 N.3   482  HIS482     -0.1241
    140  CA        -5.7570    4.3710  -12.3820 C.3   482  HIS482      0.1621
    141  C         -6.2510    3.9280  -11.0010 C.2   482  HIS482      0.2264
    142  O         -5.7800    2.8740  -10.4670 O.2   482  HIS482     -0.2867
    143  CB        -6.0940    3.2460  -13.3980 C.3   482  HIS482      0.0745
    144  CG        -7.5350    2.9470  -13.4590 C.ar  482  HIS482      0.0817
    145  ND1       -8.5000    3.8470  -13.8520 N.ar  482  HIS482     -0.2268
    146  CD2       -8.1680    1.7650  -13.2160 C.ar  482  HIS482      0.1154
    147  CE1       -9.6950    3.2530  -13.7330 C.ar  482  HIS482      0.1986
    148  NE2       -9.4930    1.9750  -13.4450 N.ar  482  HIS482     -0.2212
@<TRIPOS>BOND
     1     7     6    2
     2     8     6   am
     3     6     5    1
     4     1     2    1
     5     5     2    1
     6    28    26   ar
     7     2     3    1
     8    26    27   ar
     9    26    25    1
    10    13    10    1
    11     3     4    2
    12    25    22    1
    13    10     9    1
    14    10    11    1
    15    22    21    1
    16    22    23    1
    17    11    12    2
    18    11    14   am
    19    40    42   ar
    20    40    38   ar
    21    42    43   ar
    22    23    24    2
    23    23    29   am
    24    14    15    1
    25    37    38    1
    26    37    34    1
    27    29    30    1
    28    33    34    1
    29    38    39   ar
    30    34    35    1
    31    20    18    1
    32    43    41   ar
    33    15    18    1
    34    15    16    1
    35    18    19    1
    36    30    31    1
    37    16    17    2
    38    39    41   ar
    39    35    36    2
    40    35    44   am
    41   116   114   am
    42    31    32    2
    43    44    45    1
    44   114   115    2
    45   114   113    1
    46   130   131    1
    47   130   129    1
    48   113   110    1
    49    45    46    1
    50    45    48    1
    51    46    47    2
    52   129   128    1
    53    49    48    1
    54    48    50    1
    55    67    65   ar
    56    67    69   ar
    57    92    91    1
    58   110   109    1
    59   110   111    1
    60   138   137    1
    61   138   132    1
    62    70    71    1
    63   137   136    1
    64    65    64   ar
    65    74    71    1
    66    74    75    1
    67   109   107   am
    68   128   125    1
    69    76    75   ar
    70    76    78   ar
    71    69    68   ar
    72    90    91    1
    73    90    89    1
    74    71    72    1
    75   111   117   am
    76   111   112    2
    77   125   124    1
    78   125   126    1
    79    54    53    2
    80   120   119    2
    81    75    77   ar
    82   117   118    1
    83    89    88    1
    84   105   106    1
    85   132   126   am
    86   132   133    1
    87   136   133    1
    88    78    79   ar
    89   124   119   am
    90   107   106    1
    91   107   108    2
    92   119   118    1
    93    64    63    1
    94    64    66   ar
    95    60    61    1
    96    60    63    1
    97    60    59    1
    98   126   127    2
    99    68    66   ar
   100    61    62    2
   101    72    73    2
   102    53    59   am
   103    53    52    1
   104   118   121    1
   105    77    79   ar
   106    77    80   ar
   107   133   134    1
   108    79    81   ar
   109    88    85    1
   110   134   135    2
   111    52    55    1
   112    52    51    1
   113   121   123    1
   114   121   122    1
   115    84    85    1
   116    80    82   ar
   117    55    56    1
   118    81    83   ar
   119    85    86    1
   120   103   102    1
   121    56    58   am
   122    56    57    2
   123    82    83   ar
   124    86    87    2
   125    86    93   am
   126   102   104    1
   127   102    99    1
   128   101   100    2
   129   100    99    1
   130    93    94    1
   131    99    98    1
   132    98    95   am
   133    94    95    1
   134    94    97    1
   135    95    96    2
   136   145   147   ar
   137   145   144   ar
   138   147   148   ar
   139   144   143    1
   140   144   146   ar
   141   148   146   ar
   142   143   140    1
   143   139   140    1
   144   140   141    1
   145   141   142    2
