@<TRIPOS>MOLECULE
tmp/2y5eA00.pdb
 166 160 0 0 0
SMALL
GASTEIGER

@<TRIPOS>ATOM
      1  N         39.5240   -5.6840    8.5160 N.3   418  SER418     -0.1202
      2  CA        40.7590   -5.0600    8.0520 C.3   418  SER418      0.2020
      3  C         41.8930   -5.1000    9.0810 C.2   418  SER418      0.2618
      4  O         42.9990   -5.5420    8.7740 O.2   418  SER418     -0.2717
      5  CB        40.4900   -3.6150    7.6290 C.3   418  SER418      0.2103
      6  OG        41.7020   -2.9140    7.4330 O.3   418  SER418     -0.2182
      7  N         41.6190   -4.6330   10.2960 N.am  419  ALA419     -0.1979
      8  CA        42.6430   -4.5690   11.3390 C.3   419  ALA419      0.1597
      9  C         43.1950   -5.9510   11.6900 C.2   419  ALA419      0.2287
     10  O         44.3490   -6.0840   12.1020 O.2   419  ALA419     -0.2864
     11  CB        42.0930   -3.8810   12.5820 C.3   419  ALA419      0.0319
     12  N         47.6020    0.3840   15.1580 N.3   455  LEU455     -0.1245
     13  CA        46.7810    0.7830   14.0150 C.3   455  LEU455      0.1561
     14  C         46.0180    2.0790   14.2870 C.2   455  LEU455      0.2260
     15  O         44.7890    2.1150   14.2280 O.2   455  LEU455     -0.2867
     16  CB        45.8190   -0.3390   13.6110 C.3   455  LEU455      0.0270
     17  CG        46.4970   -1.6310   13.1430 C.3   455  LEU455      0.0019
     18  CD1       45.4730   -2.6970   12.7970 C.3   455  LEU455      0.0001
     19  CD2       47.4130   -1.3620   11.9560 C.3   455  LEU455      0.0001
     20  N         50.8860    3.8090   15.1730 N.3   491  GLU491     -0.1245
     21  CA        51.0330    3.4560   13.7660 C.3   491  GLU491      0.1567
     22  C         50.0060    4.2010   12.9300 C.2   491  GLU491      0.2260
     23  O         48.8200    3.8830   12.9780 O.2   491  GLU491     -0.2867
     24  CB        50.8180    1.9580   13.5640 C.3   491  GLU491      0.0388
     25  CG        51.8900    1.0610   14.1350 C.3   491  GLU491      0.1160
     26  CD        51.5580   -0.4060   13.9340 C.2   491  GLU491      0.3649
     27  OE1       50.3950   -0.7940   14.1860 O.co2 491  GLU491     -0.2457
     28  OE2       52.4540   -1.1690   13.5110 O.co2 491  GLU491     -0.2457
     29  N         49.2150    4.0920    9.8300 N.3   493  TRP493     -0.1227
     30  CA        49.0260    3.4750    8.5210 C.3   493  TRP493      0.1737
     31  C         47.6510    3.8080    7.9550 C.2   493  TRP493      0.2595
     32  O         46.6440    3.7490    8.6600 O.2   493  TRP493     -0.2718
     33  CB        49.2060    1.9550    8.5740 C.3   493  TRP493      0.0564
     34  CG        50.4370    1.4810    9.3010 C.ar  493  TRP493      0.0003
     35  CD1       50.5240    0.4130   10.1430 C.ar  493  TRP493      0.0946
     36  CD2       51.7490    2.0600    9.2520 C.ar  493  TRP493      0.0152
     37  NE1       51.8050    0.2860   10.6190 N.ar  493  TRP493     -0.2442
     38  CE2       52.5770    1.2860   10.0900 C.ar  493  TRP493      0.0810
     39  CE3       52.3030    3.1560    8.5830 C.ar  493  TRP493      0.0012
     40  CZ2       53.9280    1.5720   10.2780 C.ar  493  TRP493      0.0191
     41  CZ3       53.6470    3.4400    8.7710 C.ar  493  TRP493      0.0001
     42  CH2       54.4430    2.6510    9.6110 C.ar  493  TRP493      0.0015
     43  N         47.6210    4.1540    6.6730 N.am  494  ASP494     -0.1960
     44  CA        46.3770    4.4930    5.9980 C.3   494  ASP494      0.1840
     45  C         46.0570    3.4400    4.9440 C.2   494  ASP494      0.2622
     46  O         46.6910    3.3960    3.8900 O.2   494  ASP494     -0.2715
     47  CB        46.4940    5.8720    5.3470 C.3   494  ASP494      0.1450
     48  CG        45.1460    6.4890    5.0370 C.2   494  ASP494      0.3671
     49  OD1       44.1630    6.1530    5.7300 O.co2 494  ASP494     -0.2456
     50  OD2       45.0730    7.3170    4.1040 O.co2 494  ASP494     -0.2456
     51  N         45.0820    2.5840    5.2310 N.am  495  PHE495     -0.1974
     52  CA        44.7090    1.5330    4.2910 C.3   495  PHE495      0.1639
     53  C         43.3040    0.9920    4.5430 C.2   495  PHE495      0.2290
     54  O         42.6770    1.3090    5.5520 O.2   495  PHE495     -0.2864
     55  CB        45.7390    0.3980    4.3120 C.3   495  PHE495      0.0560
     56  CG        45.7640   -0.3890    5.5950 C.ar  495  PHE495     -0.0200
     57  CD1       46.4440    0.0860    6.7060 C.ar  495  PHE495     -0.0042
     58  CD2       45.1230   -1.6140    5.6850 C.ar  495  PHE495     -0.0042
     59  CE1       46.4740   -0.6400    7.8860 C.ar  495  PHE495     -0.0003
     60  CE2       45.1490   -2.3440    6.8630 C.ar  495  PHE495     -0.0003
     61  CZ        45.8250   -1.8560    7.9640 C.ar  495  PHE495     -0.0000
     62  N         58.0990    5.1710    8.8320 N.3   522  ASP522     -0.1239
     63  CA        58.4250    3.9900    8.0340 C.3   522  ASP522      0.1674
     64  C         59.3600    4.3260    6.8780 C.2   522  ASP522      0.2266
     65  O         59.9330    3.4390    6.2490 O.2   522  ASP522     -0.2867
     66  CB        57.1580    3.2940    7.5180 C.3   522  ASP522      0.1410
     67  CG        56.3250    4.1770    6.6040 C.2   522  ASP522      0.3668
     68  OD1       56.2630    5.4030    6.8340 O.co2 522  ASP522     -0.2456
     69  OD2       55.7160    3.6350    5.6570 O.co2 522  ASP522     -0.2456
     70  N         63.0300    3.8960    8.0990 N.3   525  ARG525     -0.1231
     71  CA        63.1960    2.4780    8.3870 C.3   525  ARG525      0.1694
     72  C         63.5610    1.7140    7.1190 C.2   525  ARG525      0.2592
     73  O         64.5510    0.9830    7.0830 O.2   525  ARG525     -0.2718
     74  CB        61.9120    1.9060    8.9880 C.3   525  ARG525      0.0321
     75  CG        61.9840    0.4240    9.3260 C.3   525  ARG525      0.0489
     76  CD        60.5890   -0.1710    9.4520 C.3   525  ARG525      0.2205
     77  NE        59.9000   -0.2150    8.1640 N.pl3 525  ARG525     -0.0865
     78  CZ        58.5870   -0.3650    8.0200 C.cat 525  ARG525      0.5346
     79  NH1       57.8100   -0.4780    9.0880 N.pl3 525  ARG525      0.1354
     80  NH2       58.0480   -0.3930    6.8070 N.pl3 525  ARG525      0.1354
     81  N         62.7560    1.8960    6.0790 N.am  526  ASP526     -0.1974
     82  CA        62.9560    1.1980    4.8140 C.3   526  ASP526      0.1709
     83  C         64.1990    1.6660    4.0590 C.2   526  ASP526      0.2293
     84  O         64.8190    0.8870    3.3390 O.2   526  ASP526     -0.2864
     85  CB        61.7150    1.3330    3.9280 C.3   526  ASP526      0.1436
     86  CG        60.5380    0.5320    4.4500 C.2   526  ASP526      0.3671
     87  OD1       60.7600   -0.3770    5.2780 O.co2 526  ASP526     -0.2456
     88  OD2       59.3940    0.8070    4.0340 O.co2 526  ASP526     -0.2456
     89  N         61.0840   -3.3250    1.6800 N.3   532  ASN532     -0.1226
     90  CA        59.9420   -3.2070    2.5760 C.3   532  ASN532      0.1770
     91  C         59.4190   -4.5870    2.9710 C.2   532  ASN532      0.2439
     92  O         59.7420   -5.5820    2.3230 O.2   532  ASN532     -0.2733
     93  CB        58.8360   -2.3680    1.9260 C.3   532  ASN532      0.1168
     94  CG        58.3420   -2.9630    0.6220 C.2   532  ASN532      0.2627
     95  OD1       57.7400   -4.0350    0.6040 O.2   532  ASN532     -0.2716
     96  ND2       58.5880   -2.2620   -0.4800 N.am  532  ASN532     -0.0877
     97  N         58.6140   -4.6530    4.0420 N.am  533  PRO533     -0.2718
     98  CA        58.1130   -5.9340    4.5560 C.3   533  PRO533      0.1535
     99  C         57.3080   -6.7400    3.5360 C.2   533  PRO533      0.2598
    100  O         57.0030   -7.9050    3.7960 O.2   533  PRO533     -0.2715
    101  CB        57.2120   -5.5110    5.7230 C.3   533  PRO533      0.0310
    102  CG        57.7410   -4.1900    6.1470 C.3   533  PRO533      0.0237
    103  CD        58.1970   -3.5200    4.8870 C.3   533  PRO533      0.0939
    104  N         56.9720   -6.1370    2.4000 N.am  534  PHE534     -0.1974
    105  CA        56.1730   -6.8190    1.3860 C.3   534  PHE534      0.1639
    106  C         56.9770   -7.1370    0.1280 C.2   534  PHE534      0.2290
    107  O         56.4890   -7.8220   -0.7700 O.2   534  PHE534     -0.2864
    108  CB        54.9450   -5.9830    1.0180 C.3   534  PHE534      0.0560
    109  CG        54.1560   -5.5110    2.2050 C.ar  534  PHE534     -0.0200
    110  CD1       53.4910   -6.4160    3.0180 C.ar  534  PHE534     -0.0042
    111  CD2       54.0750   -4.1600    2.5070 C.ar  534  PHE534     -0.0042
    112  CE1       52.7630   -5.9850    4.1140 C.ar  534  PHE534     -0.0003
    113  CE2       53.3470   -3.7220    3.6010 C.ar  534  PHE534     -0.0003
    114  CZ        52.6900   -4.6370    4.4050 C.ar  534  PHE534     -0.0000
    115  N         56.0270    5.3190   -3.7540 N.3   602  ASP602     -0.1239
    116  CA        54.6540    5.2520   -4.2490 C.3   602  ASP602      0.1674
    117  C         53.9620    6.6160   -4.3330 C.2   602  ASP602      0.2266
    118  O         52.7380    6.6950   -4.4380 O.2   602  ASP602     -0.2867
    119  CB        53.8250    4.2630   -3.4220 C.3   602  ASP602      0.1410
    120  CG        54.0370    4.4270   -1.9320 C.2   602  ASP602      0.3668
    121  OD1       53.8680    5.5570   -1.4260 O.co2 602  ASP602     -0.2456
    122  OD2       54.3670    3.4230   -1.2650 O.co2 602  ASP602     -0.2456
    123  N         57.3770   -6.6820   15.3320 N.3   623  ASP623     -0.1225
    124  CA        56.9810   -7.3610   14.1010 C.3   623  ASP623      0.1805
    125  C         58.0350   -7.2430   13.0000 C.2   623  ASP623      0.2597
    126  O         58.8940   -6.3620   13.0380 O.2   623  ASP623     -0.2718
    127  CB        55.6070   -6.8850   13.6150 C.3   623  ASP623      0.1424
    128  CG        55.4080   -5.3990   13.7900 C.2   623  ASP623      0.3668
    129  OD1       56.4130   -4.6580   13.7940 O.co2 623  ASP623     -0.2456
    130  OD2       54.2400   -4.9730   13.9210 O.co2 623  ASP623     -0.2456
    131  N         57.9620   -8.1460   12.0280 N.am  624  ASN624     -0.1974
    132  CA        58.9900   -8.2690   10.9990 C.3   624  ASN624      0.1688
    133  C         60.3160   -8.7380   11.5960 C.2   624  ASN624      0.2292
    134  O         60.4290   -8.9140   12.8110 O.2   624  ASN624     -0.2864
    135  CB        59.1610   -6.9520   10.2390 C.3   624  ASN624      0.1181
    136  CG        57.8630   -6.4660    9.6290 C.2   624  ASN624      0.2629
    137  OD1       57.1090   -7.2450    9.0420 O.2   624  ASN624     -0.2716
    138  ND2       57.5900   -5.1730    9.7700 N.am  624  ASN624     -0.0877
    139  N         59.7470  -13.6700   10.9070 N.3   678  ARG678     -0.1231
    140  CA        59.2480  -12.3580   10.5060 C.3   678  ARG678      0.1694
    141  C         57.9120  -11.9890   11.1500 C.2   678  ARG678      0.2592
    142  O         57.4010  -10.8930   10.9310 O.2   678  ARG678     -0.2718
    143  CB        59.1350  -12.2640    8.9840 C.3   678  ARG678      0.0321
    144  CG        57.9710  -13.0370    8.4050 C.3   678  ARG678      0.0489
    145  CD        57.7030  -12.6290    6.9700 C.3   678  ARG678      0.2205
    146  NE        56.5190  -13.2950    6.4400 N.pl3 678  ARG678     -0.0865
    147  CZ        55.2760  -12.8680    6.6310 C.cat 678  ARG678      0.5346
    148  NH1       55.0520  -11.7690    7.3400 N.pl3 678  ARG678      0.1354
    149  NH2       54.2560  -13.5390    6.1130 N.pl3 678  ARG678      0.1354
    150  N         57.3500  -12.9000   11.9400 N.am  679  ASP679     -0.1974
    151  CA        56.0880  -12.6370   12.6300 C.3   679  ASP679      0.1709
    152  C         55.9460  -13.5580   13.8380 C.2   679  ASP679      0.2293
    153  O         55.1340  -14.4830   13.8370 O.2   679  ASP679     -0.2864
    154  CB        54.9060  -12.8210   11.6750 C.3   679  ASP679      0.1436
    155  CG        53.6090  -12.2730   12.2400 C.2   679  ASP679      0.3671
    156  OD1       53.6330  -11.7240   13.3610 O.co2 679  ASP679     -0.2456
    157  OD2       52.5650  -12.3890   11.5620 O.co2 679  ASP679     -0.2456
    158  N         54.3800  -18.6270    8.5280 N.3   708  LYS708     -0.1245
    159  CA        54.6980  -17.2810    8.0650 C.3   708  LYS708      0.1561
    160  C         56.0630  -17.1950    7.3860 C.2   708  LYS708      0.2260
    161  O         56.4410  -16.1380    6.8760 O.2   708  LYS708     -0.2867
    162  CB        54.6610  -16.2980    9.2380 C.3   708  LYS708      0.0271
    163  CG        53.3690  -16.3110   10.0340 C.3   708  LYS708      0.0035
    164  CD        52.2490  -15.6030    9.2900 C.3   708  LYS708      0.0206
    165  CE        51.0600  -15.3570   10.2030 C.3   708  LYS708      0.1093
    166  NZ        49.9350  -14.6970    9.4890 N.3   708  LYS708     -0.1314
@<TRIPOS>BOND
     1   118   117    2
     2   117   116    1
     3   116   115    1
     4   116   119    1
     5   119   120    1
     6   120   121   ar
     7   120   122   ar
     8   107   106    2
     9    96    94   am
    10   106   105    1
    11    95    94    2
    12    94    93    1
    13   108   105    1
    14   108   109    1
    15   105   104    1
    16    89    90    1
    17    93    90    1
    18   109   111   ar
    19   109   110   ar
    20    92    91    2
    21   104    99   am
    22   111   113   ar
    23    90    91    1
    24    91    97   am
    25   110   112   ar
    26    84    83    2
    27    99   100    2
    28    99    98    1
    29   113   114   ar
    30    46    45    2
    31    85    86    1
    32    85    82    1
    33    88    86   ar
    34    97    98    1
    35    97   103    1
    36    83    82    1
    37    50    48   ar
    38   112   114   ar
    39    52    55    1
    40    52    53    1
    41    52    51    1
    42    55    56    1
    43    86    87   ar
    44    53    54    2
    45    98   101    1
    46    82    81    1
    47   103   102    1
    48    45    51   am
    49    45    44    1
    50    48    47    1
    51    48    49   ar
    52    47    44    1
    53    56    58   ar
    54    56    57   ar
    55    69    67   ar
    56    58    60   ar
    57   101   102    1
    58    44    43    1
    59    81    72   am
    60   149   147    1
    61    65    64    2
    62   146   147    2
    63   146   145    1
    64    67    68   ar
    65    67    66    1
    66   147   148    1
    67    43    31   am
    68    57    59   ar
    69    80    78    1
    70    60    61   ar
    71   161   160    2
    72    64    63    1
    73   145   144    1
    74    73    72    2
    75    72    71    1
    76   160   159    1
    77     6     5    1
    78    66    63    1
    79     5     2    1
    80    59    61   ar
    81    31    30    1
    82    31    32    2
    83    78    77    2
    84    78    79    1
    85    63    62    1
    86     2     1    1
    87     2     3    1
    88   159   158    1
    89   159   162    1
    90    70    71    1
    91    77    76    1
    92    71    74    1
    93   144   143    1
    94    30    33    1
    95    30    29    1
    96    33    34    1
    97    39    41   ar
    98    39    36   ar
    99    41    42   ar
   100     4     3    2
   101   143   140    1
   102    74    75    1
   103   137   136    2
   104     3     7   am
   105   162   163    1
   106    36    34   ar
   107    36    38   ar
   108   164   163    1
   109   164   165    1
   110    34    35   ar
   111    75    76    1
   112   166   165    1
   113    42    40   ar
   114   136   138   am
   115   136   135    1
   116    38    40   ar
   117    38    37   ar
   118    35    37   ar
   119   135   132    1
   120     7     8    1
   121   140   139    1
   122   140   141    1
   123   142   141    2
   124   132   133    1
   125   132   131    1
   126   141   150   am
   127     8     9    1
   128     8    11    1
   129   157   155   ar
   130   133   134    2
   131   154   155    1
   132   154   151    1
   133     9    10    2
   134   150   151    1
   135    19    17    1
   136   131   125   am
   137   155   156   ar
   138   151   152    1
   139    18    17    1
   140    22    23    2
   141    22    21    1
   142   125   126    2
   143   125   124    1
   144    17    16    1
   145    28    26   ar
   146    24    21    1
   147    24    25    1
   148    16    13    1
   149   127   128    1
   150   127   124    1
   151    21    20    1
   152   128   129   ar
   153   128   130   ar
   154   153   152    2
   155    26    25    1
   156    26    27   ar
   157    13    14    1
   158    13    12    1
   159   124   123    1
   160    15    14    2
