@<TRIPOS>MOLECULE
tmp/2y5fA00.pdb
 203 200 0 0 0
SMALL
GASTEIGER

@<TRIPOS>ATOM
      1  N          4.2860    7.4940   15.9310 N.3    42  HIS42      -0.1241
      2  CA         3.4060    8.6520   15.7860 C.3    42  HIS42       0.1621
      3  C          4.1410    9.9310   16.1760 C.2    42  HIS42       0.2264
      4  O          3.7510   11.0120   15.7720 O.2    42  HIS42      -0.2867
      5  CB         2.0990    8.4990   16.5850 C.3    42  HIS42       0.0745
      6  CG         2.2450    8.7670   18.0440 C.ar   42  HIS42       0.0817
      7  ND1        2.3130    7.7530   18.9770 N.ar   42  HIS42      -0.2268
      8  CD2        2.2990    9.9280   18.7350 C.ar   42  HIS42       0.1154
      9  CE1        2.4310    8.2860   20.1800 C.ar   42  HIS42       0.1986
     10  NE2        2.4140    9.6030   20.0630 N.ar   42  HIS42      -0.2212
     11  N          4.9540   14.6730   14.6440 N.3    46  GLN46      -0.1245
     12  CA         4.5100   15.7020   15.5850 C.3    46  GLN46       0.1566
     13  C          5.5160   16.8440   15.7360 C.2    46  GLN46       0.2260
     14  O          5.2810   17.7860   16.4980 O.2    46  GLN46      -0.2867
     15  CB         4.1160   15.0560   16.9290 C.3    46  GLN46       0.0367
     16  CG         2.8570   14.1550   16.7810 C.3    46  GLN46       0.0905
     17  CD         2.3170   13.6210   18.0890 C.2    46  GLN46       0.2608
     18  OE1        3.0170   13.5780   19.0920 O.2    46  GLN46      -0.2717
     19  NE2        1.0570   13.1890   18.0730 N.am   46  GLN46      -0.0878
     20  N         -1.5350    5.7220   10.9500 N.3    82  LYS82      -0.1231
     21  CA        -1.8710    6.9270   11.7240 C.3    82  LYS82       0.1693
     22  C         -3.2790    6.8920   12.3320 C.2    82  LYS82       0.2592
     23  O         -3.5290    7.4550   13.4050 O.2    82  LYS82      -0.2718
     24  CB        -1.7370    8.1660   10.8330 C.3    82  LYS82       0.0285
     25  CG        -1.7940    9.4910   11.5630 C.3    82  LYS82       0.0035
     26  CD        -1.5050   10.6460   10.6140 C.3    82  LYS82       0.0206
     27  CE        -1.6210   11.9860   11.3140 C.3    82  LYS82       0.1093
     28  NZ        -1.3340   13.1220   10.3960 N.3    82  LYS82      -0.1314
     29  N         -4.2020    6.2400   11.6340 N.am   83  GLU83      -0.1966
     30  CA        -5.5990    6.2300   12.0450 C.3    83  GLU83       0.1733
     31  C         -5.7740    5.5020   13.3560 C.2    83  GLU83       0.2617
     32  O         -6.4740    5.9670   14.2480 O.2    83  GLU83      -0.2715
     33  CB        -6.4930    5.5830   10.9710 C.3    83  GLU83       0.0429
     34  CG        -6.6850    6.4210    9.7010 C.3    83  GLU83       0.1163
     35  CD        -5.3970    6.6470    8.9310 C.2    83  GLU83       0.3649
     36  OE1       -4.6050    5.6870    8.7900 O.co2  83  GLU83      -0.2457
     37  OE2       -5.1750    7.7890    8.4730 O.co2  83  GLU83      -0.2457
     38  N         -5.1190    4.3590   13.4750 N.am   84  THR84      -0.1937
     39  CA        -5.3600    3.4640   14.5980 C.3    84  THR84       0.2028
     40  C         -4.1770    3.4120   15.5840 C.2    84  THR84       0.2642
     41  O         -4.2810    2.8290   16.6690 O.2    84  THR84      -0.2714
     42  CB        -5.5820    2.0400   14.0670 C.3    84  THR84       0.1808
     43  OG1       -4.4210    1.6520   13.3270 O.3    84  THR84      -0.2208
     44  CG2       -6.8300    1.9670   13.1470 C.3    84  THR84       0.0379
     45  N         -3.0600    4.0300   15.1990 N.am   85  TYR85      -0.1973
     46  CA        -1.7420    3.8590   15.8360 C.3    85  TYR85       0.1639
     47  C         -1.3180    2.3840   15.9710 C.2    85  TYR85       0.2290
     48  O         -0.5000    2.0320   16.8320 O.2    85  TYR85      -0.2864
     49  CB        -1.6710    4.5540   17.2070 C.3    85  TYR85       0.0560
     50  CG        -1.5540    6.0730   17.1990 C.ar   85  TYR85      -0.0198
     51  CD1       -1.8520    6.8310   16.0740 C.ar   85  TYR85      -0.0009
     52  CD2       -1.1600    6.7560   18.3280 C.ar   85  TYR85      -0.0009
     53  CE1       -1.7550    8.2110   16.0920 C.ar   85  TYR85       0.0417
     54  CE2       -1.0640    8.1260   18.3600 C.ar   85  TYR85       0.0417
     55  CZ        -1.3570    8.8660   17.2290 C.ar   85  TYR85       0.1957
     56  OH        -1.2390   10.2340   17.2780 O.3    85  TYR85      -0.2866
     57  N          2.3120   16.0330   30.4490 N.3   132  ARG132     -0.1245
     58  CA         1.3500   16.8000   31.2590 C.3   132  ARG132      0.1563
     59  C          1.0120   16.1360   32.5920 C.2   132  ARG132      0.2260
     60  O          0.9410   14.9070   32.6830 O.2   132  ARG132     -0.2867
     61  CB         0.0490   17.0280   30.4880 C.3   132  ARG132      0.0307
     62  CG         0.1950   17.7930   29.1920 C.3   132  ARG132      0.0489
     63  CD        -1.1790   18.0160   28.5390 C.3   132  ARG132      0.2205
     64  NE        -1.0620   18.6630   27.2470 N.pl3 132  ARG132     -0.0865
     65  CZ        -2.0920   18.9140   26.4450 C.cat 132  ARG132      0.5346
     66  NH1       -3.3300   18.5720   26.8000 N.pl3 132  ARG132      0.1354
     67  NH2       -1.8870   19.5040   25.2710 N.pl3 132  ARG132      0.1354
     68  N         -4.7880   16.1600   32.3260 N.3   135  GLU135     -0.1245
     69  CA        -5.1630   16.1490   30.9080 C.3   135  GLU135      0.1567
     70  C         -5.0210   17.5130   30.2230 C.2   135  GLU135      0.2260
     71  O         -4.4660   17.6040   29.1350 O.2   135  GLU135     -0.2867
     72  CB        -6.5860   15.6030   30.7270 C.3   135  GLU135      0.0388
     73  CG        -7.0240   15.4720   29.2710 C.3   135  GLU135      0.1160
     74  CD        -8.3890   14.8300   29.1250 C.2   135  GLU135      0.3649
     75  OE1       -8.7070   13.8740   29.8680 O.co2 135  GLU135     -0.2457
     76  OE2       -9.1610   15.2810   28.2610 O.co2 135  GLU135     -0.2457
     77  N        -11.8030    2.8860   20.4150 N.3   162  PHE162     -0.1227
     78  CA       -10.9670    2.6050   19.2630 C.3   162  PHE162      0.1736
     79  C        -10.4060    1.1870   19.3600 C.2   162  PHE162      0.2595
     80  O        -10.1990    0.6570   20.4430 O.2   162  PHE162     -0.2718
     81  CB        -9.8160    3.6100   19.1810 C.3   162  PHE162      0.0547
     82  CG       -10.2430    5.0450   19.0690 C.ar  162  PHE162     -0.0202
     83  CD1      -10.6970    5.5690   17.8610 C.ar  162  PHE162     -0.0042
     84  CD2      -10.1790    5.8790   20.1680 C.ar  162  PHE162     -0.0042
     85  CE1      -11.0770    6.9040   17.7730 C.ar  162  PHE162     -0.0003
     86  CE2      -10.5430    7.1990   20.0840 C.ar  162  PHE162     -0.0003
     87  CZ       -11.0090    7.7140   18.8860 C.ar  162  PHE162     -0.0000
     88  N        -10.1000    0.5870   18.2220 N.am  163  ILE163     -0.1980
     89  CA        -9.6270   -0.7930   18.2040 C.3   163  ILE163      0.1595
     90  C         -8.3130   -0.9500   19.0140 C.2   163  ILE163      0.2287
     91  O         -7.3880   -0.1410   18.8900 O.2   163  ILE163     -0.2864
     92  CB        -9.4660   -1.3420   16.7590 C.3   163  ILE163      0.0276
     93  CG1       -9.1420   -2.8380   16.7930 C.3   163  ILE163      0.0022
     94  CG2       -8.3970   -0.5710   15.9620 C.3   163  ILE163      0.0022
     95  CD1       -9.3760   -3.5590   15.4480 C.3   163  ILE163      0.0001
     96  N         -2.0240    8.2580   35.3560 N.3   179  ASP179     -0.1225
     97  CA        -1.8830    7.8130   33.9600 C.3   179  ASP179      0.1805
     98  C         -0.6850    8.5300   33.3590 C.2   179  ASP179      0.2598
     99  O         -0.1620    9.4890   33.9280 O.2   179  ASP179     -0.2718
    100  CB        -3.1590    8.1880   33.1950 C.3   179  ASP179      0.1424
    101  CG        -3.3840    7.4380   31.8900 C.2   179  ASP179      0.3668
    102  OD1       -2.5920    6.5900   31.4610 O.co2 179  ASP179     -0.2456
    103  OD2       -4.4290    7.7520   31.2710 O.co2 179  ASP179     -0.2456
    104  N         -0.2530    8.0520   32.2120 N.am  180  ALA180     -0.1966
    105  CA         0.5700    8.8750   31.3310 C.3   180  ALA180      0.1728
    106  C         -0.2980    9.9110   30.6180 C.2   180  ALA180      0.2616
    107  O         -1.5210    9.9120   30.7550 O.2   180  ALA180     -0.2715
    108  CB         1.3320    7.9960   30.3420 C.3   180  ALA180      0.0334
    109  N          0.3450   10.8110   29.8870 N.am  181  CYS181     -0.1954
    110  CA        -0.3960   11.8510   29.2070 C.3   181  CYS181      0.1843
    111  C          0.4120   12.4200   28.0400 C.2   181  CYS181      0.2625
    112  O          1.5170   11.9970   27.7550 O.2   181  CYS181     -0.2714
    113  CB        -0.7910   12.9510   30.2060 C.3   181  CYS181      0.0997
    114  SG        -2.2010   14.0230   29.7470 S.3   181  CYS181     -0.0797
    115  N         -0.1670   13.3990   27.3590 N.am  182  GLN182     -0.1977
    116  CA         0.5020   14.0910   26.2500 C.3   182  GLN182      0.1601
    117  C          1.8700   14.5890   26.6800 C.2   182  GLN182      0.2287
    118  O          2.0120   15.1630   27.7580 O.2   182  GLN182     -0.2864
    119  CB        -0.3670   15.2690   25.7800 C.3   182  GLN182      0.0394
    120  CG         0.3280   16.3040   24.8960 C.3   182  GLN182      0.0908
    121  CD         0.4770   15.8230   23.4950 C.2   182  GLN182      0.2608
    122  OE1       -0.4810   15.3130   22.9000 O.2   182  GLN182     -0.2717
    123  NE2        1.6790   15.9870   22.9320 N.am  182  GLN182     -0.0878
    124  N          4.2300   10.3480   25.4770 N.3   185  SER185     -0.1217
    125  CA         4.1200    9.3300   24.4470 C.3   185  SER185      0.1889
    126  C          5.4740    9.1600   23.7400 C.2   185  SER185      0.2288
    127  O          6.2550   10.1050   23.5970 O.2   185  SER185     -0.2866
    128  CB         2.9290    9.5810   23.5160 C.3   185  SER185      0.2089
    129  OG         3.1850   10.6380   22.6530 O.3   185  SER185     -0.2183
    130  N          4.8790    4.1760   25.4200 N.3   203  VAL203     -0.1231
    131  CA         3.6780    4.9710   25.6450 C.3   203  VAL203      0.1692
    132  C          3.1000    5.3590   24.2800 C.2   203  VAL203      0.2593
    133  O          3.8140    5.9830   23.4950 O.2   203  VAL203     -0.2718
    134  CB         4.0220    6.2460   26.4610 C.3   203  VAL203      0.0266
    135  CG1        2.7270    7.0320   26.7420 C.3   203  VAL203      0.0020
    136  CG2        4.7190    5.8980   27.7570 C.3   203  VAL203      0.0020
    137  N          1.8350    5.0290   24.0050 N.am  204  SER204     -0.1938
    138  CA         1.2840    5.2160   22.6820 C.3   204  SER204      0.2055
    139  C          0.1410    6.2150   22.6360 C.2   204  SER204      0.2643
    140  O          0.2680    7.2290   21.9640 O.2   204  SER204     -0.2714
    141  CB         0.9240    3.8650   22.0570 C.3   204  SER204      0.2130
    142  OG         0.4590    4.0050   20.7250 O.3   204  SER204     -0.2179
    143  N         -0.9770    5.9440   23.3020 N.am  205  TRP205     -0.1959
    144  CA        -2.1240    6.8470   23.2330 C.3   205  TRP205      0.1771
    145  C         -3.0980    6.6080   24.3660 C.2   205  TRP205      0.2620
    146  O         -2.9920    5.6220   25.0960 O.2   205  TRP205     -0.2715
    147  CB        -2.8400    6.7600   21.8710 C.3   205  TRP205      0.0590
    148  CG        -3.3890    5.4340   21.4960 C.ar  205  TRP205      0.0006
    149  CD1       -2.7210    4.4060   20.8980 C.ar  205  TRP205      0.0946
    150  CD2       -4.7370    4.9750   21.6860 C.ar  205  TRP205      0.0152
    151  NE1       -3.5570    3.3500   20.6860 N.ar  205  TRP205     -0.2442
    152  CE2       -4.7980    3.6560   21.1850 C.ar  205  TRP205      0.0810
    153  CE3       -5.8770    5.5420   22.2380 C.ar  205  TRP205      0.0012
    154  CZ2       -5.9710    2.9040   21.2000 C.ar  205  TRP205      0.0191
    155  CZ3       -7.0340    4.8060   22.2570 C.ar  205  TRP205      0.0001
    156  CH2       -7.0670    3.4800   21.7730 C.ar  205  TRP205      0.0015
    157  N         -4.0340    7.5360   24.5330 N.am  206  GLY206     -0.1940
    158  CA        -5.1500    7.3500   25.4410 C.3   206  GLY206      0.2014
    159  C         -6.2660    8.2860   25.0270 C.2   206  GLY206      0.2639
    160  O         -6.0480    9.2110   24.2510 O.2   206  GLY206     -0.2714
    161  N         -7.4550    8.0270   25.5490 N.am  207  GLU207     -0.1963
    162  CA        -8.6030    8.8980   25.3490 C.3   207  GLU207      0.1733
    163  C         -8.6140    9.8470   26.5380 C.2   207  GLU207      0.2617
    164  O         -9.1190    9.5240   27.6140 O.2   207  GLU207     -0.2715
    165  CB        -9.9060    8.0870   25.2570 C.3   207  GLU207      0.0429
    166  CG        -9.9240    7.1410   24.0760 C.3   207  GLU207      0.1163
    167  CD       -11.2090    6.3690   23.9800 C.2   207  GLU207      0.3649
    168  OE1      -12.2720    7.0090   23.8850 O.co2 207  GLU207     -0.2457
    169  OE2      -11.1620    5.1310   24.0030 O.co2 207  GLU207     -0.2457
    170  N         -8.0500   11.0330   26.3520 N.am  208  GLY208     -0.1940
    171  CA        -7.7580   11.9200   27.4640 C.3   208  GLY208      0.2014
    172  C         -6.6070   11.3570   28.2780 C.2   208  GLY208      0.2639
    173  O         -5.8040   10.5450   27.7640 O.2   208  GLY208     -0.2714
    174  N         -6.5430   11.7590   29.5480 N.am  209  CYS209     -0.1967
    175  CA        -5.5470   11.2360   30.4750 C.3   209  CYS209      0.1712
    176  C         -6.1990   11.0220   31.8200 C.2   209  CYS209      0.2296
    177  O         -6.8640   11.9240   32.3470 O.2   209  CYS209     -0.2864
    178  CB        -4.3530   12.1680   30.6350 C.3   209  CYS209      0.0983
    179  SG        -3.6440   12.7340   29.1120 S.3   209  CYS209     -0.0798
    180  N         -4.4310    3.6270   29.8280 N.3   216  GLY216     -0.1210
    181  CA        -3.3460    4.0110   28.9410 C.3   216  GLY216      0.1956
    182  C         -3.0830    2.8920   27.9540 C.2   216  GLY216      0.2612
    183  O         -3.1510    1.7090   28.3330 O.2   216  GLY216     -0.2717
    184  N         -2.7810    3.2550   26.7060 N.am  217  ILE217     -0.1965
    185  CA        -2.5240    2.2820   25.6540 C.3   217  ILE217      0.1727
    186  C         -1.0460    2.3450   25.2370 C.2   217  ILE217      0.2616
    187  O         -0.5110    3.4260   24.9920 O.2   217  ILE217     -0.2715
    188  CB        -3.4260    2.4740   24.4120 C.3   217  ILE217      0.0290
    189  CG1       -4.8970    2.7450   24.7860 C.3   217  ILE217      0.0022
    190  CG2       -3.2860    1.2560   23.5250 C.3   217  ILE217      0.0023
    191  CD1       -5.6100    1.7120   25.6300 C.3   217  ILE217      0.0001
    192  N         -0.4120    1.1820   25.2120 N.am  218  TYR218     -0.1974
    193  CA         1.0190    1.0400   25.0160 C.3   218  TYR218      0.1639
    194  C          1.2910    0.0970   23.8570 C.2   218  TYR218      0.2290
    195  O          0.5890   -0.8970   23.6530 O.2   218  TYR218     -0.2864
    196  CB         1.6580    0.4370   26.2820 C.3   218  TYR218      0.0560
    197  CG         1.5220    1.3400   27.4860 C.ar  218  TYR218     -0.0198
    198  CD1        0.3420    1.4350   28.2000 C.ar  218  TYR218     -0.0009
    199  CD2        2.5780    2.1380   27.8800 C.ar  218  TYR218     -0.0009
    200  CE1        0.2260    2.3140   29.2860 C.ar  218  TYR218      0.0417
    201  CE2        2.4630    3.0150   28.9600 C.ar  218  TYR218      0.0417
    202  CZ         1.2850    3.1190   29.6430 C.ar  218  TYR218      0.1957
    203  OH         1.2090    3.9660   30.7190 O.3   218  TYR218     -0.2866
@<TRIPOS>BOND
     1    37    35   ar
     2    36    35   ar
     3    35    34    1
     4    34    33    1
     5    28    27    1
     6    26    27    1
     7    26    25    1
     8    24    25    1
     9    24    21    1
    10    20    21    1
    11    33    30    1
    12    29    30    1
    13    29    22   am
    14    21    22    1
    15    30    31    1
    16    22    23    2
    17    44    42    1
    18    43    42    1
    19    31    38   am
    20    31    32    2
    21    38    39    1
    22    42    39    1
    23    39    40    1
    24    11    12    1
    25    45    40   am
    26    45    46    1
    27    95    93    1
    28    40    41    2
    29    12    13    1
    30    12    15    1
    31    13    14    2
    32     4     3    2
    33     2     1    1
    34     2     3    1
    35     2     5    1
    36    46    47    1
    37    46    49    1
    38    94    92    1
    39    47    48    2
    40    51    53   ar
    41    51    50   ar
    42    53    55   ar
    43     5     6    1
    44    92    93    1
    45    92    89    1
    46    16    15    1
    47    16    17    1
    48    50    49    1
    49    50    52   ar
    50    55    56    1
    51    55    54   ar
    52    85    83   ar
    53    85    87   ar
    54    83    82   ar
    55     6     8   ar
    56     6     7   ar
    57    19    17   am
    58    17    18    2
    59    89    88    1
    60    89    90    1
    61    88    79   am
    62    52    54   ar
    63     8    10   ar
    64    87    86   ar
    65    91    90    2
    66     7     9   ar
    67    82    81    1
    68    82    84   ar
    69    81    78    1
    70    78    79    1
    71    78    77    1
    72    79    80    2
    73    10     9   ar
    74    86    84   ar
    75   151   149   ar
    76   151   152   ar
    77   142   141    1
    78   149   148   ar
    79   152   154   ar
    80   152   150   ar
    81   154   156   ar
    82   148   150   ar
    83   148   147    1
    84   150   153   ar
    85   156   155   ar
    86   147   144    1
    87   140   139    2
    88   141   138    1
    89   153   155   ar
    90   139   138    1
    91   139   143   am
    92   129   128    1
    93   138   137    1
    94   122   121    2
    95   123   121   am
    96   144   143    1
    97   144   145    1
    98   133   132    2
    99   121   120    1
   100   128   125    1
   101   190   188    1
   102   127   126    2
   103   195   194    2
   104   126   125    1
   105   194   193    1
   106   168   167   ar
   107   167   169   ar
   108   167   166    1
   109   137   132   am
   110   166   165    1
   111   160   159    2
   112   132   131    1
   113   145   157   am
   114   145   146    2
   115   188   189    1
   116   188   185    1
   117   125   124    1
   118   157   158    1
   119   189   191    1
   120   120   119    1
   121   187   186    2
   122   193   192    1
   123   193   196    1
   124   159   158    1
   125   159   161   am
   126   192   186   am
   127   186   185    1
   128   165   162    1
   129    67    65    1
   130   162   161    1
   131   162   163    1
   132   130   131    1
   133   131   134    1
   134   185   184    1
   135   119   116    1
   136   116   117    1
   137   116   115    1
   138   196   197    1
   139   170   163   am
   140   170   171    1
   141    65    66    1
   142    65    64    2
   143   134   135    1
   144   134   136    1
   145   163   164    2
   146   117   118    2
   147   184   182   am
   148    64    63    1
   149   115   111   am
   150   171   172    1
   151   197   199   ar
   152   197   198   ar
   153   112   111    2
   154   173   172    2
   155   199   201   ar
   156   182   183    2
   157   182   181    1
   158   111   110    1
   159   198   200   ar
   160    76    74   ar
   161   172   174   am
   162    63    62    1
   163   181   180    1
   164   201   202   ar
   165   179   114    1
   166   179   178    1
   167    74    73    1
   168    74    75   ar
   169    71    70    2
   170    62    61    1
   171   110   109    1
   172   110   113    1
   173    73    72    1
   174   200   202   ar
   175   174   175    1
   176   202   203    1
   177   114   113    1
   178   109   106   am
   179    70    69    1
   180   108   105    1
   181    57    58    1
   182   175   178    1
   183   175   176    1
   184    61    58    1
   185   106   107    2
   186   106   105    1
   187    72    69    1
   188    69    68    1
   189    58    59    1
   190   103   101   ar
   191   105   104    1
   192   102   101   ar
   193   176   177    2
   194   101   100    1
   195   104    98   am
   196    59    60    2
   197   100    97    1
   198    98    99    2
   199    98    97    1
   200    97    96    1
