@<TRIPOS>MOLECULE
tmp/2y5gA00.pdb
 181 179 0 0 0
SMALL
GASTEIGER

@<TRIPOS>ATOM
      1  N          8.4720   17.1140   23.2330 N.3    26  PHE26      -0.1241
      2  CA         7.1270   16.7960   22.7410 C.3    26  PHE26       0.1605
      3  C          6.8130   15.2910   22.8150 C.2    26  PHE26       0.2264
      4  O          5.6720   14.8990   22.6140 O.2    26  PHE26      -0.2867
      5  CB         6.9090   17.3340   21.3050 C.3    26  PHE26       0.0534
      6  CG         7.8030   16.6940   20.2850 C.ar   26  PHE26      -0.0203
      7  CD1        9.0660   17.1960   20.0320 C.ar   26  PHE26      -0.0042
      8  CD2        7.3890   15.5440   19.6070 C.ar   26  PHE26      -0.0042
      9  CE1        9.9100   16.5780   19.0880 C.ar   26  PHE26      -0.0003
     10  CE2        8.2190   14.9150   18.6750 C.ar   26  PHE26      -0.0003
     11  CZ         9.4780   15.4370   18.3990 C.ar   26  PHE26      -0.0000
     12  N          4.2990    7.5040   15.8590 N.3    42  HIS42      -0.1241
     13  CA         3.4190    8.6810   15.7300 C.3    42  HIS42       0.1621
     14  C          4.1570    9.9350   16.1660 C.2    42  HIS42       0.2264
     15  O          3.7910   11.0310   15.7800 O.2    42  HIS42      -0.2867
     16  CB         2.0890    8.5270   16.5040 C.3    42  HIS42       0.0745
     17  CG         2.1860    8.7780   17.9780 C.ar   42  HIS42       0.0817
     18  ND1        2.3050    7.7620   18.9070 N.ar   42  HIS42      -0.2268
     19  CD2        2.1130    9.9290   18.6900 C.ar   42  HIS42       0.1154
     20  CE1        2.3150    8.2850   20.1200 C.ar   42  HIS42       0.1986
     21  NE2        2.2000    9.5970   20.0190 N.ar   42  HIS42      -0.2212
     22  N          5.0340   14.7230   14.7550 N.3    46  GLN46      -0.1245
     23  CA         4.6420   15.7550   15.7250 C.3    46  GLN46       0.1566
     24  C          5.5250   16.9960   15.6350 C.2    46  GLN46       0.2260
     25  O          5.1660   18.0430   16.1620 O.2    46  GLN46      -0.2867
     26  CB         4.6530   15.2070   17.1620 C.3    46  GLN46       0.0367
     27  CG         3.8240   13.9550   17.3830 C.3    46  GLN46       0.0905
     28  CD         2.3440   14.1480   17.1430 C.2    46  GLN46       0.2608
     29  OE1        1.7630   15.1610   17.5400 O.2    46  GLN46      -0.2717
     30  NE2        1.7140   13.1560   16.5160 N.am   46  GLN46      -0.0878
     31  N         -1.5520    5.8030   10.9860 N.3    82  LYS82      -0.1231
     32  CA        -2.0250    6.9390   11.7910 C.3    82  LYS82       0.1693
     33  C         -3.4920    6.7750   12.2260 C.2    82  LYS82       0.2592
     34  O         -3.9220    7.2940   13.2640 O.2    82  LYS82      -0.2718
     35  CB        -1.8690    8.2180   10.9660 C.3    82  LYS82       0.0285
     36  CG        -2.0090    9.5130   11.7150 C.3    82  LYS82       0.0035
     37  CD        -1.6270   10.6720   10.8010 C.3    82  LYS82       0.0206
     38  CE        -1.6930   12.0080   11.5140 C.3    82  LYS82       0.1093
     39  NZ        -1.2350   13.1230   10.6460 N.3    82  LYS82      -0.1314
     40  N         -4.2560    6.0440   11.4270 N.am   83  GLU83      -0.1966
     41  CA        -5.6890    5.9090   11.6550 C.3    83  GLU83       0.1733
     42  C         -5.9560    5.2060   12.9680 C.2    83  GLU83       0.2617
     43  O         -6.8080    5.6340   13.7620 O.2    83  GLU83      -0.2715
     44  CB        -6.3740    5.1610   10.4960 C.3    83  GLU83       0.0429
     45  CG        -6.4900    5.9460    9.1730 C.3    83  GLU83       0.1163
     46  CD        -5.1590    6.2180    8.4850 C.2    83  GLU83       0.3649
     47  OE1       -4.2390    5.3810    8.5960 O.co2  83  GLU83      -0.2457
     48  OE2       -5.0300    7.2700    7.8190 O.co2  83  GLU83      -0.2457
     49  N         -5.2030    4.1440   13.2210 N.am   84  THR84      -0.1937
     50  CA        -5.4230    3.3160   14.4020 C.3    84  THR84       0.2028
     51  C         -4.2710    3.3000   15.3990 C.2    84  THR84       0.2642
     52  O         -4.4340    2.7850   16.5270 O.2    84  THR84      -0.2714
     53  CB        -5.6630    1.8770   13.9480 C.3    84  THR84       0.1808
     54  OG1       -4.5050    1.4370   13.2440 O.3    84  THR84      -0.2208
     55  CG2       -6.9150    1.7770   13.0340 C.3    84  THR84       0.0379
     56  N         -3.1370    3.8740   15.0040 N.am   85  TYR85      -0.1973
     57  CA        -1.8520    3.7490   15.7290 C.3    85  TYR85       0.1639
     58  C         -1.3670    2.2970   15.8560 C.2    85  TYR85       0.2290
     59  O         -0.5070    1.9850   16.6840 O.2    85  TYR85      -0.2864
     60  CB        -1.8940    4.4570   17.1020 C.3    85  TYR85       0.0560
     61  CG        -1.6540    5.9510   17.0620 C.ar   85  TYR85      -0.0198
     62  CD1       -1.9950    6.7070   15.9460 C.ar   85  TYR85      -0.0009
     63  CD2       -1.1580    6.6280   18.1680 C.ar   85  TYR85      -0.0009
     64  CE1       -1.8010    8.0690   15.9330 C.ar   85  TYR85       0.0417
     65  CE2       -0.9560    7.9830   18.1560 C.ar   85  TYR85       0.0417
     66  CZ        -1.2890    8.7100   17.0330 C.ar   85  TYR85       0.1957
     67  OH        -1.0770   10.0570   17.0220 O.3    85  TYR85      -0.2866
     68  N        -11.9130    2.9030   20.3610 N.3   162  PHE162     -0.1241
     69  CA       -11.1130    2.5900   19.1870 C.3   162  PHE162      0.1605
     70  C        -10.5380    1.1830   19.2960 C.2   162  PHE162      0.2264
     71  O        -10.3470    0.6460   20.3820 O.2   162  PHE162     -0.2867
     72  CB        -9.9810    3.6130   19.0120 C.3   162  PHE162      0.0534
     73  CG       -10.4480    5.0410   18.9890 C.ar  162  PHE162     -0.0203
     74  CD1      -10.9820    5.5910   17.8280 C.ar  162  PHE162     -0.0042
     75  CD2      -10.3490    5.8440   20.0980 C.ar  162  PHE162     -0.0042
     76  CE1      -11.4180    6.9150   17.7970 C.ar  162  PHE162     -0.0003
     77  CE2      -10.7800    7.1510   20.0700 C.ar  162  PHE162     -0.0003
     78  CZ       -11.3170    7.6890   18.9130 C.ar  162  PHE162     -0.0000
     79  N         -2.0960    8.2660   35.2420 N.3   179  ASP179     -0.1225
     80  CA        -1.9430    7.8340   33.8510 C.3   179  ASP179      0.1805
     81  C         -0.7430    8.5320   33.2190 C.2   179  ASP179      0.2598
     82  O         -0.1970    9.4900   33.7600 O.2   179  ASP179     -0.2718
     83  CB        -3.2090    8.2190   33.0700 C.3   179  ASP179      0.1424
     84  CG        -3.4110    7.5000   31.7050 C.2   179  ASP179      0.3668
     85  OD1       -2.6130    6.6400   31.2710 O.co2 179  ASP179     -0.2456
     86  OD2       -4.4500    7.8300   31.0700 O.co2 179  ASP179     -0.2456
     87  N         -0.3100    8.0310   32.0750 N.am  180  ALA180     -0.1966
     88  CA         0.4950    8.8330   31.1570 C.3   180  ALA180      0.1728
     89  C         -0.3630    9.9040   30.5020 C.2   180  ALA180      0.2616
     90  O         -1.5820    9.8830   30.6300 O.2   180  ALA180     -0.2715
     91  CB         1.1820    7.9530   30.1200 C.3   180  ALA180      0.0334
     92  N          0.2940   10.8230   29.7840 N.am  181  CYS181     -0.1954
     93  CA        -0.4480   11.8930   29.1580 C.3   181  CYS181      0.1843
     94  C          0.3080   12.4610   27.9640 C.2   181  CYS181      0.2625
     95  O          1.3940   12.0150   27.6240 O.2   181  CYS181     -0.2714
     96  CB        -0.8030   12.9570   30.2060 C.3   181  CYS181      0.0997
     97  SG        -2.2000   14.0800   29.7960 S.3   181  CYS181     -0.0797
     98  N         -0.3040   13.4390   27.3030 N.am  182  GLN182     -0.1963
     99  CA         0.3350   14.1340   26.1980 C.3   182  GLN182      0.1733
    100  C          1.7180   14.6160   26.5970 C.2   182  GLN182      0.2616
    101  O          1.9080   15.1680   27.6910 O.2   182  GLN182     -0.2715
    102  CB        -0.5500   15.3100   25.7780 C.3   182  GLN182      0.0408
    103  CG         0.1010   16.3370   24.8820 C.3   182  GLN182      0.0908
    104  CD        -0.8920   17.3140   24.3290 C.2   182  GLN182      0.2608
    105  OE1       -2.0640   17.3660   24.7400 O.2   182  GLN182     -0.2717
    106  NE2       -0.4320   18.0920   23.3900 N.am  182  GLN182     -0.0878
    107  N          2.6890   14.3560   25.7250 N.am  183  GLY183     -0.1955
    108  CA         4.0770   14.6740   25.9750 C.3   183  GLY183      0.1869
    109  C          4.8650   13.4880   26.5430 C.2   183  GLY183      0.2309
    110  O          6.1050   13.5130   26.4840 O.2   183  GLY183     -0.2863
    111  N          4.1250   10.3720   25.2690 N.3   185  SER185     -0.1217
    112  CA         4.0520    9.3440   24.2400 C.3   185  SER185      0.1889
    113  C          5.4170    9.2010   23.5520 C.2   185  SER185      0.2288
    114  O          6.1620   10.1660   23.3910 O.2   185  SER185     -0.2866
    115  CB         2.8510    9.5330   23.2960 C.3   185  SER185      0.2089
    116  OG         2.9570   10.6760   22.4780 O.3   185  SER185     -0.2183
    117  N          4.8050    4.2050   25.2550 N.3   203  VAL203     -0.1231
    118  CA         3.6060    5.0260   25.4590 C.3   203  VAL203      0.1692
    119  C          3.0380    5.3890   24.0840 C.2   203  VAL203      0.2593
    120  O          3.7460    6.0050   23.2750 O.2   203  VAL203     -0.2718
    121  CB         3.9600    6.3080   26.2480 C.3   203  VAL203      0.0266
    122  CG1        2.6820    7.1400   26.4920 C.3   203  VAL203      0.0020
    123  CG2        4.6340    5.9810   27.5970 C.3   203  VAL203      0.0020
    124  N          1.7680    5.0250   23.8200 N.am  204  SER204     -0.1938
    125  CA         1.2190    5.1570   22.4660 C.3   204  SER204      0.2055
    126  C          0.0530    6.0960   22.4010 C.2   204  SER204      0.2643
    127  O          0.1380    7.0990   21.6850 O.2   204  SER204     -0.2714
    128  CB         0.8950    3.7980   21.8710 C.3   204  SER204      0.2130
    129  OG         0.4420    3.9180   20.5330 O.3   204  SER204     -0.2179
    130  N         -1.0440    5.8280   23.0880 N.am  205  TRP205     -0.1959
    131  CA        -2.2150    6.7100   22.9880 C.3   205  TRP205      0.1771
    132  C         -3.1550    6.5160   24.1520 C.2   205  TRP205      0.2620
    133  O         -3.0560    5.5660   24.9150 O.2   205  TRP205     -0.2715
    134  CB        -2.9200    6.5580   21.6390 C.3   205  TRP205      0.0590
    135  CG        -3.4740    5.2150   21.3090 C.ar  205  TRP205      0.0006
    136  CD1       -2.8170    4.1690   20.7210 C.ar  205  TRP205      0.0946
    137  CD2       -4.8160    4.7650   21.5170 C.ar  205  TRP205      0.0152
    138  NE1       -3.6540    3.1170   20.5280 N.ar  205  TRP205     -0.2442
    139  CE2       -4.8990    3.4410   21.0090 C.ar  205  TRP205      0.0810
    140  CE3       -5.9590    5.3640   22.0200 C.ar  205  TRP205      0.0012
    141  CZ2       -6.0840    2.7140   21.0200 C.ar  205  TRP205      0.0191
    142  CZ3       -7.1160    4.6510   22.0440 C.ar  205  TRP205      0.0001
    143  CH2       -7.1700    3.3280   21.5680 C.ar  205  TRP205      0.0015
    144  N         -4.0470    7.4780   24.3100 N.am  206  GLY206     -0.1954
    145  CA        -5.1380    7.4080   25.2590 C.3   206  GLY206      0.1869
    146  C         -6.2790    8.3010   24.8140 C.2   206  GLY206      0.2309
    147  O         -6.0830    9.1890   23.9920 O.2   206  GLY206     -0.2863
    148  N         -7.9250   11.0310   26.0680 N.3   208  GLY208     -0.1210
    149  CA        -7.6150   11.9440   27.1590 C.3   208  GLY208      0.1956
    150  C         -6.5270   11.3650   28.0560 C.2   208  GLY208      0.2612
    151  O         -5.7030   10.5710   27.5860 O.2   208  GLY208     -0.2717
    152  N         -6.5190   11.7800   29.3300 N.am  209  CYS209     -0.1970
    153  CA        -5.5530   11.2820   30.3160 C.3   209  CYS209      0.1712
    154  C         -6.2610   11.0570   31.6160 C.2   209  CYS209      0.2296
    155  O         -6.9630   11.9470   32.0960 O.2   209  CYS209     -0.2864
    156  CB        -4.3970   12.2490   30.5390 C.3   209  CYS209      0.0983
    157  SG        -3.6660   12.8690   29.0370 S.3   209  CYS209     -0.0798
    158  N         -4.4450    3.7140   29.6810 N.3   216  GLY216     -0.1210
    159  CA        -3.3600    4.0780   28.7710 C.3   216  GLY216      0.1956
    160  C         -3.0920    2.9290   27.8020 C.2   216  GLY216      0.2612
    161  O         -3.1590    1.7400   28.2100 O.2   216  GLY216     -0.2717
    162  N         -2.8270    3.2490   26.5350 N.am  217  ILE217     -0.1965
    163  CA        -2.5680    2.2520   25.5170 C.3   217  ILE217      0.1727
    164  C         -1.0930    2.3180   25.0970 C.2   217  ILE217      0.2616
    165  O         -0.5650    3.3920   24.7980 O.2   217  ILE217     -0.2715
    166  CB        -3.4820    2.4080   24.2870 C.3   217  ILE217      0.0290
    167  CG1       -4.9490    2.7140   24.6590 C.3   217  ILE217      0.0022
    168  CG2       -3.3850    1.1340   23.4090 C.3   217  ILE217      0.0023
    169  CD1       -5.6590    1.7130   25.5650 C.3   217  ILE217      0.0001
    170  N         -0.4520    1.1600   25.0990 N.am  218  TYR218     -0.1974
    171  CA         0.9710    1.0120   24.8850 C.3   218  TYR218      0.1639
    172  C          1.2700    0.0600   23.7390 C.2   218  TYR218      0.2290
    173  O          0.5760   -0.9420   23.5540 O.2   218  TYR218     -0.2864
    174  CB         1.6190    0.4300   26.1660 C.3   218  TYR218      0.0560
    175  CG         1.5150    1.3490   27.3560 C.ar  218  TYR218     -0.0198
    176  CD1        0.3390    1.4580   28.0680 C.ar  218  TYR218     -0.0009
    177  CD2        2.5610    2.1580   27.7150 C.ar  218  TYR218     -0.0009
    178  CE1        0.2120    2.3450   29.1570 C.ar  218  TYR218      0.0417
    179  CE2        2.4500    3.0590   28.8010 C.ar  218  TYR218      0.0417
    180  CZ         1.2680    3.1480   29.5240 C.ar  218  TYR218      0.1957
    181  OH         1.1960    4.0380   30.5600 O.3   218  TYR218     -0.2866
@<TRIPOS>BOND
     1    48    46   ar
     2    46    47   ar
     3    46    45    1
     4    45    44    1
     5    44    41    1
     6    39    38    1
     7    37    38    1
     8    37    36    1
     9    35    36    1
    10    35    32    1
    11    31    32    1
    12    40    41    1
    13    40    33   am
    14    41    42    1
    15    32    33    1
    16    33    34    2
    17    42    49   am
    18    42    43    2
    19    55    53    1
    20    49    50    1
    21    54    53    1
    22    53    50    1
    23    50    51    1
    24    22    23    1
    25    56    51   am
    26    56    57    1
    27    51    52    2
    28    24    23    1
    29    24    25    2
    30    23    26    1
    31    57    58    1
    32    57    60    1
    33    13    12    1
    34    13    14    1
    35    13    16    1
    36    15    14    2
    37    58    59    2
    38    64    62   ar
    39    64    66   ar
    40    62    61   ar
    41    16    17    1
    42    30    28   am
    43    67    66    1
    44    66    65   ar
    45    61    60    1
    46    61    63   ar
    47    28    27    1
    48    28    29    2
    49    26    27    1
    50    76    74   ar
    51    76    78   ar
    52    74    73   ar
    53    17    19   ar
    54    17    18   ar
    55    65    63   ar
    56    11    10   ar
    57    11     9   ar
    58    10     8   ar
    59    19    21   ar
    60    18    20   ar
    61    78    77   ar
    62    73    72    1
    63    73    75   ar
    64    72    69    1
    65     9     7   ar
    66    69    70    1
    67    69    68    1
    68    70    71    2
    69     8     6   ar
    70    21    20   ar
    71     7     6   ar
    72    77    75   ar
    73     6     5    1
    74   138   136   ar
    75   138   139   ar
    76   129   128    1
    77   136   135   ar
    78   139   141   ar
    79   139   137   ar
    80   141   143   ar
    81     5     2    1
    82   135   137   ar
    83   135   134    1
    84   137   140   ar
    85   143   142   ar
    86   134   131    1
    87   127   126    2
    88   128   125    1
    89   140   142   ar
    90   126   125    1
    91   126   130   am
    92   125   124    1
    93   116   115    1
    94     4     3    2
    95     2     3    1
    96     2     1    1
    97   131   130    1
    98   131   132    1
    99   120   119    2
   100   115   112    1
   101   106   104   am
   102   114   113    2
   103   168   166    1
   104   113   112    1
   105   173   172    2
   106   172   171    1
   107   124   119   am
   108   147   146    2
   109   119   118    1
   110   132   144   am
   111   132   133    2
   112   112   111    1
   113   166   167    1
   114   166   163    1
   115   144   145    1
   116   104   105    2
   117   104   103    1
   118   167   169    1
   119   165   164    2
   120   146   145    1
   121   103   102    1
   122   171   170    1
   123   171   174    1
   124   164   170   am
   125   164   163    1
   126   117   118    1
   127   118   121    1
   128   163   162    1
   129   107   108    1
   130   107   100   am
   131   102    99    1
   132   108   109    1
   133   148   149    1
   134   174   175    1
   135    99   100    1
   136    99    98    1
   137   121   122    1
   138   121   123    1
   139   110   109    2
   140   162   160   am
   141   100   101    2
   142   149   150    1
   143    98    94   am
   144   175   177   ar
   145   175   176   ar
   146   151   150    2
   147    95    94    2
   148   177   179   ar
   149   160   161    2
   150   160   159    1
   151    94    93    1
   152   150   152   am
   153   176   178   ar
   154   159   158    1
   155   179   180   ar
   156   157    97    1
   157   157   156    1
   158   178   180   ar
   159    93    92    1
   160    93    96    1
   161   152   153    1
   162   180   181    1
   163    92    89   am
   164    97    96    1
   165    91    88    1
   166   153   156    1
   167   153   154    1
   168    89    90    2
   169    89    88    1
   170    86    84   ar
   171    88    87    1
   172    85    84   ar
   173   154   155    2
   174    84    83    1
   175    87    81   am
   176    83    80    1
   177    81    82    2
   178    81    80    1
   179    80    79    1
