@<TRIPOS>MOLECULE
tmp/2y5hA00.pdb
 175 174 0 0 0
SMALL
GASTEIGER

@<TRIPOS>ATOM
      1  N          4.1910    7.5820   15.9730 N.3    42  HIS42      -0.1241
      2  CA         3.2730    8.7320   15.8560 C.3    42  HIS42       0.1621
      3  C          3.9320   10.0460   16.3140 C.2    42  HIS42       0.2264
      4  O          3.5070   11.1230   15.9000 O.2    42  HIS42      -0.2867
      5  CB         1.9600    8.4670   16.6050 C.3    42  HIS42       0.0745
      6  CG         1.9930    8.8520   18.0550 C.ar   42  HIS42       0.0817
      7  ND1        2.1880    7.9490   19.0920 N.ar   42  HIS42      -0.2268
      8  CD2        1.8320   10.0640   18.6460 C.ar   42  HIS42       0.1154
      9  CE1        2.1480    8.5940   20.2440 C.ar   42  HIS42       0.1986
     10  NE2        1.9410    9.8740   20.0030 N.ar   42  HIS42      -0.2212
     11  N          4.9490   14.9180   14.7630 N.3    46  GLN46      -0.1245
     12  CA         4.6140   16.0280   15.6700 C.3    46  GLN46       0.1566
     13  C          5.6180   17.1720   15.6530 C.2    46  GLN46       0.2260
     14  O          5.3490   18.2410   16.2010 O.2    46  GLN46      -0.2867
     15  CB         4.4490   15.5270   17.1030 C.3    46  GLN46       0.0367
     16  CG         3.1610   14.8370   17.3180 C.3    46  GLN46       0.0905
     17  CD         2.9850   14.4210   18.7470 C.2    46  GLN46       0.2608
     18  OE1        3.0470   15.2390   19.6620 O.2    46  GLN46      -0.2717
     19  NE2        2.7790   13.1500   18.9480 N.am   46  GLN46      -0.0878
     20  N         -1.5630    5.9570   11.2130 N.3    82  LYS82      -0.1231
     21  CA        -2.0440    7.0850   12.0350 C.3    82  LYS82       0.1693
     22  C         -3.5180    6.9290   12.4120 C.2    82  LYS82       0.2592
     23  O         -3.9830    7.4520   13.4280 O.2    82  LYS82      -0.2718
     24  CB        -1.8240    8.3950   11.2650 C.3    82  LYS82       0.0285
     25  CG        -2.0960    9.6690   12.0190 C.3    82  LYS82       0.0035
     26  CD        -1.6060   10.8470   11.1890 C.3    82  LYS82       0.0206
     27  CE        -1.9580   12.1680   11.8220 C.3    82  LYS82       0.1093
     28  NZ        -1.4200   13.2880   11.0130 N.3    82  LYS82      -0.1314
     29  N         -4.2610    6.1970   11.5980 N.am   83  GLU83      -0.1966
     30  CA        -5.6920    6.0480   11.8390 C.3    83  GLU83       0.1733
     31  C         -5.9970    5.3050   13.1340 C.2    83  GLU83       0.2617
     32  O         -6.8980    5.6860   13.8700 O.2    83  GLU83      -0.2715
     33  CB        -6.3820    5.3750   10.6500 C.3    83  GLU83       0.0429
     34  CG        -6.7880    6.3610    9.5480 C.3    83  GLU83       0.1163
     35  CD        -5.6180    7.1720    9.0180 C.2    83  GLU83       0.3649
     36  OE1       -4.6330    6.5560    8.5660 O.co2  83  GLU83      -0.2457
     37  OE2       -5.6850    8.4240    9.0400 O.co2  83  GLU83      -0.2457
     38  N         -5.2420    4.2560   13.4220 N.am   84  THR84      -0.1937
     39  CA        -5.4950    3.4440   14.6130 C.3    84  THR84       0.2028
     40  C         -4.3450    3.4510   15.6060 C.2    84  THR84       0.2642
     41  O         -4.4960    2.9140   16.6940 O.2    84  THR84      -0.2714
     42  CB        -5.7280    1.9940   14.1980 C.3    84  THR84       0.1808
     43  OG1       -4.5710    1.5460   13.4930 O.3    84  THR84      -0.2208
     44  CG2       -6.9670    1.8850   13.2690 C.3    84  THR84       0.0379
     45  N         -3.2130    4.0540   15.2210 N.am   85  TYR85      -0.1973
     46  CA        -1.9280    3.9090   15.9220 C.3    85  TYR85       0.1639
     47  C         -1.4240    2.4700   16.0050 C.2    85  TYR85       0.2290
     48  O         -0.5440    2.1640   16.8170 O.2    85  TYR85      -0.2864
     49  CB        -1.9580    4.5520   17.3060 C.3    85  TYR85       0.0560
     50  CG        -1.8120    6.0640   17.3490 C.ar   85  TYR85      -0.0198
     51  CD1       -2.2690    6.8850   16.3140 C.ar   85  TYR85      -0.0009
     52  CD2       -1.2960    6.6900   18.4810 C.ar   85  TYR85      -0.0009
     53  CE1       -2.1480    8.2730   16.3900 C.ar   85  TYR85       0.0417
     54  CE2       -1.1930    8.0750   18.5670 C.ar   85  TYR85       0.0417
     55  CZ        -1.6150    8.8680   17.5200 C.ar   85  TYR85       0.1957
     56  OH        -1.5010   10.2330   17.6260 O.3    85  TYR85      -0.2866
     57  N        -12.0180    2.7940   20.5820 N.3   162  PHE162     -0.1241
     58  CA       -11.2340    2.5480   19.3840 C.3   162  PHE162      0.1605
     59  C        -10.6070    1.1690   19.4760 C.2   162  PHE162      0.2264
     60  O        -10.4380    0.6130   20.5630 O.2   162  PHE162     -0.2867
     61  CB       -10.1330    3.6060   19.2360 C.3   162  PHE162      0.0534
     62  CG       -10.6440    5.0100   19.1840 C.ar  162  PHE162     -0.0203
     63  CD1      -11.1640    5.5190   17.9960 C.ar  162  PHE162     -0.0042
     64  CD2      -10.6110    5.8340   20.3140 C.ar  162  PHE162     -0.0042
     65  CE1      -11.6640    6.8260   17.9430 C.ar  162  PHE162     -0.0003
     66  CE2      -11.0970    7.1240   20.2670 C.ar  162  PHE162     -0.0003
     67  CZ       -11.6260    7.6280   19.0820 C.ar  162  PHE162     -0.0000
     68  N         -2.1600    8.2540   35.4990 N.3   179  ASP179     -0.1225
     69  CA        -2.0110    7.7970   34.0950 C.3   179  ASP179      0.1805
     70  C         -0.8130    8.4690   33.4870 C.2   179  ASP179      0.2598
     71  O         -0.2940    9.4530   34.0270 O.2   179  ASP179     -0.2718
     72  CB        -3.2720    8.2010   33.3260 C.3   179  ASP179      0.1424
     73  CG        -3.4820    7.4830   31.9750 C.2   179  ASP179      0.3668
     74  OD1       -2.6830    6.6270   31.5240 O.co2 179  ASP179     -0.2456
     75  OD2       -4.5140    7.8280   31.3240 O.co2 179  ASP179     -0.2456
     76  N         -0.3460    7.9340   32.3590 N.am  180  ALA180     -0.1966
     77  CA         0.4670    8.7400   31.4610 C.3   180  ALA180      0.1728
     78  C         -0.4080    9.7810   30.7660 C.2   180  ALA180      0.2616
     79  O         -1.6250    9.7940   30.9130 O.2   180  ALA180     -0.2715
     80  CB         1.1890    7.8410   30.4440 C.3   180  ALA180      0.0334
     81  N          0.2210   10.6850   30.0320 N.am  181  CYS181     -0.1954
     82  CA        -0.5180   11.7240   29.3230 C.3   181  CYS181      0.1843
     83  C          0.2690   12.2380   28.1250 C.2   181  CYS181      0.2625
     84  O          1.3880   11.8030   27.8640 O.2   181  CYS181     -0.2714
     85  CB        -0.8540   12.8730   30.2840 C.3   181  CYS181      0.0997
     86  SG        -2.2290   13.9800   29.8440 S.3   181  CYS181     -0.0797
     87  N         -0.3460   13.1260   27.3570 N.am  182  GLN182     -0.1977
     88  CA         0.3340   13.7700   26.2450 C.3   182  GLN182      0.1601
     89  C          1.7090   14.2980   26.6660 C.2   182  GLN182      0.2287
     90  O          1.8630   14.8290   27.7420 O.2   182  GLN182     -0.2864
     91  CB        -0.5980   14.8520   25.6680 C.3   182  GLN182      0.0394
     92  CG        -0.0300   16.1890   25.4080 C.3   182  GLN182      0.0908
     93  CD        -1.0220   17.1330   24.7340 C.2   182  GLN182      0.2608
     94  OE1       -2.2420   17.1540   25.0310 O.2   182  GLN182     -0.2717
     95  NE2       -0.5000   17.9300   23.8210 N.am  182  GLN182     -0.0878
     96  N          4.1580   10.3940   25.6320 N.3   185  SER185     -0.1217
     97  CA         4.1330    9.7300   24.3160 C.3   185  SER185      0.1889
     98  C          5.5210    9.3580   23.8060 C.2   185  SER185      0.2288
     99  O          6.4020   10.1870   23.7660 O.2   185  SER185     -0.2866
    100  CB         3.4360   10.6880   23.3260 C.3   185  SER185      0.2089
    101  OG         2.3210   11.3080   23.9760 O.3   185  SER185     -0.2183
    102  N          4.7260    4.3650   25.4180 N.3   203  VAL203     -0.1231
    103  CA         3.5340    5.1660   25.6270 C.3   203  VAL203      0.1692
    104  C          2.9620    5.5200   24.2560 C.2   203  VAL203      0.2593
    105  O          3.6440    6.1670   23.4210 O.2   203  VAL203     -0.2718
    106  CB         3.8800    6.4470   26.4050 C.3   203  VAL203      0.0266
    107  CG1        2.5700    7.2920   26.6450 C.3   203  VAL203      0.0020
    108  CG2        4.5650    6.1210   27.7170 C.3   203  VAL203      0.0020
    109  N          1.7130    5.1180   23.9980 N.am  204  SER204     -0.1938
    110  CA         1.1530    5.2830   22.6620 C.3   204  SER204      0.2055
    111  C         -0.0300    6.2370   22.5830 C.2   204  SER204      0.2643
    112  O          0.0380    7.2470   21.8820 O.2   204  SER204     -0.2714
    113  CB         0.8790    3.9200   22.0420 C.3   204  SER204      0.2130
    114  OG         0.3910    4.0430   20.7100 O.3   204  SER204     -0.2179
    115  N         -1.1220    5.9400   23.2790 N.am  205  TRP205     -0.1959
    116  CA        -2.3030    6.8090   23.1730 C.3   205  TRP205      0.1771
    117  C         -3.2390    6.6140   24.3450 C.2   205  TRP205      0.2620
    118  O         -3.0930    5.6770   25.1250 O.2   205  TRP205     -0.2715
    119  CB        -3.0280    6.6240   21.8260 C.3   205  TRP205      0.0590
    120  CG        -3.5820    5.2640   21.5180 C.ar  205  TRP205      0.0006
    121  CD1       -2.9340    4.2160   20.9230 C.ar  205  TRP205      0.0946
    122  CD2       -4.9400    4.8190   21.7200 C.ar  205  TRP205      0.0152
    123  NE1       -3.7800    3.1440   20.7740 N.ar  205  TRP205     -0.2442
    124  CE2       -5.0220    3.4900   21.2380 C.ar  205  TRP205      0.0810
    125  CE3       -6.0900    5.4200   22.2340 C.ar  205  TRP205      0.0012
    126  CZ2       -6.2230    2.7410   21.2920 C.ar  205  TRP205      0.0191
    127  CZ3       -7.2480    4.6980   22.2800 C.ar  205  TRP205      0.0001
    128  CH2       -7.3170    3.3740   21.7960 C.ar  205  TRP205      0.0015
    129  N         -4.1610    7.5500   24.4860 N.am  206  GLY206     -0.1940
    130  CA        -5.2540    7.4400   25.4340 C.3   206  GLY206      0.2014
    131  C         -6.3990    8.3420   25.0050 C.2   206  GLY206      0.2639
    132  O         -6.2100    9.2290   24.1780 O.2   206  GLY206     -0.2714
    133  N         -7.5850    8.0840   25.5530 N.am  207  GLU207     -0.1963
    134  CA        -8.7480    8.9470   25.3740 C.3   207  GLU207      0.1733
    135  C         -8.7350    9.8960   26.5620 C.2   207  GLU207      0.2617
    136  O         -9.2080    9.5640   27.6510 O.2   207  GLU207     -0.2715
    137  CB       -10.0300    8.1110   25.3210 C.3   207  GLU207      0.0429
    138  CG       -10.0770    7.1100   24.1710 C.3   207  GLU207      0.1163
    139  CD       -11.3740    6.3210   24.1280 C.2   207  GLU207      0.3649
    140  OE1      -12.4440    6.9510   24.0630 O.co2 207  GLU207     -0.2457
    141  OE2      -11.3030    5.0810   24.1740 O.co2 207  GLU207     -0.2457
    142  N         -8.1360   11.0640   26.3680 N.am  208  GLY208     -0.1940
    143  CA        -7.8270   11.9390   27.4850 C.3   208  GLY208      0.2014
    144  C         -6.7300   11.3300   28.3440 C.2   208  GLY208      0.2639
    145  O         -5.9790   10.4480   27.8840 O.2   208  GLY208     -0.2714
    146  N         -6.6470   11.7890   29.5980 N.am  209  CYS209     -0.1967
    147  CA        -5.6690   11.2650   30.5530 C.3   209  CYS209      0.1712
    148  C         -6.3530   11.0590   31.8790 C.2   209  CYS209      0.2296
    149  O         -7.0180   11.9680   32.3740 O.2   209  CYS209     -0.2864
    150  CB        -4.5020   12.2390   30.7520 C.3   209  CYS209      0.0983
    151  SG        -3.7360   12.7500   29.2140 S.3   209  CYS209     -0.0798
    152  N         -4.4580    3.8030   29.9040 N.3   216  GLY216     -0.1210
    153  CA        -3.4130    4.1680   28.9770 C.3   216  GLY216      0.1956
    154  C         -3.1400    3.0180   28.0200 C.2   216  GLY216      0.2612
    155  O         -3.1690    1.8400   28.4430 O.2   216  GLY216     -0.2717
    156  N         -2.8650    3.3590   26.7600 N.am  217  ILE217     -0.1965
    157  CA        -2.5940    2.3510   25.7300 C.3   217  ILE217      0.1727
    158  C         -1.1330    2.4230   25.2900 C.2   217  ILE217      0.2616
    159  O         -0.6110    3.4990   25.0010 O.2   217  ILE217     -0.2715
    160  CB        -3.5250    2.4680   24.4810 C.3   217  ILE217      0.0290
    161  CG1       -5.0000    2.7770   24.8640 C.3   217  ILE217      0.0022
    162  CG2       -3.3710    1.2020   23.6600 C.3   217  ILE217      0.0023
    163  CD1       -5.6930    1.7670   25.7580 C.3   217  ILE217      0.0001
    164  N         -0.4990    1.2620   25.3060 N.am  218  TYR218     -0.1974
    165  CA         0.9170    1.1060   25.0750 C.3   218  TYR218      0.1639
    166  C          1.2180    0.1700   23.9330 C.2   218  TYR218      0.2290
    167  O          0.5100   -0.8100   23.7350 O.2   218  TYR218     -0.2864
    168  CB         1.5950    0.5500   26.3440 C.3   218  TYR218      0.0560
    169  CG         1.4780    1.4610   27.5300 C.ar  218  TYR218     -0.0198
    170  CD1        0.2930    1.5460   28.2630 C.ar  218  TYR218     -0.0009
    171  CD2        2.5500    2.2600   27.9140 C.ar  218  TYR218     -0.0009
    172  CE1        0.1590    2.4180   29.3670 C.ar  218  TYR218      0.0417
    173  CE2        2.4270    3.1390   28.9850 C.ar  218  TYR218      0.0417
    174  CZ         1.2420    3.2240   29.7250 C.ar  218  TYR218      0.1957
    175  OH         1.1790    4.0920   30.7990 O.3   218  TYR218     -0.2866
@<TRIPOS>BOND
     1    36    35   ar
     2    35    37   ar
     3    35    34    1
     4    34    33    1
     5    33    30    1
     6    28    27    1
     7    26    27    1
     8    26    25    1
     9    20    21    1
    10    24    25    1
    11    24    21    1
    12    29    30    1
    13    29    22   am
    14    30    31    1
    15    21    22    1
    16    22    23    2
    17    31    38   am
    18    31    32    2
    19    44    42    1
    20    38    39    1
    21    43    42    1
    22    42    39    1
    23    39    40    1
    24    11    12    1
    25    45    40   am
    26    45    46    1
    27    40    41    2
    28    13    12    1
    29    13    14    2
    30    12    15    1
    31     2     1    1
    32     2     3    1
    33     2     5    1
    34     4     3    2
    35    46    47    1
    36    46    49    1
    37    47    48    2
    38    51    53   ar
    39    51    50   ar
    40    53    55   ar
    41     5     6    1
    42    15    16    1
    43    49    50    1
    44    16    17    1
    45    50    52   ar
    46    55    56    1
    47    55    54   ar
    48    65    63   ar
    49    65    67   ar
    50    63    62   ar
    51     6     8   ar
    52     6     7   ar
    53    52    54   ar
    54     8    10   ar
    55    17    19   am
    56    17    18    2
    57    67    66   ar
    58     7     9   ar
    59    62    61    1
    60    62    64   ar
    61    61    58    1
    62    58    59    1
    63    58    57    1
    64    59    60    2
    65    10     9   ar
    66    66    64   ar
    67   114   113    1
    68   123   121   ar
    69   123   124   ar
    70   121   120   ar
    71   124   126   ar
    72   124   122   ar
    73   126   128   ar
    74   120   122   ar
    75   120   119    1
    76   122   125   ar
    77   128   127   ar
    78   119   116    1
    79   112   111    2
    80   113   110    1
    81   125   127   ar
    82   111   110    1
    83   111   115   am
    84   110   109    1
    85   116   115    1
    86   116   117    1
    87   100   101    1
    88   100    97    1
    89   105   104    2
    90   162   160    1
    91   167   166    2
    92    99    98    2
    93    98    97    1
    94    95    93   am
    95   166   165    1
    96   109   104   am
    97   140   139   ar
    98   139   138    1
    99   139   141   ar
   100   138   137    1
   101   132   131    2
   102   104   103    1
   103    97    96    1
   104   117   129   am
   105   117   118    2
   106   160   161    1
   107   160   157    1
   108   129   130    1
   109    93    94    2
   110    93    92    1
   111   161   163    1
   112   159   158    2
   113   131   130    1
   114   131   133   am
   115   165   164    1
   116   165   168    1
   117   158   164   am
   118   158   157    1
   119   137   134    1
   120   134   133    1
   121   134   135    1
   122    92    91    1
   123   102   103    1
   124   103   106    1
   125    91    88    1
   126   157   156    1
   127    88    89    1
   128    88    87    1
   129   168   169    1
   130   142   135   am
   131   142   143    1
   132   106   107    1
   133   106   108    1
   134   135   136    2
   135    89    90    2
   136   156   154   am
   137    87    83   am
   138   143   144    1
   139   169   171   ar
   140   169   170   ar
   141    84    83    2
   142   145   144    2
   143   171   173   ar
   144   154   155    2
   145   154   153    1
   146    83    82    1
   147   170   172   ar
   148   144   146   am
   149   153   152    1
   150   173   174   ar
   151   151    86    1
   152   151   150    1
   153    82    81    1
   154    82    85    1
   155   172   174   ar
   156   146   147    1
   157   174   175    1
   158    86    85    1
   159    81    78   am
   160    80    77    1
   161   147   150    1
   162   147   148    1
   163    78    79    2
   164    78    77    1
   165    75    73   ar
   166    77    76    1
   167    74    73   ar
   168   148   149    2
   169    73    72    1
   170    76    70   am
   171    72    69    1
   172    70    71    2
   173    70    69    1
   174    69    68    1
