@<TRIPOS>MOLECULE
tmp/2y5kC01.pdb
 163 156 0 0 0
SMALL
GASTEIGER

@<TRIPOS>ATOM
      1  N          7.2270   51.3950   28.0750 N.3     9  VAL9       -0.1231
      2  CA         7.5860   52.5950   28.8060 C.3     9  VAL9        0.1692
      3  C          7.8900   53.7620   27.8560 C.2     9  VAL9        0.2591
      4  O          7.2740   54.8330   27.9680 O.2     9  VAL9       -0.2718
      5  CB         8.7200   52.2800   29.8090 C.3     9  VAL9        0.0266
      6  CG1        9.4410   53.5130   30.2580 C.3     9  VAL9        0.0020
      7  CG2        8.1290   51.5340   31.0280 C.3     9  VAL9        0.0020
      8  N          8.8000   53.5420   26.9090 N.am   10  MET10      -0.1979
      9  CA         9.1550   54.5520   25.9100 C.3    10  MET10       0.1605
     10  C          7.9310   55.0960   25.1810 C.2    10  MET10       0.2287
     11  O          7.7670   56.3070   25.0620 O.2    10  MET10      -0.2864
     12  CB        10.1470   53.9880   24.9010 C.3    10  MET10       0.0413
     13  CG        11.5770   54.0400   25.3470 C.3    10  MET10       0.0598
     14  SD        12.5760   52.9920   24.2830 S.3    10  MET10      -0.1393
     15  CE        14.1090   52.9180   25.2200 C.3    10  MET10       0.0692
     16  N          4.7500   55.1240   26.0630 N.3    12  GLU12      -0.1231
     17  CA         3.9720   55.9150   27.0130 C.3    12  GLU12       0.1699
     18  C          4.5750   57.3050   27.2540 C.2    12  GLU12       0.2593
     19  O          3.8570   58.3020   27.3550 O.2    12  GLU12      -0.2718
     20  CB         3.8360   55.1610   28.3390 C.3    12  GLU12       0.0402
     21  CG         2.8690   53.9960   28.3050 C.3    12  GLU12       0.1161
     22  CD         1.4780   54.4070   27.8330 C.2    12  GLU12       0.3649
     23  OE1        1.1080   55.5760   28.0690 O.co2  12  GLU12      -0.2457
     24  OE2        0.7750   53.5720   27.2180 O.co2  12  GLU12      -0.2457
     25  N          5.8940   57.3630   27.3350 N.am   13  GLY13      -0.1942
     26  CA         6.6080   58.6230   27.5160 C.3    13  GLY13       0.2014
     27  C          6.5070   59.5570   26.3210 C.2    13  GLY13       0.2638
     28  O          6.2040   60.7410   26.4800 O.2    13  GLY13      -0.2714
     29  N          6.7610   59.0250   25.1250 N.am   14  ARG14      -0.1977
     30  CA         6.6000   59.7850   23.8770 C.3    14  ARG14       0.1597
     31  C          5.1610   60.2390   23.7000 C.2    14  ARG14       0.2287
     32  O          4.9150   61.3310   23.1780 O.2    14  ARG14      -0.2864
     33  CB         7.0500   58.9630   22.6680 C.3    14  ARG14       0.0334
     34  CG         8.5260   58.6180   22.7060 C.3    14  ARG14       0.0492
     35  CD         8.9160   57.5350   21.7040 C.3    14  ARG14       0.2205
     36  NE         8.7710   57.9870   20.3230 N.pl3  14  ARG14      -0.0865
     37  CZ         9.0140   57.2300   19.2530 C.cat  14  ARG14       0.5346
     38  NH1        9.4400   55.9730   19.4010 N.pl3  14  ARG14       0.1354
     39  NH2        8.8310   57.7320   18.0350 N.pl3  14  ARG14       0.1354
     40  N          3.0870   60.9720   26.1620 N.3    16  ALA16      -0.1231
     41  CA         2.8290   62.0440   27.1210 C.3    16  ALA16       0.1694
     42  C          3.7600   63.2230   26.8530 C.2    16  ALA16       0.2592
     43  O          3.6200   64.2970   27.4560 O.2    16  ALA16      -0.2718
     44  CB         2.9590   61.5480   28.5450 C.3    16  ALA16       0.0304
     45  N          4.6870   63.0070   25.9190 N.am   17  ARG17      -0.1966
     46  CA         5.6250   64.0180   25.4430 C.3    17  ARG17       0.1729
     47  C          6.5970   64.4060   26.5380 C.2    17  ARG17       0.2617
     48  O          7.0390   65.5460   26.6010 O.2    17  ARG17      -0.2715
     49  CB         4.8860   65.2560   24.8870 C.3    17  ARG17       0.0348
     50  CG         3.9320   64.9700   23.7150 C.3    17  ARG17       0.0492
     51  CD         3.0300   66.1650   23.4500 C.3    17  ARG17       0.2205
     52  NE         2.1100   66.4010   24.5630 N.pl3  17  ARG17      -0.0865
     53  CZ         0.8260   66.0310   24.5840 C.cat  17  ARG17       0.5346
     54  NH1        0.2750   65.4080   23.5390 N.pl3  17  ARG17       0.1354
     55  NH2        0.0840   66.2940   25.6530 N.pl3  17  ARG17       0.1354
     56  N          6.9340   63.4460   27.3940 N.am   18  GLY18      -0.1940
     57  CA         7.8900   63.6770   28.4630 C.3    18  GLY18       0.2014
     58  C          9.3060   63.7350   27.9230 C.2    18  GLY18       0.2640
     59  O          9.5660   63.3410   26.7890 O.2    18  GLY18      -0.2714
     60  N         10.2280   64.2190   28.7420 N.am   19  THR19      -0.1936
     61  CA        11.6120   64.3440   28.3240 C.3    19  THR19       0.2028
     62  C         12.3700   63.0220   28.4790 C.2    19  THR19       0.2643
     63  O         13.4350   62.8630   27.9090 O.2    19  THR19      -0.2714
     64  CB        12.3170   65.4580   29.0980 C.3    19  THR19       0.1808
     65  OG1       12.2270   65.1750   30.4920 O.3    19  THR19      -0.2208
     66  CG2       11.6560   66.7970   28.8330 C.3    19  THR19       0.0379
     67  N         11.8090   62.0840   29.2480 N.am   20  GLY20      -0.1939
     68  CA        12.3480   60.7240   29.3740 C.3    20  GLY20       0.2014
     69  C         12.9720   60.3860   30.7190 C.2    20  GLY20       0.2639
     70  O         13.5680   59.3160   30.8910 O.2    20  GLY20      -0.2714
     71  N         12.8450   61.2970   31.6790 N.am   21  GLU21      -0.1963
     72  CA        13.4000   61.0860   33.0100 C.3    21  GLU21       0.1733
     73  C         12.7450   59.8920   33.7110 C.2    21  GLU21       0.2616
     74  O         13.4360   59.0610   34.2820 O.2    21  GLU21      -0.2715
     75  CB        13.2570   62.3470   33.8570 C.3    21  GLU21       0.0429
     76  CG        14.2970   62.4220   34.9320 C.3    21  GLU21       0.1163
     77  CD        14.4770   63.8040   35.5220 C.2    21  GLU21       0.3649
     78  OE1       14.5520   64.8100   34.7900 O.co2  21  GLU21      -0.2457
     79  OE2       14.5450   63.8780   36.7500 O.co2  21  GLU21      -0.2457
     80  N         11.4220   59.7960   33.6250 N.am   22  LEU22      -0.1963
     81  CA        10.6810   58.6620   34.2000 C.3    22  LEU22       0.1728
     82  C         11.0260   57.3330   33.5010 C.2    22  LEU22       0.2616
     83  O         11.0490   56.2730   34.1230 O.2    22  LEU22      -0.2715
     84  CB         9.1600   58.9300   34.1860 C.3    22  LEU22       0.0311
     85  CG         8.2460   57.9190   34.8890 C.3    22  LEU22       0.0022
     86  CD1        8.6660   57.6890   36.3440 C.3    22  LEU22       0.0001
     87  CD2        6.7780   58.3500   34.7890 C.3    22  LEU22       0.0001
     88  N         11.3200   57.4110   32.2120 N.am   23  THR23      -0.1951
     89  CA        11.7550   56.2530   31.4340 C.3    23  THR23       0.1897
     90  C         13.1590   55.7640   31.8410 C.2    23  THR23       0.2313
     91  O         13.3660   54.5610   32.0000 O.2    23  THR23      -0.2863
     92  CB        11.6220   56.5410   29.9160 C.3    23  THR23       0.1794
     93  OG1       10.2240   56.4610   29.5460 O.3    23  THR23      -0.2208
     94  CG2       12.4630   55.5660   29.0630 C.3    23  THR23       0.0378
     95  N         12.6100   54.1340   35.2590 N.3    26  LEU26      -0.1245
     96  CA        11.9040   52.8520   35.1280 C.3    26  LEU26       0.1561
     97  C         12.7800   51.8000   34.4440 C.2    26  LEU26       0.2260
     98  O         12.7410   50.6430   34.8270 O.2    26  LEU26      -0.2867
     99  CB        10.5430   52.9820   34.4170 C.3    26  LEU26       0.0270
    100  CG         9.3850   53.6650   35.1720 C.3    26  LEU26       0.0019
    101  CD1        8.1170   53.8420   34.2850 C.3    26  LEU26       0.0001
    102  CD2        9.0450   52.8900   36.4290 C.3    26  LEU26       0.0001
    103  N         14.3350   64.5460   39.0530 N.3    95  LYS95      -0.1231
    104  CA        13.1890   65.2080   39.6760 C.3    95  LYS95       0.1693
    105  C         12.2810   64.3050   40.4910 C.2    95  LYS95       0.2592
    106  O         11.2830   64.7620   41.0500 O.2    95  LYS95      -0.2718
    107  CB        12.3710   65.9680   38.6300 C.3    95  LYS95       0.0285
    108  CG        11.6120   65.1310   37.6240 C.3    95  LYS95       0.0035
    109  CD        11.0850   66.0430   36.5060 C.3    95  LYS95       0.0206
    110  CE        10.5390   65.2290   35.3520 C.3    95  LYS95       0.1093
    111  NZ        10.4350   66.0310   34.0960 N.3    95  LYS95      -0.1314
    112  N         12.6460   63.0330   40.5760 N.am   96  TYR96      -0.1976
    113  CA        11.7890   62.0500   41.2120 C.3    96  TYR96       0.1639
    114  C         12.3290   61.5860   42.5470 C.2    96  TYR96       0.2290
    115  O         13.5400   61.5250   42.7780 O.2    96  TYR96      -0.2864
    116  CB        11.5360   60.8560   40.2720 C.3    96  TYR96       0.0560
    117  CG        10.7420   61.2380   39.0410 C.ar   96  TYR96      -0.0198
    118  CD1        9.3390   61.2750   39.0660 C.ar   96  TYR96      -0.0009
    119  CD2       11.3870   61.6000   37.8590 C.ar   96  TYR96      -0.0009
    120  CE1        8.6090   61.6430   37.9360 C.ar   96  TYR96       0.0417
    121  CE2       10.6560   61.9600   36.7280 C.ar   96  TYR96       0.0417
    122  CZ         9.2810   61.9930   36.7820 C.ar   96  TYR96       0.1957
    123  OH         8.5780   62.3640   35.6600 O.3    96  TYR96      -0.2866
    124  N          7.0550   62.7570   41.8910 N.3   123  ARG123     -0.1245
    125  CA         7.8180   63.9410   41.4830 C.3   123  ARG123      0.1563
    126  C          8.1280   64.7490   42.7550 C.2   123  ARG123      0.2260
    127  O          7.2200   64.9880   43.5720 O.2   123  ARG123     -0.2867
    128  CB         7.0320   64.7750   40.4670 C.3   123  ARG123      0.0307
    129  CG         7.8710   65.7790   39.6940 C.3   123  ARG123      0.0489
    130  CD         7.1800   66.2810   38.4030 C.3   123  ARG123      0.2205
    131  NE         7.1800   65.2580   37.3450 N.pl3 123  ARG123     -0.0865
    132  CZ         6.1310   64.5030   37.0200 C.cat 123  ARG123      0.5346
    133  NH1        4.9770   64.6600   37.6470 N.pl3 123  ARG123      0.1354
    134  NH2        6.2310   63.5900   36.0620 N.pl3 123  ARG123      0.1354
    135  N          3.0110   58.9650   40.8610 N.3   143  VAL143     -0.1245
    136  CA         3.1440   59.1100   39.4260 C.3   143  VAL143      0.1561
    137  C          3.2230   57.7200   38.7770 C.2   143  VAL143      0.2260
    138  O          2.8590   57.5100   37.6150 O.2   143  VAL143     -0.2867
    139  CB         4.4210   59.9330   39.1270 C.3   143  VAL143      0.0252
    140  CG1        5.0680   59.4960   37.8590 C.3   143  VAL143      0.0019
    141  CG2        4.0850   61.4440   39.1000 C.3   143  VAL143      0.0019
    142  N          0.2860   53.0690   36.5390 N.3   160  MET160     -0.1230
    143  CA         0.4500   54.4880   36.2530 C.3   160  MET160      0.1702
    144  C         -0.9130   55.0170   35.9200 C.2   160  MET160      0.2592
    145  O         -1.8980   54.2960   36.0470 O.2   160  MET160     -0.2718
    146  CB         1.4180   54.7090   35.0800 C.3   160  MET160      0.0401
    147  CG         2.8360   54.1290   35.2900 C.3   160  MET160      0.0596
    148  SD         3.9980   54.6150   34.0000 S.3   160  MET160     -0.1393
    149  CE         3.3090   53.7270   32.6020 C.3   160  MET160      0.0692
    150  N         -0.9640   56.2660   35.4760 N.am  161  ASP161     -0.1960
    151  CA        -2.2040   56.9180   35.0600 C.3   161  ASP161      0.1840
    152  C         -2.9570   56.1050   33.9850 C.2   161  ASP161      0.2622
    153  O         -4.1830   56.0110   34.0190 O.2   161  ASP161     -0.2715
    154  CB        -1.8710   58.3410   34.5850 C.3   161  ASP161      0.1450
    155  CG        -3.0570   59.0710   34.0190 C.2   161  ASP161      0.3671
    156  OD1       -4.0030   59.3700   34.7910 O.co2 161  ASP161     -0.2456
    157  OD2       -3.0200   59.3810   32.7960 O.co2 161  ASP161     -0.2456
    158  N         -2.2050   55.4930   33.0670 N.am  162  CYS162     -0.1968
    159  CA        -2.7490   54.6280   32.0070 C.3   162  CYS162      0.1712
    160  C         -3.2180   53.2760   32.5440 C.2   162  CYS162      0.2296
    161  O         -3.7100   52.4270   31.7850 O.2   162  CYS162     -0.2864
    162  CB        -1.7040   54.4030   30.9010 C.3   162  CYS162      0.0983
    163  SG        -0.2510   53.3630   31.3530 S.3   162  CYS162     -0.0798
@<TRIPOS>BOND
     1    39    37    1
     2    37    38    1
     3    37    36    2
     4    36    35    1
     5    35    34    1
     6    33    34    1
     7    33    30    1
     8    32    31    2
     9    51    50    1
    10    51    52    1
    11    54    53    1
    12    31    30    1
    13    50    49    1
    14    30    29    1
    15    14    15    1
    16    14    13    1
    17    52    53    2
    18    53    55    1
    19    49    46    1
    20    12    13    1
    21    12     9    1
    22    11    10    2
    23    29    27   am
    24    10     9    1
    25    46    45    1
    26    46    47    1
    27     9     8    1
    28    45    42   am
    29    16    17    1
    30    40    41    1
    31    27    28    2
    32    27    26    1
    33    47    48    2
    34    47    56   am
    35    59    58    2
    36    42    41    1
    37    42    43    2
    38     8     3   am
    39    17    18    1
    40    17    20    1
    41    41    44    1
    42    24    22   ar
    43    18    25   am
    44    18    19    2
    45    25    26    1
    46    56    57    1
    47    22    23   ar
    48    22    21    1
    49     3     4    2
    50     3     2    1
    51    63    62    2
    52    58    57    1
    53    58    60   am
    54     1     2    1
    55    21    20    1
    56    61    62    1
    57    61    60    1
    58    61    64    1
    59    62    67   am
    60     2     5    1
    61    66    64    1
    62    94    92    1
    63    64    65    1
    64    67    68    1
    65    68    69    1
    66    93    92    1
    67     5     6    1
    68     5     7    1
    69    92    89    1
    70    69    70    2
    71    69    71   am
    72   162   163    1
    73   162   159    1
    74    89    90    1
    75    89    88    1
    76    71    72    1
    77   161   160    2
    78    90    91    2
    79   159   160    1
    80   159   158    1
    81    88    82   am
    82   149   148    1
    83   157   155   ar
    84    72    73    1
    85    72    75    1
    86   158   152   am
    87    82    83    2
    88    82    81    1
    89    80    73   am
    90    80    81    1
    91    73    74    2
    92    75    76    1
    93   152   153    2
    94   152   151    1
    95   148   147    1
    96   155   154    1
    97   155   156   ar
    98   111   110    1
    99    84    81    1
   100    84    85    1
   101   101   100    1
   102    99    96    1
   103    99   100    1
   104    97    98    2
   105    97    96    1
   106   154   151    1
   107    87    85    1
   108    78    77   ar
   109    85    86    1
   110    76    77    1
   111   151   150    1
   112   146   147    1
   113   146   143    1
   114    96    95    1
   115   100   102    1
   116   110   109    1
   117   150   144   am
   118    77    79   ar
   119   123   122    1
   120   144   145    2
   121   144   143    1
   122   134   132    1
   123   143   142    1
   124   109   108    1
   125   121   122   ar
   126   121   119   ar
   127   122   120   ar
   128   132   131    2
   129   132   133    1
   130   131   130    1
   131   138   137    2
   132   108   107    1
   133   140   139    1
   134   119   117   ar
   135   120   118   ar
   136   130   129    1
   137   107   104    1
   138   137   136    1
   139   117   118   ar
   140   117   116    1
   141   103   104    1
   142   141   139    1
   143   139   136    1
   144   136   135    1
   145   104   105    1
   146   129   128    1
   147   116   113    1
   148   128   125    1
   149   105   112   am
   150   105   106    2
   151   112   113    1
   152   113   114    1
   153   125   124    1
   154   125   126    1
   155   114   115    2
   156   126   127    2
