@<TRIPOS>MOLECULE
tmp/2y5lE00.pdb
 122 117 0 0 0
SMALL
GASTEIGER

@<TRIPOS>ATOM
      1  N         -8.0210   58.5360   54.0320 N.3     9  VAL9       -0.1231
      2  CA        -7.2460   57.4620   54.6110 C.3     9  VAL9        0.1692
      3  C         -6.4550   57.9470   55.8390 C.2     9  VAL9        0.2591
      4  O         -6.3710   57.2410   56.8500 O.2     9  VAL9       -0.2718
      5  CB        -6.4250   56.7840   53.4700 C.3     9  VAL9        0.0266
      6  CG1       -5.0630   56.3630   53.8690 C.3     9  VAL9        0.0020
      7  CG2       -7.2120   55.6320   52.9100 C.3     9  VAL9        0.0020
      8  N         -5.9360   59.1720   55.7670 N.am   10  MET10      -0.1979
      9  CA        -5.2050   59.7730   56.8820 C.3    10  MET10       0.1605
     10  C         -6.1080   60.1010   58.0470 C.2    10  MET10       0.2287
     11  O         -5.7100   59.9400   59.1990 O.2    10  MET10      -0.2864
     12  CB        -4.5050   61.0500   56.4590 C.3    10  MET10       0.0413
     13  CG        -3.1780   60.8350   55.7740 C.3    10  MET10       0.0598
     14  SD        -2.6110   62.4540   55.2560 S.3    10  MET10      -0.1393
     15  CE        -1.0270   62.0260   54.5600 C.3    10  MET10       0.0692
     16  N         -9.0430   58.5070   58.7450 N.3    12  GLU12      -0.1231
     17  CA        -9.3160   57.1630   59.2830 C.3    12  GLU12       0.1699
     18  C         -8.1380   56.5520   60.0660 C.2    12  GLU12       0.2593
     19  O         -8.3350   55.9670   61.1260 O.2    12  GLU12      -0.2718
     20  CB        -9.7800   56.2050   58.1700 C.3    12  GLU12       0.0402
     21  CG       -11.1020   56.5880   57.5180 C.3    12  GLU12       0.1161
     22  CD       -12.2650   56.6460   58.5030 C.2    12  GLU12       0.3649
     23  OE1      -12.7180   55.5760   58.9660 O.co2  12  GLU12      -0.2457
     24  OE2      -12.7410   57.7610   58.8050 O.co2  12  GLU12      -0.2457
     25  N         -6.9230   56.7000   59.5470 N.am   13  GLY13      -0.1942
     26  CA        -5.7260   56.2530   60.2500 C.3    13  GLY13       0.2014
     27  C         -5.5360   56.9130   61.6090 C.2    13  GLY13       0.2638
     28  O         -5.1310   56.2640   62.5680 O.2    13  GLY13      -0.2714
     29  N         -5.8530   58.2010   61.7000 N.am   14  ARG14      -0.1977
     30  CA        -5.6340   58.9520   62.9320 C.3    14  ARG14       0.1597
     31  C         -6.7220   58.7150   63.9680 C.2    14  ARG14       0.2287
     32  O         -6.4640   58.8270   65.1650 O.2    14  ARG14      -0.2864
     33  CB        -5.4720   60.4490   62.6530 C.3    14  ARG14       0.0334
     34  CG        -4.1260   60.8230   62.0310 C.3    14  ARG14       0.0492
     35  CD        -3.9180   62.3410   61.9780 C.3    14  ARG14       0.2205
     36  NE        -3.6770   62.9170   63.3050 N.pl3  14  ARG14      -0.0865
     37  CZ        -4.1970   64.0640   63.7460 C.cat  14  ARG14       0.5346
     38  NH1       -5.0100   64.7840   62.9810 N.pl3  14  ARG14       0.1354
     39  NH2       -3.9160   64.4860   64.9700 N.pl3  14  ARG14       0.1354
     40  N         -8.1980   55.7030   64.2990 N.3    16  ALA16      -0.1231
     41  CA        -7.8510   54.3620   64.7850 C.3    16  ALA16       0.1694
     42  C         -6.4950   54.3030   65.4840 C.2    16  ALA16       0.2592
     43  O         -6.1350   53.2760   66.0570 O.2    16  ALA16      -0.2718
     44  CB        -7.8900   53.3580   63.6350 C.3    16  ALA16       0.0304
     45  N         -5.7400   55.3980   65.4210 N.am   17  ARG17      -0.1966
     46  CA        -4.4080   55.4830   66.0470 C.3    17  ARG17       0.1729
     47  C         -3.4440   54.4000   65.5540 C.2    17  ARG17       0.2617
     48  O         -2.5610   53.9550   66.2970 O.2    17  ARG17      -0.2715
     49  CB        -4.5110   55.4510   67.5840 C.3    17  ARG17       0.0348
     50  CG        -5.4520   56.4930   68.1900 C.3    17  ARG17       0.0492
     51  CD        -5.9760   56.0350   69.5490 C.3    17  ARG17       0.2205
     52  NE        -6.9750   56.9520   70.1010 N.pl3  17  ARG17      -0.0865
     53  CZ        -6.7330   57.8650   71.0410 C.cat  17  ARG17       0.5346
     54  NH1       -5.5150   58.0010   71.5590 N.pl3  17  ARG17       0.1354
     55  NH2       -7.7160   58.6450   71.4700 N.pl3  17  ARG17       0.1354
     56  N         -3.6080   53.9810   64.3000 N.am   18  GLY18      -0.1940
     57  CA        -2.7470   52.9450   63.7080 C.3    18  GLY18       0.2014
     58  C         -1.3710   53.5020   63.4460 C.2    18  GLY18       0.2640
     59  O         -1.1710   54.7120   63.5980 O.2    18  GLY18      -0.2714
     60  N         -0.4330   52.6490   63.0250 N.am   19  THR19      -0.1936
     61  CA         0.9650   53.0860   62.8380 C.3    19  THR19       0.2028
     62  C          1.2150   53.9030   61.5600 C.2    19  THR19       0.2643
     63  O          2.1880   54.6460   61.4950 O.2    19  THR19      -0.2714
     64  CB         1.9960   51.9140   62.8650 C.3    19  THR19       0.1808
     65  OG1        1.8810   51.1280   61.6660 O.3    19  THR19      -0.2208
     66  CG2        1.8200   51.0150   64.1160 C.3    19  THR19       0.0379
     67  N          0.3670   53.7420   60.5420 N.am   20  GLY20      -0.1939
     68  CA         0.5880   54.4060   59.2410 C.3    20  GLY20       0.2014
     69  C          0.7720   53.4640   58.0550 C.2    20  GLY20       0.2639
     70  O          0.6030   53.8580   56.9020 O.2    20  GLY20      -0.2714
     71  N          1.1080   52.2140   58.3480 N.am   21  GLU21      -0.1963
     72  CA         1.3690   51.1900   57.3400 C.3    21  GLU21       0.1733
     73  C          0.2460   51.0210   56.3050 C.2    21  GLU21       0.2616
     74  O          0.4990   51.0440   55.1010 O.2    21  GLU21      -0.2715
     75  CB         1.6200   49.8780   58.0500 C.3    21  GLU21       0.0429
     76  CG         2.4050   48.9090   57.2530 C.3    21  GLU21       0.1163
     77  CD         3.6040   48.4130   58.0170 C.2    21  GLU21       0.3649
     78  OE1        4.4300   49.2590   58.4300 O.co2  21  GLU21      -0.2457
     79  OE2        3.7170   47.1890   58.2060 O.co2  21  GLU21      -0.2457
     80  N         -0.9870   50.8590   56.7690 N.am   22  LEU22      -0.1963
     81  CA        -2.1140   50.7090   55.8410 C.3    22  LEU22       0.1728
     82  C         -2.3190   51.9540   54.9520 C.2    22  LEU22       0.2616
     83  O         -2.5820   51.8120   53.7440 O.2    22  LEU22      -0.2715
     84  CB        -3.4080   50.3570   56.5870 C.3    22  LEU22       0.0311
     85  CG        -4.6490   50.1180   55.7140 C.3    22  LEU22       0.0022
     86  CD1       -4.3630   49.0370   54.6750 C.3    22  LEU22       0.0001
     87  CD2       -5.8450   49.7270   56.5790 C.3    22  LEU22       0.0001
     88  N         -2.2120   53.1430   55.5580 N.am   23  THR23      -0.1951
     89  CA        -2.2660   54.4380   54.8530 C.3    23  THR23       0.1897
     90  C         -1.1970   54.5150   53.7750 C.2    23  THR23       0.2313
     91  O         -1.4980   54.8470   52.6230 O.2    23  THR23      -0.2863
     92  CB        -2.1240   55.6460   55.8230 C.3    23  THR23       0.1794
     93  OG1       -3.3710   55.8720   56.4840 O.3    23  THR23      -0.2208
     94  CG2       -1.8210   56.9150   55.0880 C.3    23  THR23       0.0378
     95  N         -2.1190   52.1350   50.9400 N.3    26  LEU26      -0.1245
     96  CA        -3.2130   52.5930   50.0940 C.3    26  LEU26       0.1561
     97  C         -2.7800   53.7560   49.1820 C.2    26  LEU26       0.2260
     98  O         -3.1920   53.8370   48.0250 O.2    26  LEU26      -0.2867
     99  CB        -4.4190   52.9600   50.9430 C.3    26  LEU26       0.0270
    100  CG        -5.1950   51.7610   51.4730 C.3    26  LEU26       0.0019
    101  CD1       -6.2470   52.2270   52.4550 C.3    26  LEU26       0.0001
    102  CD2       -5.8440   50.9900   50.3260 C.3    26  LEU26       0.0001
    103  N          1.5380   43.4660   55.7170 N.3    97  TYR97      -0.1241
    104  CA         0.3610   43.2620   54.8820 C.3    97  TYR97       0.1605
    105  C          0.5810   42.3570   53.6910 C.2    97  TYR97       0.2264
    106  O          1.6870   42.2610   53.1620 O.2    97  TYR97      -0.2867
    107  CB        -0.2660   44.5910   54.4660 C.3    97  TYR97       0.0534
    108  CG        -0.9610   45.2940   55.6020 C.ar   97  TYR97      -0.0201
    109  CD1       -2.1320   44.7830   56.1470 C.ar   97  TYR97      -0.0009
    110  CD2       -0.4620   46.4830   56.1190 C.ar   97  TYR97      -0.0009
    111  CE1       -2.7870   45.4320   57.2020 C.ar   97  TYR97       0.0417
    112  CE2       -1.1110   47.1460   57.1690 C.ar   97  TYR97       0.0417
    113  CZ        -2.2700   46.6140   57.7040 C.ar   97  TYR97       0.1957
    114  OH        -2.9120   47.2500   58.7390 O.3    97  TYR97      -0.2866
    115  N        -13.7630   49.4010   53.5130 N.3   161  MET161     -0.1245
    116  CA       -13.1440   48.9820   54.7670 C.3   161  MET161      0.1570
    117  C        -14.2860   48.6900   55.7310 C.2   161  MET161      0.2261
    118  O        -15.4530   48.7580   55.3350 O.2   161  MET161     -0.2867
    119  CB       -12.2150   50.0660   55.3170 C.3   161  MET161      0.0387
    120  CG       -11.0110   50.3870   54.4280 C.3   161  MET161      0.0595
    121  SD        -9.8130   51.5660   55.1190 S.3   161  MET161     -0.1393
    122  CE       -10.7640   53.0850   55.0260 C.3   161  MET161      0.0692
@<TRIPOS>BOND
     1    98    97    2
     2    97    96    1
     3    96    95    1
     4    96    99    1
     5   102   100    1
     6    99   100    1
     7   100   101    1
     8    91    90    2
     9     7     5    1
    10   106   105    2
    11     5     6    1
    12     5     2    1
    13   115   116    1
    14   105   104    1
    15    83    82    2
    16    90    89    1
    17     1     2    1
    18   120   121    1
    19   120   119    1
    20   107   104    1
    21   107   108    1
    22    15    14    1
    23     2     3    1
    24    86    85    1
    25   116   119    1
    26   116   117    1
    27    89    88    1
    28    89    92    1
    29   104   103    1
    30    82    88   am
    31    82    81    1
    32   122   121    1
    33    94    92    1
    34    74    73    2
    35    14    13    1
    36   118   117    2
    37   108   110   ar
    38   108   109   ar
    39    85    87    1
    40    85    84    1
    41     8     3   am
    42     8     9    1
    43    13    12    1
    44    92    93    1
    45     3     4    2
    46    81    84    1
    47    81    80    1
    48   110   112   ar
    49   109   111   ar
    50    73    80   am
    51    73    72    1
    52    12     9    1
    53     9    10    1
    54    70    69    2
    55   112   113   ar
    56   111   113   ar
    57    76    77    1
    58    76    75    1
    59    72    75    1
    60    72    71    1
    61    21    20    1
    62    21    22    1
    63   113   114    1
    64    77    79   ar
    65    77    78   ar
    66    10    11    2
    67    69    71   am
    68    69    68    1
    69    20    17    1
    70    22    24   ar
    71    22    23   ar
    72    16    17    1
    73    68    67    1
    74    17    18    1
    75    25    18   am
    76    25    26    1
    77    18    19    2
    78    26    27    1
    79    67    62   am
    80    63    62    2
    81    62    61    1
    82    27    29   am
    83    27    28    2
    84    65    64    1
    85    29    30    1
    86    35    34    1
    87    35    36    1
    88    34    33    1
    89    33    30    1
    90    61    64    1
    91    61    60    1
    92    64    66    1
    93    30    31    1
    94    38    37    1
    95    60    58   am
    96    36    37    2
    97    58    59    2
    98    58    57    1
    99    44    41    1
   100    57    56    1
   101    37    39    1
   102    31    32    2
   103    40    41    1
   104    56    47   am
   105    41    42    1
   106    45    42   am
   107    45    46    1
   108    42    43    2
   109    47    46    1
   110    47    48    2
   111    46    49    1
   112    49    50    1
   113    50    51    1
   114    51    52    1
   115    52    53    2
   116    53    55    1
   117    53    54    1
