@<TRIPOS>MOLECULE
tmp/2y5nB01.pdb
 193 183 0 0 0
SMALL
GASTEIGER

@<TRIPOS>ATOM
      1  N        -55.3420  -24.8400   66.5750 N.3    78  ARG78      -0.1245
      2  CA       -54.4020  -25.1200   67.6870 C.3    78  ARG78       0.1563
      3  C        -55.0110  -24.6330   69.0010 C.2    78  ARG78       0.2260
      4  O        -55.7700  -23.6610   68.9890 O.2    78  ARG78      -0.2867
      5  CB       -53.0510  -24.4460   67.4170 C.3    78  ARG78       0.0307
      6  CG       -52.3080  -24.9940   66.2110 C.3    78  ARG78       0.0489
      7  CD       -50.9710  -24.2820   66.0120 C.3    78  ARG78       0.2205
      8  NE       -50.1300  -24.4230   67.2030 N.pl3  78  ARG78      -0.0865
      9  CZ       -49.0640  -25.2030   67.2820 C.cat  78  ARG78       0.5346
     10  NH1      -48.6520  -25.8680   66.2200 N.pl3  78  ARG78       0.1354
     11  NH2      -48.3830  -25.2740   68.4390 N.pl3  78  ARG78       0.1354
     12  N        -54.0000  -23.0110   71.5380 N.3    80  GLU80      -0.1231
     13  CA       -53.7740  -21.6340   71.9910 C.3    80  GLU80       0.1699
     14  C        -54.2410  -20.5830   70.9700 C.2    80  GLU80       0.2592
     15  O        -54.2050  -20.7890   69.7570 O.2    80  GLU80      -0.2718
     16  CB       -52.2930  -21.4160   72.3530 C.3    80  GLU80       0.0402
     17  CG       -51.3300  -21.2000   71.1270 C.3    80  GLU80       0.1161
     18  CD       -50.9930  -22.4730   70.3110 C.2    80  GLU80       0.3649
     19  OE1      -51.2750  -23.6470   70.6940 O.co2  80  GLU80      -0.2457
     20  OE2      -50.3960  -22.2600   69.2270 O.co2  80  GLU80      -0.2457
     21  N        -54.6460  -19.4320   71.4600 N.am   81  MET81      -0.1965
     22  CA       -54.8390  -18.3030   70.5300 C.3    81  MET81       0.1736
     23  C        -53.6290  -17.4080   70.5140 C.2    81  MET81       0.2616
     24  O        -53.0930  -17.0920   71.5780 O.2    81  MET81      -0.2715
     25  CB       -56.0510  -17.4840   70.9450 C.3    81  MET81       0.0427
     26  CG       -57.2350  -17.9590   70.2260 C.3    81  MET81       0.0599
     27  SD       -58.6190  -17.0170   70.7440 S.3    81  MET81      -0.1393
     28  CE       -58.7720  -17.6140   72.4610 C.3    81  MET81       0.0692
     29  N        -53.1610  -17.0280   69.3360 N.am   82  VAL82      -0.1963
     30  CA       -52.2280  -15.8980   69.2360 C.3    82  VAL82       0.1727
     31  C        -53.0750  -14.6800   68.8700 C.2    82  VAL82       0.2616
     32  O        -53.9170  -14.7250   67.9490 O.2    82  VAL82      -0.2715
     33  CB       -51.1230  -16.1830   68.1940 C.3    82  VAL82       0.0290
     34  CG1      -49.9670  -15.1090   68.2950 C.3    82  VAL82       0.0023
     35  CG2      -50.5860  -17.6360   68.3810 C.3    82  VAL82       0.0023
     36  N        -52.9610  -13.6320   69.6690 N.am   83  LYS83      -0.1963
     37  CA       -53.8470  -12.4620   69.5460 C.3    83  LYS83       0.1728
     38  C        -52.9440  -11.2630   69.2210 C.2    83  LYS83       0.2617
     39  O        -51.7340  -11.3160   69.4840 O.2    83  LYS83      -0.2715
     40  CB       -54.5490  -12.2210   70.8830 C.3    83  LYS83       0.0311
     41  CG       -55.6390  -13.2250   71.2640 C.3    83  LYS83       0.0038
     42  CD       -56.2640  -12.7980   72.6000 C.3    83  LYS83       0.0206
     43  CE       -57.1530  -13.8790   73.2500 C.3    83  LYS83       0.1093
     44  NZ       -56.5250  -15.1190   74.0380 N.3    83  LYS83      -0.1314
     45  N        -53.5020  -10.2310   68.5860 N.am   84  GLY84      -0.1940
     46  CA       -52.8360   -8.9330   68.5000 C.3    84  GLY84       0.2014
     47  C        -52.2100   -8.7240   67.1470 C.2    84  GLY84       0.2639
     48  O        -52.4420   -9.5120   66.2020 O.2    84  GLY84      -0.2714
     49  N        -51.4380   -7.6410   67.0510 N.am   85  GLY85      -0.1939
     50  CA       -50.7840   -7.2430   65.8270 C.3    85  GLY85       0.2014
     51  C        -51.7720   -6.5510   64.8790 C.2    85  GLY85       0.2639
     52  O        -52.9630   -6.3130   65.2070 O.2    85  GLY85      -0.2714
     53  N        -51.2980   -6.3440   63.6550 N.am   86  LEU86      -0.1963
     54  CA       -52.0640   -5.6100   62.6910 C.3    86  LEU86       0.1728
     55  C        -53.2950   -6.3870   62.3500 C.2    86  LEU86       0.2616
     56  O        -54.3400   -5.7670   62.0840 O.2    86  LEU86      -0.2715
     57  CB       -51.3050   -5.3650   61.4080 C.3    86  LEU86       0.0311
     58  CG       -50.4300   -4.1650   61.2560 C.3    86  LEU86       0.0022
     59  CD1      -49.6940   -4.3380   59.8650 C.3    86  LEU86       0.0001
     60  CD2      -51.3360   -2.9120   61.3140 C.3    86  LEU86       0.0001
     61  N        -53.1810   -7.7310   62.3230 N.am   87  LEU87      -0.1977
     62  CA       -54.2900   -8.5430   61.8660 C.3    87  LEU87       0.1596
     63  C        -55.4230   -8.6360   62.9110 C.2    87  LEU87       0.2287
     64  O        -56.4440   -9.2050   62.6150 O.2    87  LEU87      -0.2864
     65  CB       -53.7880   -9.9430   61.4030 C.3    87  LEU87       0.0297
     66  CG       -54.6010  -10.7230   60.4170 C.3    87  LEU87       0.0022
     67  CD1      -55.5260   -9.9460   59.3510 C.3    87  LEU87       0.0001
     68  CD2      -53.6680  -11.8000   59.7520 C.3    87  LEU87       0.0001
     69  N        -37.7650  -19.9660   66.9660 N.3   170  ALA170     -0.1231
     70  CA       -38.5840  -20.3720   68.1160 C.3   170  ALA170      0.1694
     71  C        -40.0550  -20.0140   67.9710 C.2   170  ALA170      0.2592
     72  O        -40.8860  -20.5490   68.7120 O.2   170  ALA170     -0.2718
     73  CB       -37.9980  -19.7700   69.4730 C.3   170  ALA170      0.0304
     74  N        -40.3870  -19.1720   67.0100 N.am  171  PHE171     -0.1962
     75  CA       -41.7670  -18.7200   66.7960 C.3   171  PHE171      0.1771
     76  C        -42.4270  -19.4700   65.6460 C.2   171  PHE171      0.2619
     77  O        -43.6150  -19.2360   65.3680 O.2   171  PHE171     -0.2715
     78  CB       -41.8350  -17.2130   66.5300 C.3   171  PHE171      0.0574
     79  CG       -40.9720  -16.3520   67.4530 C.ar  171  PHE171     -0.0200
     80  CD1      -40.8750  -16.6030   68.8220 C.ar  171  PHE171     -0.0042
     81  CD2      -40.2800  -15.2400   66.9360 C.ar  171  PHE171     -0.0042
     82  CE1      -40.0850  -15.7380   69.6620 C.ar  171  PHE171     -0.0003
     83  CE2      -39.4930  -14.3700   67.7500 C.ar  171  PHE171     -0.0003
     84  CZ       -39.3790  -14.6440   69.0990 C.ar  171  PHE171     -0.0000
     85  N        -41.6920  -20.3770   64.9770 N.am  172  LEU172     -0.1963
     86  CA       -42.2920  -21.2250   63.8980 C.3   172  LEU172      0.1728
     87  C        -43.2620  -22.2410   64.5220 C.2   172  LEU172      0.2616
     88  O        -43.0070  -22.7440   65.6370 O.2   172  LEU172     -0.2715
     89  CB       -41.2080  -21.9580   63.1170 C.3   172  LEU172      0.0311
     90  CG       -40.2140  -21.0940   62.3530 C.3   172  LEU172      0.0022
     91  CD1      -39.1880  -22.0460   61.6670 C.3   172  LEU172      0.0001
     92  CD2      -40.9420  -20.2330   61.3210 C.3   172  LEU172      0.0001
     93  N        -44.3630  -22.5340   63.8410 N.am  173  SER173     -0.1950
     94  CA       -45.3820  -23.4440   64.3890 C.3   173  SER173      0.1924
     95  C        -44.8390  -24.8620   64.4680 C.2   173  SER173      0.2314
     96  O        -45.4050  -25.7040   65.1790 O.2   173  SER173     -0.2863
     97  CB       -46.6810  -23.4420   63.5520 C.3   173  SER173      0.2116
     98  OG       -46.4390  -23.9670   62.2340 O.3   173  SER173     -0.2180
     99  N        -41.7250  -25.4440   65.6580 N.3   175  ALA175     -0.1245
    100  CA       -40.5540  -25.4680   66.5910 C.3   175  ALA175      0.1562
    101  C        -40.8050  -26.4360   67.7330 C.2   175  ALA175      0.2260
    102  O        -41.9490  -26.5730   68.1870 O.2   175  ALA175     -0.2867
    103  CB       -40.2570  -24.0630   67.1110 C.3   175  ALA175      0.0290
    104  N        -39.9840  -26.3990   71.2790 N.3   177  VAL177     -0.1231
    105  CA       -39.3570  -25.4410   72.2200 C.3   177  VAL177      0.1692
    106  C        -40.2610  -25.3430   73.4070 C.2   177  VAL177      0.2593
    107  O        -41.4640  -25.5990   73.2720 O.2   177  VAL177     -0.2718
    108  CB       -39.1310  -23.9990   71.6360 C.3   177  VAL177      0.0266
    109  CG1      -37.9550  -24.0060   70.6630 C.3   177  VAL177      0.0020
    110  CG2      -40.4370  -23.4240   71.0110 C.3   177  VAL177      0.0020
    111  N        -39.6850  -24.9720   74.5700 N.am  178  THR178     -0.1939
    112  CA       -40.4470  -24.8520   75.7890 C.3   178  THR178      0.2028
    113  C        -40.9240  -23.4350   75.7800 C.2   178  THR178      0.2642
    114  O        -40.4160  -22.5790   75.0110 O.2   178  THR178     -0.2714
    115  CB       -39.5860  -25.0550   77.0600 C.3   178  THR178      0.1808
    116  OG1      -38.5370  -24.0900   77.0510 O.3   178  THR178     -0.2208
    117  CG2      -38.9570  -26.4440   77.0620 C.3   178  THR178      0.0379
    118  N        -41.8840  -23.1630   76.6550 N.am  179  ALA179     -0.1977
    119  CA       -42.4340  -21.8220   76.7260 C.3   179  ALA179      0.1597
    120  C        -41.3650  -20.8480   77.2780 C.2   179  ALA179      0.2287
    121  O        -41.3420  -19.6810   76.9260 O.2   179  ALA179     -0.2864
    122  CB       -43.7030  -21.8070   77.5730 C.3   179  ALA179      0.0319
    123  N        -39.2080  -19.9580   74.3720 N.3   182  MET182     -0.1245
    124  CA       -39.8510  -19.0610   73.4410 C.3   182  MET182      0.1570
    125  C        -39.9260  -17.6310   73.9900 C.2   182  MET182      0.2261
    126  O        -39.6570  -16.6350   73.2430 O.2   182  MET182     -0.2867
    127  CB       -41.2310  -19.6180   73.0820 C.3   182  MET182      0.0387
    128  CG       -41.6960  -19.1910   71.7470 C.3   182  MET182      0.0595
    129  SD       -43.2420  -20.0510   71.3870 S.3   182  MET182     -0.1393
    130  CE       -44.3950  -19.0370   72.3290 C.3   182  MET182      0.0692
    131  N        -38.1350  -14.0950   72.4120 N.3   186  ALA186     -0.1245
    132  CA       -38.9180  -12.8490   72.2750 C.3   186  ALA186      0.1562
    133  C        -38.2470  -11.6860   72.9950 C.2   186  ALA186      0.2260
    134  O        -38.1060  -10.6040   72.4080 O.2   186  ALA186     -0.2867
    135  CB       -40.3740  -13.0590   72.8090 C.3   186  ALA186      0.0290
    136  N        -43.1650   -7.6880   64.3760 N.3   233  GLY233     -0.1225
    137  CA       -44.3160   -8.1710   63.6040 C.3   233  GLY233      0.1811
    138  C        -43.9460   -8.5180   62.1690 C.2   233  GLY233      0.2280
    139  O        -44.3770   -9.5770   61.6550 O.2   233  GLY233     -0.2866
    140  N        -41.8300  -11.8270   62.0780 N.3   236  VAL236     -0.1231
    141  CA       -42.7010  -12.9860   62.2490 C.3   236  VAL236      0.1692
    142  C        -43.7130  -13.2280   61.1030 C.2   236  VAL236      0.2591
    143  O        -43.8430  -14.3500   60.5930 O.2   236  VAL236     -0.2718
    144  CB       -43.3620  -12.9480   63.6330 C.3   236  VAL236      0.0266
    145  CG1      -44.2500  -14.1580   63.8220 C.3   236  VAL236      0.0020
    146  CG2      -42.2780  -12.9650   64.6950 C.3   236  VAL236      0.0020
    147  N        -44.4050  -12.1970   60.6670 N.am  237  ALA237     -0.1980
    148  CA       -45.3220  -12.3780   59.5210 C.3   237  ALA237      0.1597
    149  C        -44.6270  -12.8420   58.2230 C.2   237  ALA237      0.2287
    150  O        -45.1960  -13.5570   57.3950 O.2   237  ALA237     -0.2864
    151  CB       -46.1140  -11.0650   59.2840 C.3   237  ALA237      0.0319
    152  N        -42.4200  -17.5950   58.5460 N.3   240  GLU240     -0.1231
    153  CA       -42.9580  -18.9380   58.3310 C.3   240  GLU240      0.1699
    154  C        -43.6710  -19.1040   56.9810 C.2   240  GLU240      0.2592
    155  O        -43.4860  -20.1260   56.3010 O.2   240  GLU240     -0.2718
    156  CB       -43.8810  -19.3320   59.4890 C.3   240  GLU240      0.0402
    157  CG       -44.3030  -20.8090   59.3490 C.3   240  GLU240      0.1161
    158  CD       -44.9150  -21.4610   60.5820 C.2   240  GLU240      0.3649
    159  OE1      -44.9250  -20.8640   61.6960 O.co2 240  GLU240     -0.2457
    160  OE2      -45.3620  -22.6140   60.4210 O.co2 240  GLU240     -0.2457
    161  N        -44.5600  -18.1530   56.6460 N.am  241  SER241     -0.1952
    162  CA       -45.2840  -18.2040   55.3680 C.3   241  SER241      0.1924
    163  C        -44.2960  -18.3560   54.1570 C.2   241  SER241      0.2314
    164  O        -44.4520  -19.2720   53.3350 O.2   241  SER241     -0.2863
    165  CB       -46.1780  -16.9690   55.2260 C.3   241  SER241      0.2116
    166  OG       -45.3160  -15.8140   55.3780 O.3   241  SER241     -0.2180
    167  N        -57.7710  -16.5920   60.7850 N.3   289  PHE289     -0.1241
    168  CA       -58.1710  -15.1930   60.7400 C.3   289  PHE289      0.1605
    169  C        -59.6350  -15.0270   60.3610 C.2   289  PHE289      0.2264
    170  O        -59.9750  -14.3960   59.3370 O.2   289  PHE289     -0.2867
    171  CB       -57.2270  -14.3630   59.8680 C.3   289  PHE289      0.0534
    172  CG       -55.7820  -14.5270   60.2500 C.ar  289  PHE289     -0.0203
    173  CD1      -55.3220  -14.0250   61.4500 C.ar  289  PHE289     -0.0042
    174  CD2      -54.8800  -15.2300   59.4190 C.ar  289  PHE289     -0.0042
    175  CE1      -53.9820  -14.1920   61.8420 C.ar  289  PHE289     -0.0003
    176  CE2      -53.5310  -15.4070   59.8110 C.ar  289  PHE289     -0.0003
    177  CZ       -53.0920  -14.8680   61.0260 C.ar  289  PHE289     -0.0000
    178  N        -51.0820  -25.1200   61.0460 N.3   389  LEU389     -0.1231
    179  CA       -51.3920  -23.7790   60.5040 C.3   389  LEU389      0.1693
    180  C        -51.1950  -23.7570   59.0170 C.2   389  LEU389      0.2591
    181  O        -52.1190  -23.4420   58.2530 O.2   389  LEU389     -0.2718
    182  CB       -50.5530  -22.6800   61.1580 C.3   389  LEU389      0.0284
    183  CG       -50.8530  -22.4170   62.6500 C.3   389  LEU389      0.0019
    184  CD1      -49.9290  -21.3000   63.1330 C.3   389  LEU389      0.0001
    185  CD2      -52.3110  -22.0090   62.8570 C.3   389  LEU389      0.0001
    186  N        -49.9850  -24.0740   58.5670 N.am  390  LEU390     -0.1980
    187  CA       -49.6680  -24.1560   57.1260 C.3   390  LEU390      0.1596
    188  C        -49.2590  -25.5980   56.7980 C.2   390  LEU390      0.2287
    189  O        -48.8400  -26.3810   57.6910 O.2   390  LEU390     -0.2864
    190  CB       -48.5020  -23.2200   56.7040 C.3   390  LEU390      0.0297
    191  CG       -48.5850  -21.7520   57.1870 C.3   390  LEU390      0.0022
    192  CD1      -47.4030  -20.9760   56.5690 C.3   390  LEU390      0.0001
    193  CD2      -49.8840  -21.1470   56.7700 C.3   390  LEU390      0.0001
@<TRIPOS>BOND
     1   164   163    2
     2   163   162    1
     3   165   162    1
     4   165   166    1
     5   162   161    1
     6   155   154    2
     7   192   191    1
     8   161   154   am
     9   190   187    1
    10   190   191    1
    11   193   191    1
    12   188   187    1
    13   188   189    2
    14   154   153    1
    15   187   186    1
    16   150   149    2
    17   149   148    1
    18   181   180    2
    19   153   152    1
    20   153   156    1
    21   186   180   am
    22   180   179    1
    23   151   148    1
    24   170   169    2
    25   157   156    1
    26   157   158    1
    27    67    66    1
    28   174   176   ar
    29   174   172   ar
    30   148   147    1
    31    68    66    1
    32   176   177   ar
    33    59    58    1
    34   171   172    1
    35   171   168    1
    36   172   173   ar
    37   169   168    1
    38    66    65    1
    39   160   158   ar
    40   179   178    1
    41   179   182    1
    42   158   159   ar
    43   143   142    2
    44   147   142   am
    45   168   167    1
    46   177   175   ar
    47   142   141    1
    48   182   183    1
    49    58    60    1
    50    58    57    1
    51    92    90    1
    52    65    62    1
    53    57    54    1
    54   173   175   ar
    55   139   138    2
    56    91    90    1
    57    62    61    1
    58    62    63    1
    59   140   141    1
    60    56    55    2
    61   138   137    1
    62    98    97    1
    63   141   144    1
    64    61    55   am
    65    55    54    1
    66    90    89    1
    67    64    63    2
    68   183   185    1
    69   183   184    1
    70    54    53    1
    71    89    86    1
    72    97    94    1
    73   137   136    1
    74   144   145    1
    75   144   146    1
    76    53    51   am
    77    93    94    1
    78    93    87   am
    79    86    87    1
    80    86    85    1
    81    94    95    1
    82    95    96    2
    83    87    88    2
    84    51    52    2
    85    51    50    1
    86    85    76   am
    87    77    76    2
    88    76    75    1
    89    99   100    1
    90    50    49    1
    91     7     6    1
    92     7     8    1
    93    48    47    2
    94     6     5    1
    95    10     9    1
    96    78    75    1
    97    78    79    1
    98     1     2    1
    99   100   103    1
   100   100   101    1
   101    75    74    1
   102    81    79   ar
   103    81    83   ar
   104    69    70    1
   105    74    71   am
   106    49    47   am
   107    47    46    1
   108     8     9    2
   109     9    11    1
   110     5     2    1
   111    79    80   ar
   112     2     3    1
   113   101   102    2
   114    83    84   ar
   115    32    31    2
   116    71    70    1
   117    71    72    2
   118    70    73    1
   119    33    34    1
   120    33    35    1
   121    33    30    1
   122    46    45    1
   123    45    38   am
   124    80    82   ar
   125    31    30    1
   126    31    36   am
   127     4     3    2
   128    84    82   ar
   129    38    39    2
   130    38    37    1
   131    20    18   ar
   132    30    29    1
   133    29    23   am
   134    37    36    1
   135    37    40    1
   136    15    14    2
   137    26    27    1
   138    26    25    1
   139    18    19   ar
   140    18    17    1
   141    23    22    1
   142    23    24    2
   143    22    25    1
   144    22    21    1
   145   109   108    1
   146    27    28    1
   147    40    41    1
   148    14    21   am
   149    14    13    1
   150   110   108    1
   151    17    16    1
   152    41    42    1
   153   104   105    1
   154   129   128    1
   155   129   130    1
   156    12    13    1
   157   108   105    1
   158   128   127    1
   159    13    16    1
   160   105   106    1
   161   132   131    1
   162   132   135    1
   163   132   133    1
   164   134   133    2
   165    42    43    1
   166   127   124    1
   167   126   125    2
   168    43    44    1
   169   107   106    2
   170   106   111   am
   171   124   125    1
   172   124   123    1
   173   111   112    1
   174   114   113    2
   175   113   112    1
   176   113   118   am
   177   112   115    1
   178   118   119    1
   179   119   120    1
   180   119   122    1
   181   121   120    2
   182   116   115    1
   183   115   117    1
