@<TRIPOS>MOLECULE
tmp/2y5sB00.pdb
 171 161 0 0 0
SMALL
GASTEIGER

@<TRIPOS>ATOM
      1  N         19.7320   17.8930   -9.5030 N.3    57  THR57      -0.1203
      2  CA        19.5070   18.2320   -8.0940 C.3    57  THR57       0.1994
      3  C         20.8500   18.3960   -7.3580 C.2    57  THR57       0.2618
      4  O         21.0470   17.8400   -6.2750 O.2    57  THR57      -0.2717
      5  CB        18.6890   17.1040   -7.3870 C.3    57  THR57       0.1784
      6  OG1       19.0760   15.8450   -7.9390 O.3    57  THR57      -0.2211
      7  CG2       17.1870   17.2800   -7.5620 C.3    57  THR57       0.0376
      8  N         21.7750   19.1410   -7.9580 N.am   58  ARG58      -0.1965
      9  CA        23.0760   19.4270   -7.3470 C.3    58  ARG58       0.1714
     10  C         23.2670   20.9420   -7.2470 C.2    58  ARG58       0.2458
     11  O         22.5750   21.6980   -7.9370 O.2    58  ARG58      -0.2730
     12  CB        24.2090   18.8040   -8.1750 C.3    58  ARG58       0.0347
     13  CG        24.4360   19.4570   -9.5510 C.3    58  ARG58       0.0492
     14  CD        25.5900   18.8090  -10.3130 C.3    58  ARG58       0.2205
     15  NE        25.3220   17.4040  -10.6290 N.pl3  58  ARG58      -0.0865
     16  CZ        26.1490   16.6070  -11.3090 C.cat  58  ARG58       0.5346
     17  NH1       27.3130   17.0630  -11.7660 N.pl3  58  ARG58       0.1354
     18  NH2       25.8050   15.3420  -11.5380 N.pl3  58  ARG58       0.1354
     19  N         24.2050   21.3920   -6.3910 N.am   59  PRO59      -0.2727
     20  CA        24.5480   22.8130   -6.3500 C.3    59  PRO59       0.1402
     21  C         24.9170   23.3860   -7.7260 C.2    59  PRO59       0.2269
     22  O         25.5640   22.7070   -8.5290 O.2    59  PRO59      -0.2865
     23  CB        25.7610   22.8450   -5.4120 C.3    59  PRO59       0.0296
     24  CG        25.5550   21.6970   -4.5070 C.3    59  PRO59       0.0237
     25  CD        24.9450   20.6280   -5.3690 C.3    59  PRO59       0.0939
     26  N         14.1780   11.3020   -7.0450 N.3    90  ASP90      -0.1239
     27  CA        15.0700   12.3910   -6.6440 C.3    90  ASP90       0.1674
     28  C         14.4210   13.7160   -7.0300 C.2    90  ASP90       0.2266
     29  O         14.6040   14.2330   -8.1500 O.2    90  ASP90      -0.2867
     30  CB        16.4390   12.2160   -7.3090 C.3    90  ASP90       0.1410
     31  CG        17.4510   13.3270   -6.9470 C.2    90  ASP90       0.3668
     32  OD1       17.2840   14.0670   -5.9500 O.co2  90  ASP90      -0.2456
     33  OD2       18.4570   13.4170   -7.6700 O.co2  90  ASP90      -0.2456
     34  N         13.0270   10.9890   -2.3300 N.3   109  ASN109     -0.1240
     35  CA        14.3480   11.3410   -1.9220 C.3   109  ASN109      0.1653
     36  C         14.5280   12.8450   -2.1370 C.2   109  ASN109      0.2266
     37  O         14.6720   13.2820   -3.2780 O.2   109  ASN109     -0.2867
     38  CB        15.3450   10.5530   -2.7820 C.3   109  ASN109      0.1155
     39  CG        16.7770   10.9460   -2.5060 C.2   109  ASN109      0.2627
     40  OD1       17.0840   11.3770   -1.4160 O.2   109  ASN109     -0.2716
     41  ND2       17.6570   10.8080   -3.5030 N.am  109  ASN109     -0.0877
     42  N         16.3720   16.4590   -1.4490 N.3   111  ILE111     -0.1245
     43  CA        17.5130   17.2660   -1.0650 C.3   111  ILE111      0.1561
     44  C         17.1230   18.4290   -0.1470 C.2   111  ILE111      0.2260
     45  O         17.9500   18.8950    0.6100 O.2   111  ILE111     -0.2867
     46  CB        18.3300   17.7860   -2.2850 C.3   111  ILE111      0.0252
     47  CG1       17.4700   18.6120   -3.2380 C.3   111  ILE111      0.0019
     48  CG2       18.9680   16.5980   -3.0420 C.3   111  ILE111      0.0019
     49  CD1       18.2790   19.6320   -4.0710 C.3   111  ILE111      0.0001
     50  N         13.3650    9.9830    2.2170 N.3   131  CYS131     -0.1235
     51  CA        14.7170   10.3340    2.6350 C.3   131  CYS131      0.1677
     52  C         14.8240   11.8470    2.7730 C.2   131  CYS131      0.2270
     53  O         14.7270   12.5830    1.7870 O.2   131  CYS131     -0.2867
     54  CB        15.7600    9.8520    1.6580 C.3   131  CYS131      0.0956
     55  SG        17.4540   10.3070    2.1600 S.3   131  CYS131     -0.0801
     56  N         17.2170   14.7180    3.4160 N.3   133  MET133     -0.1245
     57  CA        18.6350   15.0490    3.3530 C.3   133  MET133      0.1570
     58  C         18.9000   16.3840    4.0150 C.2   133  MET133      0.2261
     59  O         18.0090   17.2490    4.0640 O.2   133  MET133     -0.2867
     60  CB        19.0850   15.1240    1.8950 C.3   133  MET133      0.0387
     61  CG        20.5910   15.0290    1.6830 C.3   133  MET133      0.0595
     62  SD        21.0690   15.4390   -0.0010 S.3   133  MET133     -0.1393
     63  CE        21.0840   17.2450    0.1150 C.3   133  MET133      0.0692
     64  N         19.8590   11.4540    5.4890 N.3   180  ASP180     -0.1239
     65  CA        21.0570   11.5500    4.6730 C.3   180  ASP180      0.1674
     66  C         21.7790   12.8610    5.0150 C.2   180  ASP180      0.2266
     67  O         21.1740   13.9390    4.9540 O.2   180  ASP180     -0.2867
     68  CB        20.6070   11.5270    3.2170 C.3   180  ASP180      0.1410
     69  CG        21.7340   11.6330    2.2250 C.2   180  ASP180      0.3668
     70  OD1       22.8510   12.0510    2.5650 O.co2 180  ASP180     -0.2456
     71  OD2       21.4490   11.3400    1.0400 O.co2 180  ASP180     -0.2456
     72  N         26.1770   14.8400    1.6080 N.3   183  PHE183     -0.1227
     73  CA        27.5390   15.0760    1.2140 C.3   183  PHE183      0.1736
     74  C         27.6010   16.0170    0.0020 C.2   183  PHE183      0.2596
     75  O         26.9130   15.7940   -0.9840 O.2   183  PHE183     -0.2718
     76  CB        28.2250   13.7460    0.8830 C.3   183  PHE183      0.0547
     77  CG        28.4710   12.9010    2.0710 C.ar  183  PHE183     -0.0202
     78  CD1       29.4270   13.2610    2.9900 C.ar  183  PHE183     -0.0042
     79  CD2       27.7190   11.7400    2.2960 C.ar  183  PHE183     -0.0042
     80  CE1       29.6430   12.4950    4.1240 C.ar  183  PHE183     -0.0003
     81  CE2       27.9390   10.9660    3.4170 C.ar  183  PHE183     -0.0003
     82  CZ        28.9010   11.3520    4.3360 C.ar  183  PHE183     -0.0000
     83  N         28.4180   17.0630    0.1060 N.am  184  GLY184     -0.1942
     84  CA        28.6300   18.0030   -0.9810 C.3   184  GLY184      0.2014
     85  C         27.5710   19.0940   -1.0520 C.2   184  GLY184      0.2638
     86  O         27.5620   19.8610   -2.0100 O.2   184  GLY184     -0.2714
     87  N         26.6840   19.1810   -0.0600 N.am  185  PHE185     -0.1973
     88  CA        25.6180   20.2130   -0.0760 C.3   185  PHE185      0.1639
     89  C         25.8010   21.2580    1.0360 C.2   185  PHE185      0.2290
     90  O         25.2450   21.1290    2.1450 O.2   185  PHE185     -0.2864
     91  CB        24.2480   19.5700    0.0650 C.3   185  PHE185      0.0560
     92  CG        23.7800   18.8200   -1.1500 C.ar  185  PHE185     -0.0200
     93  CD1       23.0370   19.4670   -2.1380 C.ar  185  PHE185     -0.0042
     94  CD2       24.0470   17.4540   -1.2970 C.ar  185  PHE185     -0.0042
     95  CE1       22.5700   18.7710   -3.2580 C.ar  185  PHE185     -0.0003
     96  CE2       23.5950   16.7510   -2.4080 C.ar  185  PHE185     -0.0003
     97  CZ        22.8510   17.4090   -3.3900 C.ar  185  PHE185     -0.0000
     98  N         20.9870    6.9030    4.4700 N.3   216  LEU216     -0.1245
     99  CA        21.3500    6.8640    3.0650 C.3   216  LEU216      0.1561
    100  C         22.5180    7.8220    2.8580 C.2   216  LEU216      0.2260
    101  O         22.4580    8.9710    3.2970 O.2   216  LEU216     -0.2867
    102  CB        20.1570    7.2770    2.2120 C.3   216  LEU216      0.0270
    103  CG        20.2650    7.1060    0.6790 C.3   216  LEU216      0.0019
    104  CD1       18.8360    6.9600    0.1050 C.3   216  LEU216      0.0001
    105  CD2       20.9870    8.2640    0.0020 C.3   216  LEU216      0.0001
    106  N         25.2850    9.3290   -0.0790 N.3   218  GLY218     -0.1225
    107  CA        25.5890    9.5040   -1.4890 C.3   218  GLY218      0.1811
    108  C         26.8570   10.3190   -1.6780 C.2   218  GLY218      0.2280
    109  O         26.8460   11.5350   -1.4940 O.2   218  GLY218     -0.2866
    110  N         29.0180    9.3590   -4.5370 N.3   220  SER220     -0.1202
    111  CA        29.5020    8.8420   -5.8130 C.3   220  SER220      0.2020
    112  C         29.9450    9.9450   -6.7800 C.2   220  SER220      0.2619
    113  O         29.1630   10.8240   -7.1230 O.2   220  SER220     -0.2717
    114  CB        28.4260    7.9660   -6.4480 C.3   220  SER220      0.2103
    115  OG        28.8390    7.4520   -7.7110 O.3   220  SER220     -0.2182
    116  N         31.2050    9.8670   -7.2080 N.am  221  ARG221     -0.1965
    117  CA        31.8120   10.8030   -8.1520 C.3   221  ARG221      0.1729
    118  C         31.8950   12.2580   -7.6880 C.2   221  ARG221      0.2616
    119  O         32.1660   13.1390   -8.4870 O.2   221  ARG221     -0.2715
    120  CB        31.1340   10.7010   -9.5320 C.3   221  ARG221      0.0348
    121  CG        31.1590    9.2820  -10.0690 C.3   221  ARG221      0.0492
    122  CD        30.6040    9.2080  -11.4700 C.3   221  ARG221      0.2205
    123  NE        30.8690    7.9080  -12.0870 N.pl3 221  ARG221     -0.0865
    124  CZ        30.3110    7.5090  -13.2280 C.cat 221  ARG221      0.5346
    125  NH1       29.4390    8.2970  -13.8670 N.pl3 221  ARG221      0.1354
    126  NH2       30.6030    6.3110  -13.7250 N.pl3 221  ARG221      0.1354
    127  N         31.7340   12.5020   -6.3920 N.am  222  LYS222     -0.1963
    128  CA        31.5770   13.8660   -5.9100 C.3   222  LYS222      0.1728
    129  C         32.9180   14.5690   -5.6990 C.2   222  LYS222      0.2617
    130  O         33.9710   13.9340   -5.6570 O.2   222  LYS222     -0.2715
    131  CB        30.7360   13.8880   -4.6450 C.3   222  LYS222      0.0311
    132  CG        29.2390   13.6090   -4.8890 C.3   222  LYS222      0.0038
    133  CD        28.3970   13.9690   -3.6710 C.3   222  LYS222      0.0206
    134  CE        26.9040   13.7760   -3.9450 C.3   222  LYS222      0.1093
    135  NZ        26.1100   13.9420   -2.7010 N.3   222  LYS222     -0.1314
    136  N         32.8500   15.8890   -5.5780 N.am  223  SER223     -0.1936
    137  CA        34.0160   16.7430   -5.4120 C.3   223  SER223      0.2055
    138  C         34.8700   16.3880   -4.2230 C.2   223  SER223      0.2642
    139  O         36.0900   16.5280   -4.3000 O.2   223  SER223     -0.2714
    140  CB        33.5870   18.1990   -5.2890 C.3   223  SER223      0.2130
    141  OG        33.1290   18.6250   -6.5460 O.3   223  SER223     -0.2179
    142  N         34.2540   15.9270   -3.1300 N.am  224  MET224     -0.1976
    143  CA        35.0370   15.4690   -1.9670 C.3   224  MET224      0.1605
    144  C         36.0360   14.3720   -2.3400 C.2   224  MET224      0.2287
    145  O         37.0650   14.2090   -1.6840 O.2   224  MET224     -0.2864
    146  CB        34.1370   14.9860   -0.8240 C.3   224  MET224      0.0413
    147  CG        33.2730   13.7720   -1.1610 C.3   224  MET224      0.0598
    148  SD        32.1670   13.2940    0.1900 S.3   224  MET224     -0.1393
    149  CE        33.3290   12.5570    1.3400 C.3   224  MET224      0.0692
    150  N         36.6490    8.8330  -11.0290 N.3   237  ARG237     -0.1245
    151  CA        36.5160    8.7750   -9.5770 C.3   237  ARG237      0.1563
    152  C         35.8850    7.4740   -9.0990 C.2   237  ARG237      0.2260
    153  O         35.4150    7.4060   -7.9620 O.2   237  ARG237     -0.2867
    154  CB        35.6870    9.9570   -9.0760 C.3   237  ARG237      0.0307
    155  CG        36.3080   11.3130   -9.3560 C.3   237  ARG237      0.0489
    156  CD        35.4260   12.4640   -8.9340 C.3   237  ARG237      0.2205
    157  NE        36.0190   13.7490   -9.3190 N.pl3 237  ARG237     -0.0865
    158  CZ        35.4010   14.9290   -9.2600 C.cat 237  ARG237      0.5346
    159  NH1       34.1500   15.0110   -8.8460 N.pl3 237  ARG237      0.1354
    160  NH2       36.0350   16.0410   -9.6240 N.pl3 237  ARG237      0.1354
    161  N         24.1540    5.3050   -2.4270 N.3   257  ARG257     -0.1245
    162  CA        23.6310    5.7930   -3.6870 C.3   257  ARG257      0.1563
    163  C         24.7980    5.9700   -4.6310 C.2   257  ARG257      0.2260
    164  O         25.6890    6.7640   -4.3710 O.2   257  ARG257     -0.2867
    165  CB        22.9170    7.1320   -3.4600 C.3   257  ARG257      0.0307
    166  CG        22.2750    7.7530   -4.6640 C.3   257  ARG257      0.0489
    167  CD        21.4770    9.0030   -4.2370 C.3   257  ARG257      0.2205
    168  NE        20.8340    9.6140   -5.3910 N.pl3 257  ARG257     -0.0865
    169  CZ        21.4360   10.4360   -6.2480 C.cat 257  ARG257      0.5346
    170  NH1       22.7090   10.7750   -6.0810 N.pl3 257  ARG257      0.1354
    171  NH2       20.7540   10.9220   -7.2880 N.pl3 257  ARG257      0.1354
@<TRIPOS>BOND
     1   125   124    1
     2   126   124    1
     3   124   123    2
     4   123   122    1
     5    17    16    1
     6    18    16    1
     7   122   121    1
     8    16    15    2
     9   150   151    1
    10    15    14    1
    11    14    13    1
    12   121   120    1
    13   160   158    1
    14   151   152    1
    15   151   154    1
    16    13    12    1
    17   120   117    1
    18     1     2    1
    19   155   154    1
    20   155   156    1
    21   157   158    2
    22   157   156    1
    23   158   159    1
    24   152   153    2
    25    22    21    2
    26   119   118    2
    27    12     9    1
    28   117   118    1
    29   117   116    1
    30    29    28    2
    31     2     5    1
    32     2     3    1
    33     8     3   am
    34     8     9    1
    35     6     5    1
    36    11    10    2
    37    21    20    1
    38   115   114    1
    39   118   127   am
    40    33    31   ar
    41     7     5    1
    42     3     4    2
    43     9    10    1
    44    30    31    1
    45    30    27    1
    46   171   169    1
    47    10    19   am
    48   116   112   am
    49   113   112    2
    50    26    27    1
    51    28    27    1
    52    31    32   ar
    53   112   111    1
    54   141   140    1
    55   114   111    1
    56   127   128    1
    57    19    20    1
    58    19    25    1
    59    20    23    1
    60   169   170    1
    61   169   168    2
    62   128   129    1
    63   128   131    1
    64   111   110    1
    65   129   130    2
    66   129   136   am
    67   136   137    1
    68   137   140    1
    69   137   138    1
    70    23    24    1
    71   168   167    1
    72    25    24    1
    73   132   131    1
    74   132   133    1
    75   166   167    1
    76   166   165    1
    77   163   164    2
    78   163   162    1
    79   139   138    2
    80   138   142   am
    81    49    47    1
    82   134   133    1
    83   134   135    1
    84   162   165    1
    85   162   161    1
    86    41    39   am
    87    97    95   ar
    88    97    96   ar
    89    37    36    2
    90    95    93   ar
    91    47    46    1
    92   142   143    1
    93    48    46    1
    94    38    39    1
    95    38    35    1
    96    39    40    2
    97    96    94   ar
    98   144   143    1
    99   144   145    2
   100    34    35    1
   101    46    43    1
   102    93    92   ar
   103    36    35    1
   104    86    85    2
   105   143   146    1
   106   108   109    2
   107   108   107    1
   108   107   106    1
   109    42    43    1
   110    94    92   ar
   111   147   146    1
   112   147   148    1
   113    92    91    1
   114    43    44    1
   115    85    84    1
   116    85    87   am
   117    75    74    2
   118    84    83    1
   119    44    45    2
   120    88    87    1
   121    88    91    1
   122    88    89    1
   123    62    63    1
   124    62    61    1
   125   105   103    1
   126    74    83   am
   127    74    73    1
   128   104   103    1
   129   148   149    1
   130   103   102    1
   131    76    73    1
   132    76    77    1
   133    89    90    2
   134    71    69   ar
   135    73    72    1
   136    54    55    1
   137    54    51    1
   138    61    60    1
   139    53    52    2
   140    60    57    1
   141    77    79   ar
   142    77    78   ar
   143   102    99    1
   144    50    51    1
   145    69    70   ar
   146    69    68    1
   147    79    81   ar
   148    51    52    1
   149   100    99    1
   150   100   101    2
   151    78    80   ar
   152    99    98    1
   153    68    65    1
   154    57    56    1
   155    57    58    1
   156    81    82   ar
   157    58    59    2
   158    80    82   ar
   159    65    66    1
   160    65    64    1
   161    67    66    2
