@<TRIPOS>MOLECULE
tmp/2y5yA00.pdb
 124 118 0 0 0
SMALL
GASTEIGER

@<TRIPOS>ATOM
      1  N         49.9120   76.9560  164.6030 N.3    17  PHE17      -0.1241
      2  CA        51.0670   77.1920  165.4750 C.3    17  PHE17       0.1605
      3  C         50.6400   77.9330  166.7510 C.2    17  PHE17       0.2264
      4  O         51.4310   78.0900  167.6820 O.2    17  PHE17      -0.2867
      5  CB        52.1990   77.9150  164.7250 C.3    17  PHE17       0.0534
      6  CG        53.1310   77.0560  163.8870 C.ar   17  PHE17      -0.0203
      7  CD1       52.7500   75.7830  163.4670 C.ar   17  PHE17      -0.0042
      8  CD2       54.3730   77.5360  163.4850 C.ar   17  PHE17      -0.0042
      9  CE1       53.6050   75.0010  162.6810 C.ar   17  PHE17      -0.0003
     10  CE2       55.2240   76.7560  162.6890 C.ar   17  PHE17      -0.0003
     11  CZ        54.8360   75.4930  162.2960 C.ar   17  PHE17      -0.0000
     12  N         49.6930   74.7820  168.5490 N.3    20  MET20      -0.1245
     13  CA        50.9870   74.1130  168.6890 C.3    20  MET20       0.1570
     14  C         51.8030   74.8350  169.7780 C.2    20  MET20       0.2261
     15  O         52.4280   74.1780  170.6140 O.2    20  MET20      -0.2867
     16  CB        51.7310   74.1010  167.3380 C.3    20  MET20       0.0387
     17  CG        53.1420   73.5270  167.3950 C.3    20  MET20       0.0595
     18  SD        53.2260   71.7380  167.6280 S.3    20  MET20      -0.1393
     19  CE        52.8370   71.1980  166.0070 C.3    20  MET20       0.0692
     20  N         52.8000   72.0990  173.1510 N.3    24  PHE24      -0.1241
     21  CA        54.1880   71.6550  173.2380 C.3    24  PHE24       0.1605
     22  C         55.1470   72.2530  174.2780 C.2    24  PHE24       0.2264
     23  O         55.7270   71.4500  175.0170 O.2    24  PHE24      -0.2867
     24  CB        54.8400   71.5000  171.8620 C.3    24  PHE24       0.0534
     25  CG        55.9960   70.5290  171.8750 C.ar   24  PHE24      -0.0203
     26  CD1       55.7720   69.1570  171.9140 C.ar   24  PHE24      -0.0042
     27  CD2       57.3090   70.9860  171.8830 C.ar   24  PHE24      -0.0042
     28  CE1       56.8420   68.2580  171.9370 C.ar   24  PHE24      -0.0003
     29  CE2       58.3790   70.0870  171.9060 C.ar   24  PHE24      -0.0003
     30  CZ        58.1390   68.7290  171.9300 C.ar   24  PHE24      -0.0000
     31  N         51.9290   67.7610  162.2020 N.3   119  CYS119     -0.1221
     32  CA        52.6050   68.9530  161.6760 C.3   119  CYS119      0.1794
     33  C         53.4720   68.7440  160.4170 C.2   119  CYS119      0.2443
     34  O         53.2840   69.5270  159.4840 O.2   119  CYS119     -0.2733
     35  CB        53.3640   69.6960  162.7680 C.3   119  CYS119      0.0970
     36  SG        53.9500   71.3390  162.2800 S.3   119  CYS119     -0.0800
     37  N         54.3930   67.7360  160.3200 N.am  120  PRO120     -0.2729
     38  CA        55.1710   67.5790  159.0720 C.3   120  PRO120      0.1401
     39  C         54.2950   67.3470  157.8390 C.2   120  PRO120      0.2269
     40  O         54.6170   67.8670  156.7730 O.2   120  PRO120     -0.2865
     41  CB        56.0840   66.3820  159.3620 C.3   120  PRO120      0.0296
     42  CG        56.1320   66.2830  160.8450 C.3   120  PRO120      0.0237
     43  CD        54.7740   66.7010  161.3040 C.3   120  PRO120      0.0939
     44  N         52.6820   70.7280  157.0810 N.3   123  GLU123     -0.1245
     45  CA        53.7530   71.5290  156.4800 C.3   123  GLU123      0.1567
     46  C         54.0510   71.0540  155.0430 C.2   123  GLU123      0.2260
     47  O         54.4080   71.8760  154.2020 O.2   123  GLU123     -0.2867
     48  CB        55.0210   71.5070  157.3520 C.3   123  GLU123      0.0388
     49  CG        55.5710   72.8920  157.6670 C.3   123  GLU123      0.1160
     50  CD        56.7850   72.9870  158.5820 C.2   123  GLU123      0.3649
     51  OE1       57.4770   71.9620  158.7840 O.co2 123  GLU123     -0.2457
     52  OE2       57.0590   74.1040  159.0810 O.co2 123  GLU123     -0.2457
     53  N         55.8040   79.9730  155.8850 N.3   141  ARG141     -0.1245
     54  CA        56.2070   79.3050  157.1310 C.3   141  ARG141      0.1563
     55  C         56.4600   80.3470  158.2200 C.2   141  ARG141      0.2260
     56  O         56.0990   80.1190  159.3750 O.2   141  ARG141     -0.2867
     57  CB        57.4660   78.4390  156.9130 C.3   141  ARG141      0.0307
     58  CG        57.7500   77.4430  158.0380 C.3   141  ARG141      0.0489
     59  CD        59.2360   77.1850  158.2050 C.3   141  ARG141      0.2205
     60  NE        59.5150   76.3190  159.3530 N.pl3 141  ARG141     -0.0865
     61  CZ        60.7160   76.1530  159.8980 C.cat 141  ARG141      0.5346
     62  NH1       61.5530   77.1790  160.0020 N.pl3 141  ARG141      0.1354
     63  NH2       61.0880   74.9640  160.3500 N.pl3 141  ARG141      0.1354
     64  N         55.3400   81.2430  162.4370 N.3   145  ALA145     -0.1245
     65  CA        56.3800   81.3930  163.4690 C.3   145  ALA145      0.1562
     66  C         56.0400   82.4620  164.5120 C.2   145  ALA145      0.2260
     67  O         56.4280   82.3220  165.6750 O.2   145  ALA145     -0.2867
     68  CB        57.7210   81.6960  162.8240 C.3   145  ALA145      0.0290
     69  N         53.4330   80.9870  166.9980 N.3   148  TRP148     -0.1241
     70  CA        54.1170   80.1520  167.9840 C.3   148  TRP148      0.1605
     71  C         54.6620   81.0770  169.0780 C.2   148  TRP148      0.2264
     72  O         54.5030   80.7830  170.2620 O.2   148  TRP148     -0.2867
     73  CB        55.2460   79.3590  167.2910 C.3   148  TRP148      0.0550
     74  CG        56.3030   78.7740  168.1900 C.ar  148  TRP148      0.0003
     75  CD1       57.4870   79.3530  168.5420 C.ar  148  TRP148      0.0946
     76  CD2       56.3320   77.4440  168.7270 C.ar  148  TRP148      0.0152
     77  NE1       58.2290   78.4860  169.3110 N.ar  148  TRP148     -0.2442
     78  CE2       57.5440   77.3060  169.4400 C.ar  148  TRP148      0.0810
     79  CE3       55.4360   76.3600  168.7010 C.ar  148  TRP148      0.0012
     80  CZ2       57.8830   76.1290  170.1210 C.ar  148  TRP148      0.0191
     81  CZ3       55.7700   75.1990  169.3820 C.ar  148  TRP148      0.0001
     82  CH2       56.9800   75.0900  170.0790 C.ar  148  TRP148      0.0015
     83  N         62.6200   82.3230  169.2590 N.3   252  GLU252     -0.1245
     84  CA        62.0710   82.1080  167.9200 C.3   252  GLU252      0.1567
     85  C         62.5100   83.2210  166.9800 C.2   252  GLU252      0.2260
     86  O         62.8740   82.9370  165.8390 O.2   252  GLU252     -0.2867
     87  CB        60.5370   81.9850  167.9550 C.3   252  GLU252      0.0388
     88  CG        59.9430   81.3290  166.7130 C.3   252  GLU252      0.1160
     89  CD        60.4870   79.9550  166.3510 C.2   252  GLU252      0.3649
     90  OE1       60.6610   79.1190  167.2680 O.co2 252  GLU252     -0.2457
     91  OE2       60.7490   79.7210  165.1490 O.co2 252  GLU252     -0.2457
     92  N         66.0720   82.5090  166.3800 N.3   255  ASN255     -0.1240
     93  CA        66.1970   81.3340  165.5110 C.3   255  ASN255      0.1653
     94  C         65.9750   81.6810  164.0400 C.2   255  ASN255      0.2266
     95  O         66.8210   81.3410  163.2120 O.2   255  ASN255     -0.2867
     96  CB        65.2550   80.2000  165.9520 C.3   255  ASN255      0.1155
     97  CG        65.4520   78.8840  165.2140 C.2   255  ASN255      0.2627
     98  OD1       66.4440   78.6570  164.4990 O.2   255  ASN255     -0.2716
     99  ND2       64.4850   77.9810  165.3280 N.am  255  ASN255     -0.0877
    100  N         69.8710   76.3550  172.4960 N.3   305  HIS305     -0.1226
    101  CA        68.9540   75.4980  171.7460 C.3   305  HIS305      0.1752
    102  C         68.5780   76.1880  170.4360 C.2   305  HIS305      0.2595
    103  O         68.3890   75.5220  169.4170 O.2   305  HIS305     -0.2718
    104  CB        67.6970   75.2350  172.5950 C.3   305  HIS305      0.0759
    105  CG        66.5920   74.5080  171.8950 C.ar  305  HIS305      0.0818
    106  ND1       66.7650   73.2270  171.4060 N.ar  305  HIS305     -0.2268
    107  CD2       65.3130   74.8910  171.6760 C.ar  305  HIS305      0.1154
    108  CE1       65.6010   72.8850  170.8810 C.ar  305  HIS305      0.1986
    109  NE2       64.6960   73.8530  171.0220 N.ar  305  HIS305     -0.2212
    110  N         68.4850   77.5290  170.4790 N.am  306  MET306     -0.1979
    111  CA        68.1420   78.3960  169.3500 C.3   306  MET306      0.1605
    112  C         69.3560   78.6340  168.4290 C.2   306  MET306      0.2287
    113  O         69.1610   78.8920  167.2400 O.2   306  MET306     -0.2864
    114  CB        67.5180   79.7250  169.8370 C.3   306  MET306      0.0413
    115  CG        66.5050   79.5680  170.9900 C.3   306  MET306      0.0598
    116  SD        65.0440   78.5480  170.6400 S.3   306  MET306     -0.1393
    117  CE        64.1970   78.6440  172.2010 C.3   306  MET306      0.0692
    118  N         69.5490   74.7250  166.4380 N.3   309  VAL309     -0.1245
    119  CA        68.5130   74.4050  165.4360 C.3   309  VAL309      0.1561
    120  C         68.8870   74.6250  163.9330 C.2   309  VAL309      0.2260
    121  O         68.7530   73.6560  163.1750 O.2   309  VAL309     -0.2867
    122  CB        67.0950   74.9130  165.8370 C.3   309  VAL309      0.0252
    123  CG1       66.1190   74.9030  164.6580 C.3   309  VAL309      0.0019
    124  CG2       66.5320   74.1120  167.0090 C.3   309  VAL309      0.0019
@<TRIPOS>BOND
     1    47    46    2
     2    46    45    1
     3    53    54    1
     4    45    44    1
     5    45    48    1
     6    40    39    2
     7    57    54    1
     8    57    58    1
     9    54    55    1
    10    48    49    1
    11    49    50    1
    12    39    38    1
    13    58    59    1
    14    59    60    1
    15    55    56    2
    16    50    51   ar
    17    50    52   ar
    18    38    41    1
    19    38    37    1
    20    60    61    2
    21    41    42    1
    22    34    33    2
    23    61    62    1
    24    61    63    1
    25    37    33   am
    26    37    43    1
    27    33    32    1
    28    42    43    1
    29    32    31    1
    30    32    35    1
    31    36    35    1
    32    11     9   ar
    33    11    10   ar
    34    64    65    1
    35     9     7   ar
    36    10     8   ar
    37    68    65    1
    38   121   120    2
    39    95    94    2
    40     7     6   ar
    41    65    66    1
    42     8     6   ar
    43     6     5    1
    44   120   119    1
    45    94    93    1
    46    98    97    2
    47    66    67    2
    48     1     2    1
    49   123   122    1
    50     5     2    1
    51    91    89   ar
    52    97    99   am
    53    97    96    1
    54   119   122    1
    55   119   118    1
    56     2     3    1
    57    93    96    1
    58    93    92    1
    59   122   124    1
    60    86    85    2
    61    19    18    1
    62    89    88    1
    63    89    90   ar
    64    88    87    1
    65     3     4    2
    66    85    84    1
    67    69    70    1
    68   113   112    2
    69    73    70    1
    70    73    74    1
    71    16    17    1
    72    16    13    1
    73    17    18    1
    74    84    87    1
    75    84    83    1
    76    70    71    1
    77    74    75   ar
    78    74    76   ar
    79   112   111    1
    80    75    77   ar
    81    12    13    1
    82    13    14    1
    83    79    76   ar
    84    79    81   ar
    85    76    78   ar
    86    71    72    2
    87    77    78   ar
    88   111   114    1
    89   111   110    1
    90    81    82   ar
    91   103   102    2
    92    78    80   ar
    93    14    15    2
    94   114   115    1
    95    82    80   ar
    96   102   110   am
    97   102   101    1
    98   116   115    1
    99   116   117    1
   100   108   109   ar
   101   108   106   ar
   102   109   107   ar
   103   106   105   ar
   104   107   105   ar
   105   101   100    1
   106   101   104    1
   107    24    25    1
   108    24    21    1
   109    25    27   ar
   110    25    26   ar
   111    27    29   ar
   112   105   104    1
   113    29    30   ar
   114    26    28   ar
   115    30    28   ar
   116    20    21    1
   117    21    22    1
   118    22    23    2
