@<TRIPOS>MOLECULE
tmp/2y5zC01.pdb
 159 149 0 0 0
SMALL
GASTEIGER

@<TRIPOS>ATOM
      1  N         31.1480   18.2040   84.8680 N.3    72  ARG72      -0.1245
      2  CA        31.9430   17.9220   86.0630 C.3    72  ARG72       0.1563
      3  C         32.9060   16.7760   85.8120 C.2    72  ARG72       0.2260
      4  O         32.6210   15.8840   85.0040 O.2    72  ARG72      -0.2867
      5  CB        31.0420   17.6300   87.2760 C.3    72  ARG72       0.0307
      6  CG        30.1630   18.8030   87.6820 C.3    72  ARG72       0.0489
      7  CD        29.4540   18.5500   89.0170 C.3    72  ARG72       0.2205
      8  NE        30.3690   18.2790   90.1390 N.pl3  72  ARG72      -0.0865
      9  CZ        30.4730   19.0140   91.2530 C.cat  72  ARG72       0.5346
     10  NH1       29.7350   20.1190   91.4380 N.pl3  72  ARG72       0.1354
     11  NH2       31.3310   18.6460   92.1980 N.pl3  72  ARG72       0.1354
     12  N         33.7980   14.1700   87.7660 N.3    74  GLU74      -0.1231
     13  CA        33.3080   12.8610   88.1750 C.3    74  GLU74       0.1699
     14  C         32.0270   12.5110   87.4060 C.2    74  GLU74       0.2592
     15  O         31.2680   13.3950   87.0120 O.2    74  GLU74      -0.2718
     16  CB        33.0680   12.7990   89.6840 C.3    74  GLU74       0.0402
     17  CG        31.8540   13.6460   90.1570 C.3    74  GLU74       0.1161
     18  CD        32.1300   15.1710   90.1130 C.2    74  GLU74       0.3649
     19  OE1       33.2820   15.6040   89.8930 O.co2  74  GLU74      -0.2457
     20  OE2       31.1770   15.9380   90.2880 O.co2  74  GLU74      -0.2457
     21  N         31.8050   11.2250   87.1650 N.am   75  MET75      -0.1965
     22  CA        30.5320   10.7870   86.5620 C.3    75  MET75       0.1736
     23  C         29.6960   10.0600   87.6090 C.2    75  MET75       0.2616
     24  O         30.1880    9.1550   88.2990 O.2    75  MET75      -0.2715
     25  CB        30.7690    9.8660   85.3390 C.3    75  MET75       0.0427
     26  CG        30.2290   10.3820   83.9730 C.3    75  MET75       0.0599
     27  SD        31.0320    9.5570   82.5300 S.3    75  MET75      -0.1393
     28  CE        29.8260    8.2400   82.2450 C.3    75  MET75       0.0692
     29  N         28.4440   10.4730   87.7380 N.am   76  VAL76      -0.1977
     30  CA        27.4710    9.7510   88.5610 C.3    76  VAL76       0.1596
     31  C         26.7450    8.7170   87.6760 C.2    76  VAL76       0.2287
     32  O         26.0020    9.1130   86.7610 O.2    76  VAL76      -0.2864
     33  CB        26.4210   10.7360   89.1530 C.3    76  VAL76       0.0276
     34  CG1       25.5490   10.0200   90.1840 C.3    76  VAL76       0.0022
     35  CG2       27.1070   12.0300   89.7390 C.3    76  VAL76       0.0022
     36  N         17.8120    5.9040   85.1770 N.3    81  LEU81      -0.1245
     37  CA        18.1710    6.7060   84.0150 C.3    81  LEU81       0.1561
     38  C         19.3330    6.1350   83.1960 C.2    81  LEU81       0.2260
     39  O         19.6070    6.5910   82.0740 O.2    81  LEU81      -0.2867
     40  CB        18.4020    8.1560   84.4140 C.3    81  LEU81       0.0270
     41  CG        18.0830    9.3140   83.4360 C.3    81  LEU81       0.0019
     42  CD1       17.0350    9.1260   82.3440 C.3    81  LEU81       0.0001
     43  CD2       17.7690   10.6410   84.2230 C.3    81  LEU81       0.0001
     44  N         24.7550   15.3830   99.6820 N.3   165  PHE165     -0.1227
     45  CA        24.6370   14.8640   98.3250 C.3   165  PHE165      0.1736
     46  C         24.3750   15.9730   97.3500 C.2   165  PHE165      0.2595
     47  O         24.4370   15.7580   96.1570 O.2   165  PHE165     -0.2718
     48  CB        23.5300   13.8030   98.1860 C.3   165  PHE165      0.0547
     49  CG        23.5830   12.7300   99.2300 C.ar  165  PHE165     -0.0202
     50  CD1       24.8210   12.3830   99.8570 C.ar  165  PHE165     -0.0042
     51  CD2       22.4070   12.0340   99.5970 C.ar  165  PHE165     -0.0042
     52  CE1       24.8790   11.3910  100.8430 C.ar  165  PHE165     -0.0003
     53  CE2       22.4370   11.0140  100.5900 C.ar  165  PHE165     -0.0003
     54  CZ        23.6720   10.6920  101.2230 C.ar  165  PHE165     -0.0000
     55  N         24.0480   17.1630   97.8330 N.am  166  LEU166     -0.1966
     56  CA        23.7690   18.2430   96.9040 C.3   166  LEU166      0.1728
     57  C         25.0920   18.6200   96.2380 C.2   166  LEU166      0.2616
     58  O         26.1340   18.6300   96.9100 O.2   166  LEU166     -0.2715
     59  CB        23.1600   19.4520   97.5940 C.3   166  LEU166      0.0311
     60  CG        21.8470   19.2240   98.3360 C.3   166  LEU166      0.0022
     61  CD1       21.4890   20.3960   99.3250 C.3   166  LEU166      0.0001
     62  CD2       20.7230   18.9390   97.3160 C.3   166  LEU166      0.0001
     63  N         25.0380   18.9450   94.9370 N.am  167  SER167     -0.1950
     64  CA        26.2050   19.3340   94.1670 C.3   167  SER167      0.1924
     65  C         26.8320   20.6370   94.6840 C.2   167  SER167      0.2314
     66  O         27.9450   20.9890   94.3060 O.2   167  SER167     -0.2863
     67  CB        25.8500   19.4330   92.6590 C.3   167  SER167      0.2116
     68  OG        25.1010   20.6080   92.3390 O.3   167  SER167     -0.2180
     69  N         27.3000   21.0710   97.9060 N.3   169  ALA169     -0.1245
     70  CA        27.7780   20.8600   99.2830 C.3   169  ALA169      0.1562
     71  C         29.2870   21.1200   99.4080 C.2   169  ALA169      0.2260
     72  O         30.0560   20.8310   98.5100 O.2   169  ALA169     -0.2867
     73  CB        27.3970   19.4750   99.8260 C.3   169  ALA169      0.0290
     74  N         32.0290   19.8850  101.0630 N.3   171  VAL171     -0.1231
     75  CA        32.4100   18.7770  101.9110 C.3   171  VAL171      0.1692
     76  C         33.4030   17.8910  101.2160 C.2   171  VAL171      0.2593
     77  O         33.3500   17.7080  100.0190 O.2   171  VAL171     -0.2718
     78  CB        31.1750   17.9150  102.4170 C.3   171  VAL171      0.0266
     79  CG1       30.2170   18.7400  103.3500 C.3   171  VAL171      0.0020
     80  CG2       30.4310   17.2560  101.2500 C.3   171  VAL171      0.0020
     81  N         34.3150   17.3260  101.9720 N.am  172  THR172     -0.1939
     82  CA        35.2440   16.3790  101.3720 C.3   172  THR172      0.2028
     83  C         34.5000   15.1320  100.8340 C.2   172  THR172      0.2642
     84  O         33.3620   14.8410  101.2240 O.2   172  THR172     -0.2714
     85  CB        36.3550   15.9920  102.3780 C.3   172  THR172      0.1808
     86  OG1       35.8090   15.1480  103.3970 O.3   172  THR172     -0.2208
     87  CG2       36.9760   17.2770  103.0280 C.3   172  THR172      0.0379
     88  N         35.1370   14.4150   99.9210 N.am  173  ALA173     -0.1977
     89  CA        34.6320   13.1250   99.4830 C.3   173  ALA173      0.1597
     90  C         34.3690   12.1210  100.6710 C.2   173  ALA173      0.2287
     91  O         33.3710   11.3860  100.6830 O.2   173  ALA173     -0.2864
     92  CB        35.5910   12.5490   98.4830 C.3   173  ALA173      0.0319
     93  N         31.2190   13.0390  102.4520 N.3   176  MET176     -0.1245
     94  CA        30.1330   12.5830  101.6150 C.3   176  MET176      0.1570
     95  C         29.8930   11.0820  101.6690 C.2   176  MET176      0.2261
     96  O         28.7480   10.6350  101.7530 O.2   176  MET176     -0.2867
     97  CB        30.3440   12.9860  100.1630 C.3   176  MET176      0.0387
     98  CG        29.0620   12.9130   99.3630 C.3   176  MET176      0.0595
     99  SD        29.4430   13.0540   97.6420 S.3   176  MET176     -0.1393
    100  CE        29.8920   11.3140   97.3160 C.3   176  MET176      0.0692
    101  N         26.6240    8.9940  102.9050 N.3   180  ALA180     -0.1245
    102  CA        26.0530    7.9100  102.0890 C.3   180  ALA180      0.1562
    103  C         25.9610    6.5310  102.7970 C.2   180  ALA180      0.2260
    104  O         24.9260    5.8640  102.7000 O.2   180  ALA180     -0.2867
    105  CB        26.7700    7.7860  100.7240 C.3   180  ALA180      0.0290
    106  N         17.9010   11.1270   95.6800 N.3   230  VAL230     -0.1231
    107  CA        18.8150   12.0230   95.0100 C.3   230  VAL230      0.1692
    108  C         18.1290   12.6790   93.7990 C.2   230  VAL230      0.2591
    109  O         18.4290   13.8210   93.5160 O.2   230  VAL230     -0.2718
    110  CB        20.2130   11.3880   94.6980 C.3   230  VAL230      0.0266
    111  CG1       20.7290   10.6650   95.9160 C.3   230  VAL230      0.0020
    112  CG2       20.1370   10.3700   93.5760 C.3   230  VAL230      0.0020
    113  N         17.1910   11.9830   93.1400 N.am  231  ALA231     -0.1980
    114  CA        16.5050   12.4700   91.9250 C.3   231  ALA231      0.1597
    115  C         15.4710   13.5590   92.3210 C.2   231  ALA231      0.2287
    116  O         15.1860   14.4770   91.5570 O.2   231  ALA231     -0.2864
    117  CB        15.7970   11.2970   91.1900 C.3   231  ALA231      0.0319
    118  N         17.7100   17.7100   95.1340 N.3   234  GLU234     -0.1231
    119  CA        18.3090   18.8930   94.5680 C.3   234  GLU234      0.1699
    120  C         17.4690   19.5540   93.4640 C.2   234  GLU234      0.2592
    121  O         17.4170   20.7950   93.3960 O.2   234  GLU234     -0.2718
    122  CB        19.7190   18.6110   94.0210 C.3   234  GLU234      0.0402
    123  CG        20.4610   19.9140   93.6680 C.3   234  GLU234      0.1161
    124  CD        21.9600   19.7520   93.4560 C.2   234  GLU234      0.3649
    125  OE1       22.4950   18.6530   93.7520 O.co2 234  GLU234     -0.2457
    126  OE2       22.6030   20.7530   93.0060 O.co2 234  GLU234     -0.2457
    127  N         16.8500   18.7250   92.6120 N.am  235  SER235     -0.1952
    128  CA        16.0110   19.1960   91.4940 C.3   235  SER235      0.1924
    129  C         14.9360   20.1800   92.0160 C.2   235  SER235      0.2314
    130  O         14.8970   21.3550   91.6220 O.2   235  SER235     -0.2863
    131  CB        15.3560   18.0050   90.7590 C.3   235  SER235      0.2116
    132  OG        14.7490   17.0840   91.6730 O.3   235  SER235     -0.2180
    133  N         22.4590   13.4650   80.4250 N.3   283  PHE283     -0.1241
    134  CA        21.8870   12.2220   80.0190 C.3   283  PHE283      0.1605
    135  C         21.7880   12.1940   78.5010 C.2   283  PHE283      0.2264
    136  O         20.7270   12.0870   77.9180 O.2   283  PHE283     -0.2867
    137  CB        20.5910   11.9580   80.7720 C.3   283  PHE283      0.0534
    138  CG        20.6820   12.2940   82.2400 C.ar  283  PHE283     -0.0203
    139  CD1       21.5550   11.5970   83.0700 C.ar  283  PHE283     -0.0042
    140  CD2       19.8770   13.3040   82.8010 C.ar  283  PHE283     -0.0042
    141  CE1       21.6460   11.8810   84.4310 C.ar  283  PHE283     -0.0003
    142  CE2       19.9670   13.6130   84.1780 C.ar  283  PHE283     -0.0003
    143  CZ        20.8660   12.8860   84.9890 C.ar  283  PHE283     -0.0000
    144  N         25.7430   21.6940   87.6030 N.3   383  LEU383     -0.1231
    145  CA        24.6460   20.8260   87.1310 C.3   383  LEU383      0.1693
    146  C         23.3590   21.6170   86.8910 C.2   383  LEU383      0.2591
    147  O         22.8440   21.6610   85.7610 O.2   383  LEU383     -0.2718
    148  CB        24.4070   19.6290   88.0860 C.3   383  LEU383      0.0284
    149  CG        25.6700   18.7740   88.3270 C.3   383  LEU383      0.0019
    150  CD1       25.4640   17.6010   89.3710 C.3   383  LEU383      0.0001
    151  CD2       26.1700   18.1960   87.0160 C.3   383  LEU383      0.0001
    152  N         22.8250   22.2360   87.9500 N.am  384  LEU384     -0.1980
    153  CA        21.5990   23.0270   87.8190 C.3   384  LEU384      0.1596
    154  C         21.9270   24.4880   88.0660 C.2   384  LEU384      0.2287
    155  O         22.9620   24.8300   88.6790 O.2   384  LEU384     -0.2864
    156  CB        20.5220   22.5660   88.7980 C.3   384  LEU384      0.0297
    157  CG        20.1340   21.0880   88.7980 C.3   384  LEU384      0.0022
    158  CD1       18.8730   20.9180   89.6410 C.3   384  LEU384      0.0001
    159  CD2       19.8710   20.5350   87.3570 C.3   384  LEU384      0.0001
@<TRIPOS>BOND
     1   136   135    2
     2   135   134    1
     3   134   133    1
     4   134   137    1
     5   137   138    1
     6    39    38    2
     7   138   140   ar
     8   138   139   ar
     9    28    27    1
    10    42    41    1
    11    27    26    1
    12   140   142   ar
    13   139   141   ar
    14    38    37    1
    15    41    43    1
    16    41    40    1
    17    26    25    1
    18    37    40    1
    19    37    36    1
    20   142   143   ar
    21   141   143   ar
    22     1     2    1
    23     4     3    2
    24    25    22    1
    25   147   146    2
    26     3     2    1
    27     2     5    1
    28    22    21    1
    29    22    23    1
    30    32    31    2
    31   146   145    1
    32   146   152   am
    33    15    14    2
    34   151   149    1
    35   145   144    1
    36   145   148    1
    37    21    14   am
    38     5     6    1
    39   159   157    1
    40    14    13    1
    41    23    29   am
    42    23    24    2
    43    31    30    1
    44     6     7    1
    45    29    30    1
    46    12    13    1
    47   153   152    1
    48   153   154    1
    49   153   156    1
    50   154   155    2
    51   148   149    1
    52    13    16    1
    53   149   150    1
    54    30    33    1
    55   156   157    1
    56   157   158    1
    57     7     8    1
    58    33    35    1
    59    33    34    1
    60    16    17    1
    61    19    18   ar
    62    18    17    1
    63    18    20   ar
    64     8     9    2
    65   131   128    1
    66   131   132    1
    67   117   114    1
    68     9    10    1
    69     9    11    1
    70   128   129    1
    71   128   127    1
    72   116   115    2
    73   130   129    2
    74   114   115    1
    75   114   113    1
    76    68    67    1
    77   127   120   am
    78    67    64    1
    79   126   124   ar
    80   113   108   am
    81   121   120    2
    82   124   123    1
    83   124   125   ar
    84   120   119    1
    85   109   108    2
    86   112   110    1
    87   123   122    1
    88   108   107    1
    89   122   119    1
    90    64    65    1
    91    64    63    1
    92    66    65    2
    93   119   118    1
    94   110   107    1
    95   110   111    1
    96    63    57   am
    97   107   106    1
    98    47    46    2
    99    57    56    1
   100    57    58    2
   101    56    59    1
   102    56    55    1
   103   100    99    1
   104    62    60    1
   105    46    55   am
   106    46    45    1
   107    59    60    1
   108    99    98    1
   109    69    70    1
   110    48    45    1
   111    48    49    1
   112    45    44    1
   113    60    61    1
   114    92    89    1
   115    72    71    2
   116    49    51   ar
   117    49    50   ar
   118    70    71    1
   119    70    73    1
   120    98    97    1
   121    89    88    1
   122    89    90    1
   123    51    53   ar
   124    50    52   ar
   125    88    83   am
   126    77    76    2
   127    97    94    1
   128    53    54   ar
   129    90    91    2
   130   105   102    1
   131    83    84    2
   132    83    82    1
   133    52    54   ar
   134    74    75    1
   135    76    75    1
   136    76    81   am
   137    80    78    1
   138    82    81    1
   139    82    85    1
   140    94    95    1
   141    94    93    1
   142    95    96    2
   143    75    78    1
   144   102   103    1
   145   102   101    1
   146    85    87    1
   147    85    86    1
   148    78    79    1
   149   104   103    2
