@<TRIPOS>MOLECULE
tmp/2y60A00.pdb
 221 204 0 0 0
SMALL
GASTEIGER

@<TRIPOS>ATOM
      1  N          3.4950   40.2370  -10.1800 N.3    39  PHE39      -0.1241
      2  CA         3.3210   38.9220   -9.5900 C.3    39  PHE39       0.1605
      3  C          2.7330   37.9550  -10.5890 C.2    39  PHE39       0.2264
      4  O          1.9170   38.3010  -11.4710 O.2    39  PHE39      -0.2867
      5  CB         2.3360   39.0020   -8.3880 C.3    39  PHE39       0.0534
      6  CG         2.9270   39.6240   -7.1510 C.ar   39  PHE39      -0.0203
      7  CD1        2.9130   41.0140   -6.9520 C.ar   39  PHE39      -0.0042
      8  CD2        3.4740   38.7920   -6.1640 C.ar   39  PHE39      -0.0042
      9  CE1        3.4490   41.5370   -5.8110 C.ar   39  PHE39      -0.0003
     10  CE2        3.9410   39.3240   -4.9700 C.ar   39  PHE39      -0.0003
     11  CZ         3.9400   40.6960   -4.8420 C.ar   39  PHE39      -0.0000
     12  N         21.0450   35.8570   10.8840 N.3    85  ARG85      -0.1245
     13  CA        20.0500   35.3950    9.8940 C.3    85  ARG85       0.1563
     14  C         19.3610   34.0860   10.2660 C.2    85  ARG85       0.2260
     15  O         18.1110   33.9140   10.2030 O.2    85  ARG85      -0.2867
     16  CB        20.7100   35.2090    8.4950 C.3    85  ARG85       0.0307
     17  CG        21.1970   36.5300    7.9260 C.3    85  ARG85       0.0489
     18  CD        21.8040   36.2930    6.5210 C.3    85  ARG85       0.2205
     19  NE        20.8200   35.9500    5.5290 N.pl3  85  ARG85      -0.0865
     20  CZ        21.0310   35.4210    4.3240 C.cat  85  ARG85       0.5346
     21  NH1       22.2740   35.1270    3.8920 N.pl3  85  ARG85       0.1354
     22  NH2       19.9630   35.1800    3.5190 N.pl3  85  ARG85       0.1354
     23  N         13.0260   32.8110   15.2170 N.3    89  TYR89      -0.1241
     24  CA        12.5730   34.1880   15.4330 C.3    89  TYR89       0.1605
     25  C         11.2930   34.0480   16.2500 C.2    89  TYR89       0.2264
     26  O         10.2780   33.5750   15.7670 O.2    89  TYR89      -0.2867
     27  CB        12.2680   34.8740   14.1010 C.3    89  TYR89       0.0534
     28  CG        13.4260   35.1150   13.1480 C.ar   89  TYR89      -0.0201
     29  CD1       14.3870   34.1060   12.8290 C.ar   89  TYR89      -0.0009
     30  CD2       13.5080   36.3440   12.5000 C.ar   89  TYR89      -0.0009
     31  CE1       15.3640   34.3380   11.9150 C.ar   89  TYR89       0.0417
     32  CE2       14.4900   36.6030   11.5920 C.ar   89  TYR89       0.0417
     33  CZ        15.4010   35.6230   11.2900 C.ar   89  TYR89       0.1957
     34  OH        16.3930   35.8550   10.3630 O.3    89  TYR89      -0.2866
     35  N         14.4980   30.3780   10.1120 N.3   102  CYS102     -0.1235
     36  CA        15.1920   30.7070    8.8570 C.3   102  CYS102      0.1677
     37  C         16.4140   29.7930    8.7370 C.2   102  CYS102      0.2270
     38  O         17.1660   29.6130    9.7400 O.2   102  CYS102     -0.2867
     39  CB        15.5550   32.1860    8.8530 C.3   102  CYS102      0.0956
     40  SG        16.6540   32.6990    7.4670 S.3   102  CYS102     -0.0801
     41  N         17.8730   32.1020    1.1550 N.3   181  SER181     -0.1217
     42  CA        17.3300   31.6060    2.4260 C.3   181  SER181      0.1889
     43  C         15.9050   31.0550    2.2550 C.2   181  SER181      0.2288
     44  O         15.1630   31.4770    1.3810 O.2   181  SER181     -0.2866
     45  CB        17.2840   32.6990    3.5070 C.3   181  SER181      0.2089
     46  OG        16.4550   33.7480    3.0240 O.3   181  SER181     -0.2183
     47  N         12.5080   30.6630    4.7430 N.3   183  VAL183     -0.1245
     48  CA        11.9500   31.0620    6.0120 C.3   183  VAL183      0.1561
     49  C         10.6470   30.3020    6.1880 C.2   183  VAL183      0.2260
     50  O          9.7350   30.3750    5.3350 O.2   183  VAL183     -0.2867
     51  CB        11.6660   32.6110    6.1460 C.3   183  VAL183      0.0252
     52  CG1       11.3300   32.8810    7.6470 C.3   183  VAL183      0.0019
     53  CG2       12.9270   33.3690    5.7650 C.3   183  VAL183      0.0019
     54  N          7.5570   30.5060    8.1040 N.3   185  ILE185     -0.1245
     55  CA         6.8030   31.4420    8.9880 C.3   185  ILE185      0.1561
     56  C          5.4920   30.8230    9.4290 C.2   185  ILE185      0.2260
     57  O          4.7380   30.3220    8.5830 O.2   185  ILE185     -0.2867
     58  CB         6.5310   32.7470    8.2400 C.3   185  ILE185      0.0252
     59  CG1        7.8080   33.3290    7.6560 C.3   185  ILE185      0.0019
     60  CG2        5.8130   33.7640    9.2040 C.3   185  ILE185      0.0019
     61  CD1        7.5070   34.4910    6.6740 C.3   185  ILE185      0.0001
     62  N          2.0380   32.0070   11.0030 N.3   187  TYR187     -0.1241
     63  CA         1.1040   33.0550   11.4180 C.3   187  TYR187      0.1605
     64  C          0.0090   32.3470   12.1770 C.2   187  TYR187      0.2264
     65  O         -0.7030   31.4890   11.6100 O.2   187  TYR187     -0.2867
     66  CB         0.5270   33.7910   10.1640 C.3   187  TYR187      0.0534
     67  CG         1.4080   34.9140    9.6300 C.ar  187  TYR187     -0.0201
     68  CD1        1.3910   36.1610   10.2490 C.ar  187  TYR187     -0.0009
     69  CD2        2.2390   34.7140    8.5260 C.ar  187  TYR187     -0.0009
     70  CE1        2.1210   37.2140    9.7680 C.ar  187  TYR187      0.0417
     71  CE2        2.9910   35.7570    8.0120 C.ar  187  TYR187      0.0417
     72  CZ         2.9650   37.0010    8.6710 C.ar  187  TYR187      0.1957
     73  OH         3.6430   38.1320    8.2350 O.3   187  TYR187     -0.2866
     74  N          2.0890   42.9200    8.3060 N.3   209  PHE209     -0.1241
     75  CA         3.4630   43.3470    7.8850 C.3   209  PHE209      0.1605
     76  C          3.2500   44.4340    6.8640 C.2   209  PHE209      0.2264
     77  O          2.4490   44.2940    5.9480 O.2   209  PHE209     -0.2867
     78  CB         4.2850   42.1930    7.3090 C.3   209  PHE209      0.0534
     79  CG         5.7330   42.5210    7.1160 C.ar  209  PHE209     -0.0203
     80  CD1        6.6330   42.5510    8.1990 C.ar  209  PHE209     -0.0042
     81  CD2        6.2130   42.7100    5.8110 C.ar  209  PHE209     -0.0042
     82  CE1        8.0500   42.7820    8.0590 C.ar  209  PHE209     -0.0003
     83  CE2        7.6140   42.8830    5.6430 C.ar  209  PHE209     -0.0003
     84  CZ         8.4990   42.9650    6.7750 C.ar  209  PHE209     -0.0000
     85  N          6.4170   47.0650    1.5240 N.3   212  HIS212     -0.1241
     86  CA         7.8920   46.9100    1.3400 C.3   212  HIS212      0.1621
     87  C          8.1030   46.4380   -0.0370 C.2   212  HIS212      0.2264
     88  O          7.1690   45.9500   -0.6990 O.2   212  HIS212     -0.2867
     89  CB         8.5080   45.8820    2.3230 C.3   212  HIS212      0.0745
     90  CG         7.9250   44.5130    2.2090 C.ar  212  HIS212      0.0817
     91  ND1        6.6060   44.1950    2.5620 N.ar  212  HIS212     -0.2268
     92  CD2        8.4510   43.4020    1.6240 C.ar  212  HIS212      0.1154
     93  CE1        6.3780   42.9270    2.2450 C.ar  212  HIS212      0.1986
     94  NE2        7.4780   42.4210    1.6890 N.ar  212  HIS212     -0.2212
     95  N         10.8100   43.6090   -1.7900 N.3   214  ASP214     -0.1225
     96  CA        11.6370   42.5170   -1.2800 C.3   214  ASP214      0.1805
     97  C         13.1610   42.7610   -1.4470 C.2   214  ASP214      0.2597
     98  O         13.5940   43.3520   -2.4420 O.2   214  ASP214     -0.2718
     99  CB        11.3450   41.1990   -1.9830 C.3   214  ASP214      0.1424
    100  CG        10.0160   40.6180   -1.5670 C.2   214  ASP214      0.3668
    101  OD1        9.3820   41.2040   -0.6460 O.co2 214  ASP214     -0.2456
    102  OD2        9.6190   39.5820   -2.1350 O.co2 214  ASP214     -0.2456
    103  N         13.9350   42.1980   -0.4980 N.am  215  VAL215     -0.1980
    104  CA        15.3870   42.1040   -0.6170 C.3   215  VAL215      0.1595
    105  C         15.7020   40.7470   -1.2280 C.2   215  VAL215      0.2287
    106  O         15.7110   39.7150   -0.5320 O.2   215  VAL215     -0.2864
    107  CB        16.0290   42.3300    0.7660 C.3   215  VAL215      0.0276
    108  CG1       17.5910   42.3520    0.6120 C.3   215  VAL215      0.0022
    109  CG2       15.4930   43.6870    1.3850 C.3   215  VAL215      0.0022
    110  N         11.6280   36.3620   -5.4820 N.3   219  THR219     -0.1218
    111  CA        11.0840   35.6980   -4.3040 C.3   219  THR219      0.1862
    112  C         10.1580   34.5850   -4.7690 C.2   219  THR219      0.2287
    113  O          9.3270   34.8230   -5.6700 O.2   219  THR219     -0.2866
    114  CB        10.3680   36.7080   -3.3730 C.3   219  THR219      0.1770
    115  OG1       11.3280   37.7160   -2.9980 O.3   219  THR219     -0.2211
    116  CG2        9.7960   36.0050   -2.1400 C.3   219  THR219      0.0375
    117  N          7.4900   31.9510   -3.3590 N.3   221  LEU221     -0.1245
    118  CA         6.7470   31.8500   -2.0730 C.3   221  LEU221      0.1561
    119  C          5.6400   30.8300   -2.1120 C.2   221  LEU221      0.2260
    120  O          4.7540   30.8880   -3.0210 O.2   221  LEU221     -0.2867
    121  CB         6.1590   33.2620   -1.7800 C.3   221  LEU221      0.0270
    122  CG         5.1410   33.3410   -0.6090 C.3   221  LEU221      0.0019
    123  CD1        5.8930   33.1410    0.7230 C.3   221  LEU221      0.0001
    124  CD2        4.5740   34.7370   -0.6090 C.3   221  LEU221      0.0001
    125  N          2.4110   29.7640    0.1770 N.3   223  GLN223     -0.1301
    126  CA         1.4960   30.0600    1.2870 C.3   223  GLN223      0.1252
    127  C          0.2710   29.2000    1.3470 C.3   223  GLN223      0.2009
    128  O         -0.2500   28.7010    0.2810 O.3   223  GLN223     -0.2188
    129  CB         0.9610   31.5100    1.2180 C.3   223  GLN223      0.0314
    130  CG         2.0300   32.6070    1.1600 C.3   223  GLN223      0.0901
    131  CD         1.4640   33.9290    1.6000 C.2   223  GLN223      0.2608
    132  OE1        0.3710   34.3340    1.1980 O.2   223  GLN223     -0.2717
    133  NE2        2.2040   34.6040    2.5000 N.am  223  GLN223     -0.0878
    134  N         -2.2600   38.6660    0.9500 N.3   229  LEU229     -0.1245
    135  CA        -1.3510   39.6230    0.3330 C.3   229  LEU229      0.1561
    136  C         -2.0390   40.6650   -0.5050 C.2   229  LEU229      0.2260
    137  O         -3.1120   40.4150   -1.0970 O.2   229  LEU229     -0.2867
    138  CB        -0.3890   38.8290   -0.5910 C.3   229  LEU229      0.0270
    139  CG         0.4150   37.7970    0.2290 C.3   229  LEU229      0.0019
    140  CD1        1.2930   37.0340   -0.8370 C.3   229  LEU229      0.0001
    141  CD2        1.2140   38.4550    1.3700 C.3   229  LEU229      0.0001
    142  N          4.3300   45.5540   -1.7540 N.3   268  HIS268     -0.1241
    143  CA         3.2450   44.6920   -1.3090 C.3   268  HIS268      0.1621
    144  C          3.2400   44.6460    0.1990 C.2   268  HIS268      0.2264
    145  O          4.1960   45.1210    0.8330 O.2   268  HIS268     -0.2867
    146  CB         3.3980   43.2600   -1.9140 C.3   268  HIS268      0.0745
    147  CG         4.7180   42.6300   -1.6730 C.ar  268  HIS268      0.0817
    148  ND1        5.8750   43.0070   -2.3280 N.ar  268  HIS268     -0.2268
    149  CD2        5.0730   41.6400   -0.8170 C.ar  268  HIS268      0.1154
    150  CE1        6.8910   42.2730   -1.8800 C.ar  268  HIS268      0.1986
    151  NE2        6.4470   41.4470   -0.9260 N.ar  268  HIS268     -0.2212
    152  N          1.1200   42.5900    3.9120 N.3   270  VAL270     -0.1245
    153  CA         0.4390   41.4230    4.3830 C.3   270  VAL270      0.1561
    154  C         -0.7280   41.8650    5.2700 C.2   270  VAL270      0.2260
    155  O         -0.4870   42.4610    6.3620 O.2   270  VAL270     -0.2867
    156  CB         1.4000   40.5600    5.2470 C.3   270  VAL270      0.0252
    157  CG1        0.6900   39.3820    5.8720 C.3   270  VAL270      0.0019
    158  CG2        2.7330   40.1350    4.4440 C.3   270  VAL270      0.0019
    159  N          3.5390   30.8630    5.8130 N.3   279  SER279     -0.1217
    160  CA         4.1710   31.6550    4.7280 C.3   279  SER279      0.1889
    161  C          5.6270   31.2170    4.5900 C.2   279  SER279      0.2288
    162  O          6.3570   31.2960    5.5510 O.2   279  SER279     -0.2866
    163  CB         4.0230   33.1560    5.0320 C.3   279  SER279      0.2089
    164  OG         4.5820   33.9440    3.9740 O.3   279  SER279     -0.2183
    165  N          8.5940   31.6460    2.2780 N.3   281  PRO281     -0.2116
    166  CA         9.3680   32.2040    1.2040 C.3   281  PRO281      0.1372
    167  C         10.7410   31.5870    1.0250 C.2   281  PRO281      0.2244
    168  O         11.4020   31.1850    2.0080 O.2   281  PRO281     -0.2868
    169  CB         9.5690   33.6960    1.6200 C.3   281  PRO281      0.0268
    170  CG         9.5460   33.6140    3.1180 C.3   281  PRO281      0.0207
    171  CD         8.4970   32.5750    3.4340 C.3   281  PRO281      0.0892
    172  N         14.0160   33.2340   -0.6590 N.3   283  PHE283     -0.1241
    173  CA        14.6200   34.4480   -1.2570 C.3   283  PHE283      0.1605
    174  C         15.7470   34.0510   -2.1390 C.2   283  PHE283      0.2264
    175  O         16.7810   33.5410   -1.6360 O.2   283  PHE283     -0.2867
    176  CB        15.0110   35.4300   -0.1440 C.3   283  PHE283      0.0534
    177  CG        13.8380   35.8480    0.6490 C.ar  283  PHE283     -0.0203
    178  CD1       12.8670   36.7030    0.0840 C.ar  283  PHE283     -0.0042
    179  CD2       13.6780   35.4180    2.0050 C.ar  283  PHE283     -0.0042
    180  CE1       11.7500   37.1210    0.8400 C.ar  283  PHE283     -0.0003
    181  CE2       12.5660   35.8510    2.7420 C.ar  283  PHE283     -0.0003
    182  CZ        11.5790   36.6730    2.1700 C.ar  283  PHE283     -0.0000
    183  N         18.7850   34.7090   -3.6630 N.3   285  ASN285     -0.1240
    184  CA        19.9190   35.6150   -3.5370 C.3   285  ASN285      0.1653
    185  C         21.1140   35.0270   -4.2830 C.2   285  ASN285      0.2266
    186  O         21.2130   33.8030   -4.3530 O.2   285  ASN285     -0.2867
    187  CB        20.2970   35.7280   -2.0510 C.3   285  ASN285      0.1155
    188  CG        19.2180   36.4550   -1.2270 C.2   285  ASN285      0.2627
    189  OD1       18.5500   37.3810   -1.7180 O.2   285  ASN285     -0.2716
    190  ND2       19.0010   35.9930    0.0610 N.am  285  ASN285     -0.0877
    191  N         22.6680   42.7900   -0.0880 N.3   315  LEU315     -0.1245
    192  CA        21.8530   41.9420    0.7900 C.3   315  LEU315      0.1561
    193  C         22.0630   42.4480    2.2340 C.2   315  LEU315      0.2260
    194  O         21.1140   42.6300    3.0020 O.2   315  LEU315     -0.2867
    195  CB        22.2970   40.4720    0.7010 C.3   315  LEU315      0.0270
    196  CG        21.5030   39.4920    1.6080 C.3   315  LEU315      0.0019
    197  CD1       20.0100   39.4990    1.2490 C.3   315  LEU315      0.0001
    198  CD2       22.1140   38.1160    1.4540 C.3   315  LEU315      0.0001
    199  N         18.7720   43.8910    4.2580 N.3   319  LEU319     -0.1245
    200  CA        18.1620   43.1780    5.3720 C.3   319  LEU319      0.1561
    201  C         18.0890   44.0760    6.6080 C.2   319  LEU319      0.2260
    202  O         17.0460   44.0590    7.3120 O.2   319  LEU319     -0.2867
    203  CB        18.9410   41.8730    5.7190 C.3   319  LEU319      0.0270
    204  CG        18.7620   40.8210    4.5740 C.3   319  LEU319      0.0019
    205  CD1       19.3340   39.5370    4.9820 C.3   319  LEU319      0.0001
    206  CD2       17.2690   40.5950    4.1680 C.3   319  LEU319      0.0001
    207  N         15.2400   46.6970    5.9800 N.3   322  LEU322     -0.1245
    208  CA        13.9320   46.1830    6.1030 C.3   322  LEU322      0.1561
    209  C         13.5590   45.9960    7.5820 C.2   322  LEU322      0.2260
    210  O         12.4080   46.2680    7.9660 O.2   322  LEU322     -0.2867
    211  CB        13.8590   44.8730    5.3170 C.3   322  LEU322      0.0270
    212  CG        12.4990   44.1730    5.2470 C.3   322  LEU322      0.0019
    213  CD1       11.4210   45.1070    4.6150 C.3   322  LEU322      0.0001
    214  CD2       12.7160   42.9160    4.4320 C.3   322  LEU322      0.0001
    215  N         11.3210   40.8330   12.7790 N.3   329  THR329     -0.1218
    216  CA        10.3680   39.7260   12.6860 C.3   329  THR329      0.1862
    217  C         10.7530   38.6210   13.6390 C.2   329  THR329      0.2287
    218  O         10.0160   37.6330   13.6430 O.2   329  THR329     -0.2866
    219  CB        10.2180   39.2580   11.2380 C.3   329  THR329      0.1770
    220  OG1       11.4210   38.6210   10.7980 O.3   329  THR329     -0.2211
    221  CG2        9.8790   40.4780   10.2940 C.3   329  THR329      0.0375
@<TRIPOS>BOND
     1     4     3    2
     2     3     2    1
     3     1     2    1
     4     2     5    1
     5     5     6    1
     6     6     7   ar
     7     6     8   ar
     8     7     9   ar
     9     8    10   ar
    10     9    11   ar
    11   113   112    2
    12   110   111    1
    13    10    11   ar
    14   112   111    1
    15   186   185    2
    16   111   114    1
    17   185   184    1
    18   183   184    1
    19   184   187    1
    20   114   115    1
    21   114   116    1
    22   117   118    1
    23   120   119    2
    24    98    97    2
    25   148   150   ar
    26   148   147   ar
    27   174   175    2
    28   174   173    1
    29   102   100   ar
    30   119   118    1
    31   118   121    1
    32   187   188    1
    33    99   100    1
    34    99    96    1
    35   146   147    1
    36   146   143    1
    37   150   151   ar
    38    95    96    1
    39   121   122    1
    40   142   143    1
    41   189   188    2
    42   147   149   ar
    43   100   101   ar
    44    97    96    1
    45    97   103   am
    46   143   144    1
    47   173   172    1
    48   173   176    1
    49   105   104    1
    50   105   106    2
    51   188   190   am
    52   137   136    2
    53   151   149   ar
    54   140   139    1
    55    88    87    2
    56   104   103    1
    57   104   107    1
    58   124   122    1
    59   122   123    1
    60   138   139    1
    61   138   135    1
    62   136   135    1
    63   176   177    1
    64   191   192    1
    65    87    86    1
    66   178   177   ar
    67   178   180   ar
    68   125   126    1
    69   144   145    2
    70   139   141    1
    71   128   127    1
    72   135   134    1
    73   108   107    1
    74   177   179   ar
    75   195   192    1
    76   195   196    1
    77   107   109    1
    78   192   193    1
    79   180   182   ar
    80   167   166    1
    81   167   168    2
    82    41    42    1
    83   130   129    1
    84   130   131    1
    85   132   131    2
    86   166   169    1
    87   166   165    1
    88   129   126    1
    89   197   196    1
    90   126   127    1
    91    86    85    1
    92    86    89    1
    93    44    43    2
    94   198   196    1
    95   131   133   am
    96   169   170    1
    97    92    94   ar
    98    92    90   ar
    99    94    93   ar
   100   179   181   ar
   101   182   181   ar
   102    90    89    1
   103    90    91   ar
   104   193   194    2
   105    93    91   ar
   106    43    42    1
   107   165   171    1
   108    42    45    1
   109    46    45    1
   110   170   171    1
   111    22    20    1
   112    21    20    1
   113   152   153    1
   114   164   163    1
   115   206   204    1
   116   199   200    1
   117    20    19    2
   118   153   156    1
   119   153   154    1
   120   214   212    1
   121   158   156    1
   122   204   205    1
   123   204   203    1
   124   161   160    1
   125   161   162    2
   126   213   212    1
   127   160   163    1
   128   160   159    1
   129    47    48    1
   130   156   157    1
   131   212   211    1
   132   154   155    2
   133   211   208    1
   134    50    49    2
   135   200   203    1
   136   200   201    1
   137    19    18    1
   138    83    81   ar
   139    83    84   ar
   140    53    51    1
   141    81    79   ar
   142    77    76    2
   143   207   208    1
   144    48    51    1
   145    48    49    1
   146   208   209    1
   147    51    52    1
   148    18    17    1
   149   201   202    2
   150    61    59    1
   151    84    82   ar
   152    76    75    1
   153    79    78    1
   154    79    80   ar
   155    78    75    1
   156    40    39    1
   157   209   210    2
   158    59    58    1
   159    75    74    1
   160    17    16    1
   161    71    69   ar
   162    71    72   ar
   163    82    80   ar
   164    54    55    1
   165    73    72    1
   166    58    55    1
   167    58    60    1
   168    16    13    1
   169    69    67   ar
   170    57    56    2
   171    72    70   ar
   172    37    36    1
   173    37    38    2
   174    39    36    1
   175    36    35    1
   176    55    56    1
   177    67    66    1
   178    67    68   ar
   179    70    68   ar
   180    13    14    1
   181    13    12    1
   182    66    63    1
   183    15    14    2
   184   221   219    1
   185    34    33    1
   186   220   219    1
   187    62    63    1
   188   219   216    1
   189    33    32   ar
   190    33    31   ar
   191    63    64    1
   192    32    30   ar
   193    65    64    2
   194    31    29   ar
   195    30    28   ar
   196   216   215    1
   197   216   217    1
   198    29    28   ar
   199    28    27    1
   200   217   218    2
   201    27    24    1
   202    23    24    1
   203    24    25    1
   204    26    25    2
