@<TRIPOS>MOLECULE
tmp/2y61A00.pdb
 98 92 0 0 0
SMALL
GASTEIGER

@<TRIPOS>ATOM
      1  N        -25.9800    3.6770  -13.0170 N.3    10  ASN10      -0.1240
      2  CA       -26.9220    2.9590  -13.8450 C.3    10  ASN10       0.1653
      3  C        -28.3230    3.1740  -13.2470 C.2    10  ASN10       0.2266
      4  O        -28.6840    2.5050  -12.2710 O.2    10  ASN10      -0.2867
      5  CB       -26.5910    1.4760  -13.9010 C.3    10  ASN10       0.1155
      6  CG       -27.5750    0.7230  -14.7520 C.2    10  ASN10       0.2627
      7  OD1      -28.4330    1.2990  -15.4180 O.2    10  ASN10      -0.2716
      8  ND2      -27.4720   -0.6250  -14.7500 N.am   10  ASN10      -0.0877
      9  N        -31.0340    2.3630  -14.4470 N.3    12  LYS12      -0.1245
     10  CA       -31.9490    1.2990  -14.8300 C.3    12  LYS12       0.1561
     11  C        -33.2120    1.9120  -15.3570 C.2    12  LYS12       0.2260
     12  O        -33.2040    2.9780  -16.0030 O.2    12  LYS12      -0.2867
     13  CB       -32.1000    0.2260  -13.7820 C.3    12  LYS12       0.0271
     14  CG       -30.7710   -0.3180  -13.3130 C.3    12  LYS12       0.0035
     15  CD       -30.9080   -1.4620  -12.3410 C.3    12  LYS12       0.0206
     16  CE       -29.5240   -1.8890  -11.8670 C.3    12  LYS12       0.1093
     17  NZ       -29.5690   -3.0450  -10.9760 N.3    12  LYS12      -0.1314
     18  N        -25.1980   -6.2410  -19.0790 N.3    94  HIS94      -0.1241
     19  CA       -25.6810   -6.2150  -17.7020 C.3    94  HIS94       0.1621
     20  C        -26.4550   -7.5010  -17.4230 C.2    94  HIS94       0.2264
     21  O        -27.1360   -8.0300  -18.3090 O.2    94  HIS94      -0.2867
     22  CB       -26.5500   -4.9840  -17.4960 C.3    94  HIS94       0.0745
     23  CG       -26.7870   -4.6600  -16.0710 C.ar   94  HIS94       0.0817
     24  ND1      -27.7320   -5.2550  -15.3310 N.ar   94  HIS94      -0.2268
     25  CD2      -26.1570   -3.7880  -15.2690 C.ar   94  HIS94       0.1154
     26  CE1      -27.7380   -4.8640  -14.1520 C.ar   94  HIS94       0.1986
     27  NE2      -26.7930   -3.9320  -14.0140 N.ar   94  HIS94      -0.2212
     28  N        -19.7750   -7.6650  -11.4200 N.3   166  GLU166     -0.1245
     29  CA       -20.9980   -7.5330  -10.5820 C.3   166  GLU166      0.1567
     30  C        -21.4580   -8.9370  -10.2960 C.2   166  GLU166      0.2260
     31  O        -22.1470   -9.5710  -11.1150 O.2   166  GLU166     -0.2867
     32  CB       -22.0940   -6.7290  -11.2410 C.3   166  GLU166      0.0388
     33  CG       -21.6380   -5.4000  -11.7840 C.3   166  GLU166      0.1160
     34  CD       -22.7980   -4.5570  -12.1820 C.2   166  GLU166      0.3649
     35  OE1      -23.5460   -4.8380  -13.0840 O.co2 166  GLU166     -0.2457
     36  OE2      -22.9840   -3.5240  -11.4560 O.co2 166  GLU166     -0.2457
     37  N        -25.2720   -9.9880   -5.7290 N.3   170  ALA170     -0.1231
     38  CA       -25.1130   -8.7070   -5.0880 C.3   170  ALA170      0.1694
     39  C        -25.9630   -7.6170   -5.7360 C.2   170  ALA170      0.2592
     40  O        -26.0010   -6.4880   -5.2420 O.2   170  ALA170     -0.2718
     41  CB       -23.6510   -8.2840   -5.0960 C.3   170  ALA170      0.0304
     42  N        -26.5940   -7.8970   -6.8820 N.am  171  ILE171     -0.1966
     43  CA       -27.2740   -6.8470   -7.6460 C.3   171  ILE171      0.1727
     44  C        -28.6660   -6.6420   -7.0540 C.2   171  ILE171      0.2616
     45  O        -29.5280   -7.5320   -7.1670 O.2   171  ILE171     -0.2715
     46  CB       -27.3510   -7.1830   -9.1300 C.3   171  ILE171      0.0290
     47  CG1      -25.9740   -7.3430   -9.7520 C.3   171  ILE171      0.0022
     48  CG2      -28.2030   -6.1100   -9.8260 C.3   171  ILE171      0.0023
     49  CD1      -26.0230   -7.8470  -11.1980 C.3   171  ILE171      0.0001
     50  N        -28.8690   -5.4710   -6.4460 N.am  172  GLY172     -0.1955
     51  CA       -30.1830   -5.1230   -5.9360 C.3   172  GLY172      0.1869
     52  C        -30.6090   -5.8620   -4.6920 C.2   172  GLY172      0.2309
     53  O        -31.7340   -5.6550   -4.2230 O.2   172  GLY172     -0.2863
     54  N        -22.7670   -4.0100   -7.3420 N.3   211  GLY211     -0.1210
     55  CA       -23.6430   -4.9300   -6.6320 C.3   211  GLY211      0.1956
     56  C        -23.7890   -4.4340   -5.2040 C.2   211  GLY211      0.2613
     57  O        -22.9320   -4.7030   -4.3560 O.2   211  GLY211     -0.2717
     58  N        -24.8280   -3.6270   -4.9600 N.am  212  SER212     -0.1938
     59  CA       -25.1190   -3.1050   -3.6330 C.3   212  SER212      0.2055
     60  C        -24.0480   -2.1510   -3.0820 C.2   212  SER212      0.2642
     61  O        -23.9360   -2.0040   -1.8850 O.2   212  SER212     -0.2714
     62  CB       -25.4720   -4.2350   -2.6490 C.3   212  SER212      0.2130
     63  OG       -26.6000   -4.9880   -3.1190 O.3   212  SER212     -0.2179
     64  N        -23.3460   -1.4730   -3.9620 N.am  213  VAL213     -0.1977
     65  CA       -22.4820   -0.3770   -3.5220 C.3   213  VAL213      0.1596
     66  C        -23.3420    0.7310   -2.9510 C.2   213  VAL213      0.2287
     67  O        -24.3690    1.0930   -3.5230 O.2   213  VAL213     -0.2864
     68  CB       -21.6390    0.1580   -4.6850 C.3   213  VAL213      0.0276
     69  CG1      -20.8190    1.3560   -4.2440 C.3   213  VAL213      0.0022
     70  CG2      -20.7420   -0.9020   -5.2490 C.3   213  VAL213      0.0022
     71  N        -19.9220    0.5440  -10.5270 N.3   231  LEU231     -0.1231
     72  CA       -21.1610    0.6250  -11.3170 C.3   231  LEU231      0.1693
     73  C        -22.2840    0.4940  -10.3150 C.2   231  LEU231      0.2592
     74  O        -22.4030   -0.5380   -9.6210 O.2   231  LEU231     -0.2718
     75  CB       -21.1930   -0.4260  -12.4170 C.3   231  LEU231      0.0284
     76  CG       -22.3960   -0.3250  -13.3560 C.3   231  LEU231      0.0019
     77  CD1      -22.4570    1.0220  -14.0570 C.3   231  LEU231      0.0001
     78  CD2      -22.3700   -1.4790  -14.3610 C.3   231  LEU231      0.0001
     79  N        -23.0870    1.5540  -10.1870 N.am  232  VAL232     -0.1966
     80  CA       -24.0010    1.7310   -9.0670 C.3   232  VAL232      0.1727
     81  C        -25.4120    1.7810   -9.5920 C.2   232  VAL232      0.2617
     82  O        -25.7290    2.6150  -10.4490 O.2   232  VAL232     -0.2715
     83  CB       -23.6650    3.0150   -8.3000 C.3   232  VAL232      0.0290
     84  CG1      -24.5510    3.1150   -7.0600 C.3   232  VAL232      0.0023
     85  CG2      -22.2070    3.0900   -7.9140 C.3   232  VAL232      0.0023
     86  N        -26.2780    0.9300   -9.0400 N.am  233  GLY233     -0.1940
     87  CA       -27.6820    0.9030   -9.4290 C.3   233  GLY233      0.2014
     88  C        -28.5040    1.7430   -8.4550 C.2   233  GLY233      0.2639
     89  O        -28.5840    2.9610   -8.5960 O.2   233  GLY233     -0.2714
     90  N        -29.1000    1.0910   -7.4590 N.am  234  GLY234     -0.1939
     91  CA       -30.0360    1.7960   -6.5860 C.3   234  GLY234      0.2014
     92  C        -29.5090    3.0510   -5.9530 C.2   234  GLY234      0.2638
     93  O        -30.2310    4.0490   -5.8740 O.2   234  GLY234     -0.2714
     94  N        -28.2800    3.0340   -5.4520 N.am  235  ALA235     -0.1977
     95  CA       -27.7360    4.2010   -4.7700 C.3   235  ALA235      0.1597
     96  C        -27.5090    5.3740   -5.7150 C.2   235  ALA235      0.2287
     97  O        -27.3490    6.4970   -5.2580 O.2   235  ALA235     -0.2864
     98  CB       -26.5050    3.8710   -3.9850 C.3   235  ALA235      0.0319
@<TRIPOS>BOND
     1    18    19    1
     2    21    20    2
     3    19    22    1
     4    19    20    1
     5    22    23    1
     6    23    24   ar
     7    23    25   ar
     8    12    11    2
     9     7     6    2
    10    11    10    1
    11    24    26   ar
    12    25    27   ar
    13    10     9    1
    14    10    13    1
    15     6     8   am
    16     6     5    1
    17    78    76    1
    18    26    27   ar
    19    77    76    1
    20     5     2    1
    21     2     3    1
    22     2     1    1
    23    13    14    1
    24    76    75    1
    25    14    15    1
    26     3     4    2
    27    35    34   ar
    28    75    72    1
    29    15    16    1
    30    34    33    1
    31    34    36   ar
    32    16    17    1
    33    33    32    1
    34    28    29    1
    35    72    71    1
    36    72    73    1
    37    32    29    1
    38    49    47    1
    39    31    30    2
    40    29    30    1
    41    82    81    2
    42    73    79   am
    43    73    74    2
    44    79    80    1
    45    48    46    1
    46    47    46    1
    47    81    80    1
    48    81    86   am
    49    87    86    1
    50    87    88    1
    51    46    43    1
    52    80    83    1
    53    89    88    2
    54    88    90   am
    55    83    85    1
    56    83    84    1
    57    43    44    1
    58    43    42    1
    59    90    91    1
    60    54    55    1
    61    45    44    2
    62    44    50   am
    63    42    39   am
    64    55    56    1
    65    91    92    1
    66    50    51    1
    67    92    93    2
    68    92    94   am
    69    51    52    1
    70    39    40    2
    71    39    38    1
    72    37    38    1
    73    96    97    2
    74    96    95    1
    75    94    95    1
    76    70    68    1
    77    56    58   am
    78    56    57    2
    79    41    38    1
    80    58    59    1
    81    95    98    1
    82    52    53    2
    83    68    69    1
    84    68    65    1
    85    64    65    1
    86    64    60   am
    87    59    60    1
    88    59    62    1
    89    67    66    2
    90    65    66    1
    91    63    62    1
    92    60    61    2
