@<TRIPOS>MOLECULE
tmp/2y65C01.pdb
 130 127 0 0 0
SMALL
GASTEIGER

@<TRIPOS>ATOM
      1  N         -7.9170   12.9280  -76.0360 N.3    12  ARG12      -0.1231
      2  CA        -7.7090   12.4020  -74.6890 C.3    12  ARG12       0.1694
      3  C         -8.8880   12.7680  -73.7940 C.2    12  ARG12       0.2592
      4  O         -9.1620   13.9520  -73.5520 O.2    12  ARG12      -0.2718
      5  CB        -6.4750   13.0060  -74.0210 C.3    12  ARG12       0.0321
      6  CG        -5.9210   12.1340  -72.8300 C.3    12  ARG12       0.0489
      7  CD        -4.8750   12.8620  -71.9690 C.3    12  ARG12       0.2205
      8  NE        -4.3870   11.9750  -70.9060 N.pl3  12  ARG12      -0.0865
      9  CZ        -3.2050   12.0930  -70.3170 C.cat  12  ARG12       0.5346
     10  NH1       -2.4500   13.1440  -70.6020 N.pl3  12  ARG12       0.1354
     11  NH2       -2.8070   11.1910  -69.4160 N.pl3  12  ARG12       0.1354
     12  N         -9.4980   11.7690  -73.1850 N.am   13  PHE13      -0.1962
     13  CA       -10.4810   12.0850  -72.1750 C.3    13  PHE13       0.1771
     14  C         -9.8980   11.9960  -70.7800 C.2    13  PHE13       0.2619
     15  O         -9.0740   11.1530  -70.5170 O.2    13  PHE13      -0.2715
     16  CB       -11.6420   11.1240  -72.2890 C.3    13  PHE13       0.0574
     17  CG       -12.4730   11.3570  -73.4950 C.ar   13  PHE13      -0.0200
     18  CD1      -12.0940   10.8030  -74.7220 C.ar   13  PHE13      -0.0042
     19  CD2      -13.6290   12.1080  -73.4170 C.ar   13  PHE13      -0.0042
     20  CE1      -12.8460   11.0210  -75.8800 C.ar   13  PHE13      -0.0003
     21  CE2      -14.4090   12.3100  -74.5640 C.ar   13  PHE13      -0.0003
     22  CZ       -13.9980   11.7620  -75.8050 C.ar   13  PHE13      -0.0000
     23  N        -10.3100   12.8540  -69.8690 N.am   14  ARG14      -0.1964
     24  CA        -9.8940   12.6990  -68.4540 C.3    14  ARG14       0.1714
     25  C        -11.0600   12.0890  -67.6560 C.2    14  ARG14       0.2458
     26  O        -12.1540   12.0750  -68.1800 O.2    14  ARG14      -0.2730
     27  CB        -9.5130   14.0640  -67.8960 C.3    14  ARG14       0.0347
     28  CG       -10.5920   15.1540  -68.0190 C.3    14  ARG14       0.0492
     29  CD       -10.4280   16.1810  -66.8870 C.3    14  ARG14       0.2205
     30  NE       -11.3630   17.2910  -67.0240 N.pl3  14  ARG14      -0.0865
     31  CZ       -12.6780   17.2000  -66.8150 C.cat  14  ARG14       0.5346
     32  NH1      -13.2250   16.0530  -66.4600 N.pl3  14  ARG14       0.1354
     33  NH2      -13.4630   18.2560  -66.9650 N.pl3  14  ARG14       0.1354
     34  N        -10.8430   11.6140  -66.4030 N.am   15  PRO15      -0.2727
     35  CA       -11.9550   11.1290  -65.5610 C.3    15  PRO15       0.1402
     36  C        -12.8870   12.3030  -65.1770 C.2    15  PRO15       0.2269
     37  O        -12.4670   13.4770  -65.2510 O.2    15  PRO15      -0.2865
     38  CB       -11.2330   10.5450  -64.3290 C.3    15  PRO15       0.0296
     39  CG        -9.7170   10.3220  -64.8000 C.3    15  PRO15       0.0237
     40  CD        -9.5440   11.5120  -65.7130 C.3    15  PRO15       0.0939
     41  N        -14.5650   15.1760  -63.1470 N.3    17  ASN17      -0.1240
     42  CA       -14.0440   15.8820  -61.9830 C.3    17  ASN17       0.1653
     43  C        -15.1060   16.2000  -60.9190 C.2    17  ASN17       0.2266
     44  O        -16.2980   15.8860  -61.0810 O.2    17  ASN17      -0.2867
     45  CB       -13.2780   17.1360  -62.3890 C.3    17  ASN17       0.1155
     46  CG       -14.1630   18.2100  -63.0180 C.2    17  ASN17       0.2627
     47  OD1      -13.6480   19.0930  -63.6970 O.2    17  ASN17      -0.2716
     48  ND2      -15.4780   18.1370  -62.8270 N.am   17  ASN17      -0.0877
     49  N         -9.8070    7.6740  -70.0280 N.3    55  PRO55      -0.2116
     50  CA        -9.4410    8.4170  -68.8400 C.3    55  PRO55       0.1372
     51  C         -8.3370    7.7420  -68.0260 C.2    55  PRO55       0.2244
     52  O         -7.6690    8.4150  -67.2430 O.2    55  PRO55      -0.2868
     53  CB       -10.7420    8.4800  -68.0340 C.3    55  PRO55       0.0268
     54  CG       -11.8300    8.3490  -69.0470 C.3    55  PRO55       0.0207
     55  CD       -11.2700    7.5080  -70.1760 C.3    55  PRO55       0.0892
     56  N         -5.7110    6.2920  -69.3720 N.3    57  ALA57      -0.1245
     57  CA        -4.4290    6.3750  -70.0890 C.3    57  ALA57       0.1562
     58  C         -3.3450    7.0620  -69.2700 C.2    57  ALA57       0.2260
     59  O         -3.4850    8.2330  -68.9060 O.2    57  ALA57      -0.2867
     60  CB        -4.5680    7.1090  -71.4450 C.3    57  ALA57       0.0290
     61  N        -10.8740   24.9330  -70.4940 N.3    88  THR88      -0.1203
     62  CA       -10.2110   24.9900  -69.1860 C.3    88  THR88       0.1994
     63  C        -10.6340   23.7940  -68.3510 C.2    88  THR88       0.2619
     64  O        -11.8310   23.4870  -68.3350 O.2    88  THR88      -0.2717
     65  CB       -10.5510   26.2920  -68.4530 C.3    88  THR88       0.1784
     66  OG1       -9.9990   27.3660  -69.2140 O.3    88  THR88      -0.2211
     67  CG2       -9.9400   26.3220  -67.0290 C.3    88  THR88       0.0376
     68  N         -9.6380   23.1500  -67.7280 N.am   89  SER89      -0.1937
     69  CA        -9.7560   21.9780  -66.8890 C.3    89  SER89       0.2055
     70  C         -9.9980   20.6680  -67.6520 C.2    89  SER89       0.2644
     71  O        -10.2250   19.6230  -67.0080 O.2    89  SER89      -0.2714
     72  CB       -10.7380   22.1910  -65.7070 C.3    89  SER89       0.2130
     73  OG       -12.0760   21.9960  -66.1480 O.3    89  SER89      -0.2179
     74  N         -9.8770   20.6840  -68.9860 N.am   90  SER90      -0.1935
     75  CA       -10.0290   19.4430  -69.7640 C.3    90  SER90       0.2055
     76  C         -8.7830   18.5650  -69.7260 C.2    90  SER90       0.2644
     77  O         -8.8810   17.3510  -69.9020 O.2    90  SER90      -0.2714
     78  CB       -10.3960   19.6930  -71.2270 C.3    90  SER90       0.2130
     79  OG        -9.4050   20.5230  -71.8140 O.3    90  SER90      -0.2179
     80  N         -7.6470   19.1730  -69.4120 N.am   91  GLY91      -0.1939
     81  CA        -6.3700   18.4560  -69.2800 C.3    91  GLY91       0.2014
     82  C         -5.2030   18.8290  -70.1820 C.2    91  GLY91       0.2639
     83  O         -4.2580   18.0500  -70.3830 O.2    91  GLY91      -0.2714
     84  N         -5.1900   20.0530  -70.6760 N.am   92  LYS92      -0.1963
     85  CA        -4.1040   20.4830  -71.5750 C.3    92  LYS92       0.1728
     86  C         -2.7450   20.4860  -70.8590 C.2    92  LYS92       0.2617
     87  O         -1.7500   19.9420  -71.3700 O.2    92  LYS92      -0.2715
     88  CB        -4.4410   21.8480  -72.1820 C.3    92  LYS92       0.0311
     89  CG        -5.6890   21.8640  -73.1060 C.3    92  LYS92       0.0038
     90  CD        -6.0580   23.3030  -73.5460 C.3    92  LYS92       0.0206
     91  CE        -6.3240   24.2870  -72.3520 C.3    92  LYS92       0.1093
     92  NZ        -7.5090   23.9210  -71.5460 N.3    92  LYS92      -0.1314
     93  N         -2.6930   21.0620  -69.6560 N.am   93  THR93      -0.1937
     94  CA        -1.3960   21.2880  -68.9930 C.3    93  THR93       0.2028
     95  C         -0.9320   19.9580  -68.4200 C.2    93  THR93       0.2642
     96  O          0.2420   19.5990  -68.4290 O.2    93  THR93      -0.2714
     97  CB        -1.4900   22.3340  -67.8460 C.3    93  THR93       0.1808
     98  OG1       -1.9610   23.5820  -68.3730 O.3    93  THR93      -0.2208
     99  CG2       -0.0950   22.5440  -67.1530 C.3    93  THR93       0.0379
    100  N         -1.8900   19.1720  -67.9660 N.am   94  HIS94      -0.1959
    101  CA        -1.5520   17.8610  -67.4870 C.3    94  HIS94       0.1787
    102  C         -0.8810   17.1150  -68.6470 C.2    94  HIS94       0.2620
    103  O          0.1380   16.4290  -68.4550 O.2    94  HIS94      -0.2715
    104  CB        -2.8170   17.1500  -67.0010 C.3    94  HIS94       0.0785
    105  CG        -2.5730   15.7420  -66.5460 C.ar   94  HIS94       0.0821
    106  ND1       -2.9790   14.6440  -67.2760 N.ar   94  HIS94      -0.2267
    107  CD2       -1.9090   15.2550  -65.4720 C.ar   94  HIS94       0.1154
    108  CE1       -2.6380   13.5420  -66.6310 C.ar   94  HIS94       0.1986
    109  NE2       -1.9770   13.8850  -65.5390 N.ar   94  HIS94      -0.2212
    110  N         -1.4850   17.1870  -69.8360 N.am   95  THR95      -0.1951
    111  CA        -0.9790   16.4310  -70.9650 C.3    95  THR95       0.1897
    112  C          0.3620   16.9710  -71.4280 C.2    95  THR95       0.2313
    113  O          1.2720   16.2030  -71.6710 O.2    95  THR95      -0.2863
    114  CB        -1.9820   16.4950  -72.1570 C.3    95  THR95       0.1794
    115  OG1       -3.1660   15.7700  -71.7980 O.3    95  THR95      -0.2208
    116  CG2       -1.3360   15.8850  -73.3910 C.3    95  THR95       0.0378
    117  N         -5.0930   29.9150  -67.7360 N.3   203  SER203     -0.1217
    118  CA        -6.2870   29.4920  -68.4910 C.3   203  SER203      0.1889
    119  C         -6.5920   30.4750  -69.6320 C.2   203  SER203      0.2288
    120  O         -7.2890   30.1700  -70.6150 O.2   203  SER203     -0.2866
    121  CB        -7.5000   29.3560  -67.5520 C.3   203  SER203      0.2089
    122  OG        -8.2100   30.5820  -67.4140 O.3   203  SER203     -0.2183
    123  N          0.7130   24.7950  -75.1800 N.3   232  ASP232     -0.1239
    124  CA        -0.4100   24.5750  -74.2950 C.3   232  ASP232      0.1674
    125  C         -1.2610   25.8110  -74.5280 C.2   232  ASP232      0.2266
    126  O         -0.8970   26.8770  -74.0530 O.2   232  ASP232     -0.2867
    127  CB         0.1580   24.5640  -72.8780 C.3   232  ASP232      0.1410
    128  CG        -0.8650   24.2400  -71.7810 C.2   232  ASP232      0.3668
    129  OD1       -2.0930   24.1980  -72.0440 O.co2 232  ASP232     -0.2456
    130  OD2       -0.4010   24.0450  -70.6190 O.co2 232  ASP232     -0.2456
@<TRIPOS>BOND
     1     1     2    1
     2    20    22   ar
     3    20    18   ar
     4    22    21   ar
     5   123   124    1
     6    18    17   ar
     7     2     5    1
     8     2     3    1
     9    21    19   ar
    10   125   124    1
    11   125   126    2
    12   124   127    1
    13     5     6    1
    14     3     4    2
    15     3    12   am
    16    90    89    1
    17    90    91    1
    18    17    19   ar
    19    17    16    1
    20   116   114    1
    21    12    13    1
    22    89    88    1
    23   127   128    1
    24     6     7    1
    25    91    92    1
    26    16    13    1
    27    88    85    1
    28    13    14    1
    29   114   115    1
    30   114   111    1
    31   129   128   ar
    32     7     8    1
    33    79    78    1
    34   128   130   ar
    35   113   112    2
    36    85    86    1
    37    85    84    1
    38    60    57    1
    39   112   111    1
    40    87    86    2
    41    78    75    1
    42   111   110    1
    43     8     9    2
    44    86    93   am
    45    14    15    2
    46    14    23   am
    47    84    82   am
    48   120   119    2
    49    10     9    1
    50    61    62    1
    51    83    82    2
    52     9    11    1
    53    82    81    1
    54    55    49    1
    55    55    54    1
    56    57    56    1
    57    57    58    1
    58    49    50    1
    59    77    76    2
    60    23    24    1
    61   110   102   am
    62    75    76    1
    63    75    74    1
    64    76    80   am
    65    93    94    1
    66   119   118    1
    67    80    81    1
    68    58    59    2
    69    66    65    1
    70    62    65    1
    71    62    63    1
    72    54    53    1
    73    94    95    1
    74    94    97    1
    75    74    70   am
    76    50    53    1
    77    50    51    1
    78   102   103    2
    79   102   101    1
    80   118   117    1
    81   118   121    1
    82    24    27    1
    83    24    25    1
    84    65    67    1
    85    96    95    2
    86    95   100   am
    87    98    97    1
    88    63    64    2
    89    63    68   am
    90    26    25    2
    91    51    52    2
    92    28    27    1
    93    28    29    1
    94   100   101    1
    95    97    99    1
    96    68    69    1
    97    25    34   am
    98    70    71    2
    99    70    69    1
   100   121   122    1
   101   101   104    1
   102   106   108   ar
   103   106   105   ar
   104    30    29    1
   105    30    31    2
   106   104   105    1
   107    33    31    1
   108    69    72    1
   109    31    32    1
   110   108   109   ar
   111   105   107   ar
   112    34    40    1
   113    34    35    1
   114    73    72    1
   115    40    39    1
   116    35    36    1
   117    35    38    1
   118   109   107   ar
   119    37    36    2
   120    39    38    1
   121    47    46    2
   122    41    42    1
   123    46    48   am
   124    46    45    1
   125    45    42    1
   126    42    43    1
   127    44    43    2
