@<TRIPOS>MOLECULE
tmp/2y65C00.pdb
 194 191 0 0 0
SMALL
GASTEIGER

@<TRIPOS>ATOM
      1  N         17.7880   13.7470  -76.0480 N.3   117  PHE117     -0.1241
      2  CA        19.1540   13.5190  -75.6110 C.3   117  PHE117      0.1605
      3  C         19.3790   12.0180  -75.5900 C.2   117  PHE117      0.2264
      4  O         20.4270   11.5670  -76.0510 O.2   117  PHE117     -0.2867
      5  CB        19.4250   14.2020  -74.2740 C.3   117  PHE117      0.0534
      6  CG        19.4730   15.7170  -74.3820 C.ar  117  PHE117     -0.0203
      7  CD1       20.6420   16.3660  -74.8060 C.ar  117  PHE117     -0.0042
      8  CD2       18.3480   16.4870  -74.1200 C.ar  117  PHE117     -0.0042
      9  CE1       20.6820   17.7490  -74.9650 C.ar  117  PHE117     -0.0003
     10  CE2       18.3850   17.8840  -74.2390 C.ar  117  PHE117     -0.0003
     11  CZ        19.5620   18.5170  -74.6370 C.ar  117  PHE117     -0.0000
     12  N         20.2090   11.1780  -79.1380 N.3   120  ILE120     -0.1231
     13  CA        21.4740   11.6840  -79.6050 C.3   120  ILE120      0.1692
     14  C         22.5730   10.7310  -79.0990 C.2   120  ILE120      0.2592
     15  O         23.4100   10.2580  -79.8860 O.2   120  ILE120     -0.2718
     16  CB        21.6850   13.1550  -79.1970 C.3   120  ILE120      0.0266
     17  CG1       20.8100   14.0810  -80.0520 C.3   120  ILE120      0.0019
     18  CG2       23.1240   13.5130  -79.3820 C.3   120  ILE120      0.0020
     19  CD1       20.7450   15.5460  -79.5830 C.3   120  ILE120      0.0001
     20  N         22.5230   10.4150  -77.8050 N.am  121  TYR121     -0.1976
     21  CA        23.4670    9.5060  -77.1400 C.3   121  TYR121      0.1639
     22  C         23.5250    8.1310  -77.8220 C.2   121  TYR121      0.2290
     23  O         24.5980    7.5550  -77.9780 O.2   121  TYR121     -0.2864
     24  CB        23.0840    9.3250  -75.6670 C.3   121  TYR121      0.0560
     25  CG        23.0160   10.5960  -74.8300 C.ar  121  TYR121     -0.0198
     26  CD1       23.7660   11.7280  -75.1610 C.ar  121  TYR121     -0.0009
     27  CD2       22.2250   10.6560  -73.6660 C.ar  121  TYR121     -0.0009
     28  CE1       23.7090   12.8960  -74.3920 C.ar  121  TYR121      0.0417
     29  CE2       22.1660   11.8280  -72.8720 C.ar  121  TYR121      0.0417
     30  CZ        22.9160   12.9460  -73.2500 C.ar  121  TYR121      0.1957
     31  OH        22.8940   14.1100  -72.4940 O.3   121  TYR121     -0.2866
     32  N         22.9720    7.5200  -80.8110 N.3   123  MET123     -0.1230
     33  CA        23.2030    7.6550  -82.2400 C.3   123  MET123      0.1702
     34  C         24.5130    7.0610  -82.7510 C.2   123  MET123      0.2592
     35  O         25.5720    7.2070  -82.1250 O.2   123  MET123     -0.2718
     36  CB        23.0600    9.0980  -82.6900 C.3   123  MET123      0.0401
     37  CG        21.7990    9.2860  -83.4670 C.3   123  MET123      0.0596
     38  SD        21.4870   11.0350  -83.7000 S.3   123  MET123     -0.1393
     39  CE        19.7100   10.9280  -83.6250 C.3   123  MET123      0.0692
     40  N         24.4060    6.4030  -83.9020 N.am  124  GLU124     -0.1966
     41  CA        25.5320    5.7090  -84.5200 C.3   124  GLU124      0.1733
     42  C         26.5070    6.7440  -85.0690 C.2   124  GLU124      0.2616
     43  O         27.4350    7.1710  -84.3690 O.2   124  GLU124     -0.2715
     44  CB        25.0460    4.7560  -85.6250 C.3   124  GLU124      0.0429
     45  CG        24.2530    3.5540  -85.1530 C.3   124  GLU124      0.1163
     46  CD        22.8820    3.8730  -84.6120 C.2   124  GLU124      0.3649
     47  OE1       22.2870    4.9100  -84.9990 O.co2 124  GLU124     -0.2457
     48  OE2       22.3210    3.1080  -83.7920 O.co2 124  GLU124     -0.2457
     49  N         26.2740    7.1580  -86.3130 N.am  125  VAL125     -0.1963
     50  CA        27.1050    8.1700  -86.9690 C.3   125  VAL125      0.1727
     51  C         27.4790    9.3110  -86.0100 C.2   125  VAL125      0.2616
     52  O         26.7260    9.5770  -85.0560 O.2   125  VAL125     -0.2715
     53  CB        26.3800    8.7610  -88.2050 C.3   125  VAL125      0.0290
     54  CG1       27.2220    9.8260  -88.9000 C.3   125  VAL125      0.0023
     55  CG2       26.1160    7.6310  -89.2030 C.3   125  VAL125      0.0023
     56  N         28.6210    9.9630  -86.2550 N.am  126  ASN126     -0.1958
     57  CA        28.9790   11.1840  -85.5170 C.3   126  ASN126      0.1819
     58  C         28.4000   12.4850  -86.0840 C.2   126  ASN126      0.2621
     59  O         29.0380   13.2530  -86.8120 O.2   126  ASN126     -0.2715
     60  CB        30.4780   11.3160  -85.2320 C.3   126  ASN126      0.1195
     61  CG        31.3280   11.3140  -86.4840 C.2   126  ASN126      0.2630
     62  OD1       30.8310   11.5220  -87.5980 O.2   126  ASN126     -0.2716
     63  ND2       32.6290   11.0580  -86.3080 N.am  126  ASN126     -0.0877
     64  N         27.1480   12.7220  -85.7290 N.am  127  LEU127     -0.1963
     65  CA        26.5450   14.0040  -86.0020 C.3   127  LEU127      0.1728
     66  C         26.9760   14.9730  -84.9120 C.2   127  LEU127      0.2616
     67  O         27.5570   14.5800  -83.9020 O.2   127  LEU127     -0.2715
     68  CB        25.0320   13.8440  -86.0510 C.3   127  LEU127      0.0311
     69  CG        24.3780   12.9240  -87.0850 C.3   127  LEU127      0.0022
     70  CD1       25.1940   12.8150  -88.3780 C.3   127  LEU127      0.0001
     71  CD2       24.0620   11.5630  -86.4820 C.3   127  LEU127      0.0001
     72  N         26.7350   16.2550  -85.1230 N.am  128  GLU128     -0.1963
     73  CA        26.9280   17.2350  -84.0660 C.3   128  GLU128      0.1733
     74  C         25.6690   18.0940  -84.0260 C.2   128  GLU128      0.2616
     75  O         25.2480   18.5900  -85.0630 O.2   128  GLU128     -0.2715
     76  CB        28.1450   18.0840  -84.3950 C.3   128  GLU128      0.0429
     77  CG        28.3710   19.3410  -83.5600 C.3   128  GLU128      0.1163
     78  CD        29.6160   20.0710  -84.0440 C.2   128  GLU128      0.3649
     79  OE1       30.6920   19.4330  -83.9340 O.co2 128  GLU128     -0.2457
     80  OE2       29.5280   21.2140  -84.5750 O.co2 128  GLU128     -0.2457
     81  N         25.0770   18.2540  -82.8470 N.am  129  PHE129     -0.1960
     82  CA        23.7550   18.8680  -82.7140 C.3   129  PHE129      0.1771
     83  C         23.8910   20.1560  -81.9300 C.2   129  PHE129      0.2620
     84  O         24.5870   20.1790  -80.9070 O.2   129  PHE129     -0.2715
     85  CB        22.7930   17.9390  -81.9660 C.3   129  PHE129      0.0574
     86  CG        22.3660   16.7270  -82.7350 C.ar  129  PHE129     -0.0200
     87  CD1       21.2230   16.7650  -83.5180 C.ar  129  PHE129     -0.0042
     88  CD2       23.0600   15.5370  -82.6330 C.ar  129  PHE129     -0.0042
     89  CE1       20.8110   15.6560  -84.2290 C.ar  129  PHE129     -0.0003
     90  CE2       22.6400   14.4060  -83.3180 C.ar  129  PHE129     -0.0003
     91  CZ        21.5060   14.4610  -84.1240 C.ar  129  PHE129     -0.0000
     92  N         23.2760   21.2230  -82.4390 N.am  130  HIS130     -0.1959
     93  CA        23.0880   22.4650  -81.6880 C.3   130  HIS130      0.1787
     94  C         21.6380   22.5320  -81.2580 C.2   130  HIS130      0.2620
     95  O         20.7530   22.4810  -82.1130 O.2   130  HIS130     -0.2715
     96  CB        23.2920   23.6900  -82.5690 C.3   130  HIS130      0.0785
     97  CG        24.7110   23.9580  -82.9670 C.ar  130  HIS130      0.0821
     98  ND1       25.4690   23.0640  -83.6900 N.ar  130  HIS130     -0.2267
     99  CD2       25.4740   25.0660  -82.8280 C.ar  130  HIS130      0.1154
    100  CE1       26.6580   23.5870  -83.9360 C.ar  130  HIS130      0.1986
    101  NE2       26.6850   24.8040  -83.4250 N.ar  130  HIS130     -0.2212
    102  N         21.3730   22.6420  -79.9650 N.am  131  ILE131     -0.1963
    103  CA        19.9880   22.7330  -79.5070 C.3   131  ILE131      0.1727
    104  C         19.7720   24.0150  -78.7170 C.2   131  ILE131      0.2616
    105  O         20.4790   24.2810  -77.7320 O.2   131  ILE131     -0.2715
    106  CB        19.6210   21.5420  -78.6110 C.3   131  ILE131      0.0290
    107  CG1       19.9110   20.2160  -79.3070 C.3   131  ILE131      0.0022
    108  CG2       18.0950   21.5590  -78.2370 C.3   131  ILE131      0.0023
    109  CD1       19.6340   19.0410  -78.3970 C.3   131  ILE131      0.0001
    110  N         18.8050   24.8130  -79.1440 N.am  132  LYS132     -0.1977
    111  CA        18.4710   26.0180  -78.4100 C.3   132  LYS132      0.1596
    112  C         16.9700   26.1820  -78.1360 C.2   132  LYS132      0.2287
    113  O         16.1110   25.8080  -78.9550 O.2   132  LYS132     -0.2864
    114  CB        19.1580   27.2620  -78.9950 C.3   132  LYS132      0.0298
    115  CG        18.6430   27.6600  -80.3050 C.3   132  LYS132      0.0038
    116  CD        19.5640   28.6450  -80.9970 C.3   132  LYS132      0.0206
    117  CE        18.9100   28.9690  -82.3410 C.3   132  LYS132      0.1093
    118  NZ        19.3380   30.3180  -82.8080 N.3   132  LYS132     -0.1314
    119  N         13.0820   36.3040  -70.1190 N.3   148  ASP148     -0.1239
    120  CA        13.6020   37.6620  -69.9500 C.3   148  ASP148      0.1674
    121  C         12.4690   38.4860  -69.3620 C.2   148  ASP148      0.2266
    122  O         11.5210   38.8350  -70.0710 O.2   148  ASP148     -0.2867
    123  CB        14.1080   38.2440  -71.2840 C.3   148  ASP148      0.1410
    124  CG        14.8590   39.5810  -71.1180 C.2   148  ASP148      0.3668
    125  OD1       14.4700   40.4070  -70.2620 O.co2 148  ASP148     -0.2456
    126  OD2       15.8360   39.8250  -71.8640 O.co2 148  ASP148     -0.2456
    127  N         12.3970   41.4590  -68.6600 N.3   150  SER150     -0.1202
    128  CA        12.1960   42.7550  -69.3190 C.3   150  SER150      0.2020
    129  C         11.4430   42.6880  -70.6580 C.2   150  SER150      0.2618
    130  O         10.6440   43.5790  -70.9760 O.2   150  SER150     -0.2717
    131  CB        13.5170   43.5180  -69.4700 C.3   150  SER150      0.2103
    132  OG        14.1960   43.1550  -70.6560 O.3   150  SER150     -0.2182
    133  N         11.6980   41.6320  -71.4330 N.am  151  LYS151     -0.1979
    134  CA        11.0960   41.4600  -72.7630 C.3   151  LYS151      0.1596
    135  C          9.5880   41.1840  -72.7420 C.2   151  LYS151      0.2287
    136  O          9.1300   40.0280  -72.6780 O.2   151  LYS151     -0.2864
    137  CB        11.8450   40.4040  -73.5780 C.3   151  LYS151      0.0298
    138  CG        13.1950   40.8410  -74.0920 C.3   151  LYS151      0.0038
    139  CD        13.9120   39.6390  -74.6970 C.3   151  LYS151      0.0206
    140  CE        15.4230   39.8130  -74.6360 C.3   151  LYS151      0.1093
    141  NZ        16.1690   38.5320  -74.8530 N.3   151  LYS151     -0.1314
    142  N         12.8150   36.8330  -79.0890 N.3   169  ALA169     -0.1231
    143  CA        12.7070   35.8400  -78.0330 C.3   169  ALA169      0.1694
    144  C         14.0890   35.3400  -77.6610 C.2   169  ALA169      0.2593
    145  O         14.8990   35.0170  -78.5200 O.2   169  ALA169     -0.2718
    146  CB        11.8050   34.6290  -78.4660 C.3   169  ALA169      0.0304
    147  N         14.3650   35.2790  -76.3740 N.am  170  THR170     -0.1939
    148  CA        15.5770   34.6380  -75.8890 C.3   170  THR170      0.2028
    149  C         15.6330   33.2050  -76.4100 C.2   170  THR170      0.2642
    150  O         14.6240   32.4720  -76.3890 O.2   170  THR170     -0.2714
    151  CB        15.5120   34.5400  -74.3380 C.3   170  THR170      0.1808
    152  OG1       15.2770   35.8460  -73.7800 O.3   170  THR170     -0.2208
    153  CG2       16.7860   33.9230  -73.7710 C.3   170  THR170      0.0379
    154  N         16.8180   32.8250  -76.8720 N.am  171  GLU171     -0.1976
    155  CA        17.1100   31.4660  -77.2900 C.3   171  GLU171      0.1602
    156  C         18.2420   31.0450  -76.3940 C.2   171  GLU171      0.2287
    157  O         19.2140   31.7680  -76.2800 O.2   171  GLU171     -0.2864
    158  CB        17.6460   31.4570  -78.7210 C.3   171  GLU171      0.0415
    159  CG        16.7620   32.1400  -79.7570 C.3   171  GLU171      0.1163
    160  CD        17.3830   32.0780  -81.1480 C.2   171  GLU171      0.3649
    161  OE1       18.5750   32.4370  -81.2860 O.co2 171  GLU171     -0.2457
    162  OE2       16.6970   31.6780  -82.1120 O.co2 171  GLU171     -0.2457
    163  N         21.0670   28.1620  -75.4690 N.3   173  PHE173     -0.1227
    164  CA        21.6820   26.8940  -75.8390 C.3   173  PHE173      0.1736
    165  C         21.6240   25.9570  -74.6460 C.2   173  PHE173      0.2595
    166  O         21.7930   26.4120  -73.5180 O.2   173  PHE173     -0.2718
    167  CB        23.1420   27.0400  -76.2620 C.3   173  PHE173      0.0547
    168  CG        23.3210   27.6200  -77.6380 C.ar  173  PHE173     -0.0202
    169  CD1       23.2030   26.8150  -78.7720 C.ar  173  PHE173     -0.0042
    170  CD2       23.6360   28.9640  -77.7960 C.ar  173  PHE173     -0.0042
    171  CE1       23.3670   27.3500  -80.0530 C.ar  173  PHE173     -0.0003
    172  CE2       23.7850   29.5110  -79.0750 C.ar  173  PHE173     -0.0003
    173  CZ        23.6550   28.6930  -80.2030 C.ar  173  PHE173     -0.0000
    174  N         21.4850   24.6570  -74.9060 N.am  174  VAL174     -0.1966
    175  CA        21.3390   23.6700  -73.8440 C.3   174  VAL174      0.1727
    176  C         22.1080   22.4430  -74.3260 C.2   174  VAL174      0.2616
    177  O         22.1960   22.2220  -75.5200 O.2   174  VAL174     -0.2715
    178  CB        19.8500   23.3100  -73.6000 C.3   174  VAL174      0.0290
    179  CG1       19.1030   24.4730  -72.9100 C.3   174  VAL174      0.0023
    180  CG2       19.1800   22.9090  -74.9530 C.3   174  VAL174      0.0023
    181  N         22.6860   21.6440  -73.4400 N.am  175  SER175     -0.1950
    182  CA        23.4650   20.4910  -73.8950 C.3   175  SER175      0.1924
    183  C         23.0610   19.3070  -73.0480 C.2   175  SER175      0.2314
    184  O         23.6700   18.2430  -73.1390 O.2   175  SER175     -0.2863
    185  CB        24.9790   20.7280  -73.7720 C.3   175  SER175      0.2116
    186  OG        25.3010   21.3360  -72.5330 O.3   175  SER175     -0.2180
    187  N         19.9700   20.9580  -68.3530 N.3   179  ASP179     -0.1239
    188  CA        19.9860   22.3500  -68.8180 C.3   179  ASP179      0.1674
    189  C         18.5680   22.7920  -69.2020 C.2   179  ASP179      0.2266
    190  O         18.1600   23.9130  -68.9440 O.2   179  ASP179     -0.2867
    191  CB        20.8550   22.5230  -70.0770 C.3   179  ASP179      0.1410
    192  CG        22.3590   22.4670  -69.8080 C.2   179  ASP179      0.3668
    193  OD1       22.7720   22.4630  -68.6210 O.co2 179  ASP179     -0.2456
    194  OD2       23.1310   22.4430  -70.8080 O.co2 179  ASP179     -0.2456
@<TRIPOS>BOND
     1    55    53    1
     2    54    53    1
     3    70    69    1
     4    53    50    1
     5    62    61    2
     6    69    71    1
     7    69    68    1
     8    50    49    1
     9    50    51    1
    10    59    58    2
    11    61    63   am
    12    61    60    1
    13    49    42   am
    14    56    51   am
    15    56    57    1
    16    58    64   am
    17    58    57    1
    18    68    65    1
    19    51    52    2
    20    65    64    1
    21    65    66    1
    22    44    45    1
    23    44    41    1
    24    57    60    1
    25    45    46    1
    26    72    66   am
    27    72    73    1
    28    42    41    1
    29    42    43    2
    30    75    74    2
    31    47    46   ar
    32    66    67    2
    33    46    48   ar
    34    80    78   ar
    35    41    40    1
    36    76    73    1
    37    76    77    1
    38    89    91   ar
    39    89    87   ar
    40    91    90   ar
    41    73    74    1
    42    78    79   ar
    43    78    77    1
    44    74    81   am
    45   100    98   ar
    46   100   101   ar
    47    40    34   am
    48    38    39    1
    49    38    37    1
    50    98    97   ar
    51    87    86   ar
    52    37    36    1
    53   101    99   ar
    54    90    88   ar
    55    97    99   ar
    56    97    96    1
    57    81    82    1
    58   118   117    1
    59    34    33    1
    60    34    35    2
    61    86    88   ar
    62    86    85    1
    63    82    85    1
    64    82    83    1
    65    36    33    1
    66    96    93    1
    67    92    83   am
    68    92    93    1
    69   117   116    1
    70    33    32    1
    71    95    94    2
    72   162   160   ar
    73    83    84    2
    74    93    94    1
    75   161   160   ar
    76    94   102   am
    77   160   159    1
    78   116   115    1
    79   115   114    1
    80   173   171   ar
    81   173   172   ar
    82   171   169   ar
    83    17    19    1
    84    17    16    1
    85   102   103    1
    86    15    14    2
    87   159   158    1
    88    13    16    1
    89    13    12    1
    90    13    14    1
    91   103   104    1
    92   103   106    1
    93    18    16    1
    94   107   106    1
    95   107   109    1
    96   110   104   am
    97   110   111    1
    98    14    20   am
    99   142   143    1
   100   172   170   ar
   101   114   111    1
   102   113   112    2
   103   169   168   ar
   104   158   155    1
   105   104   105    2
   106   106   108    1
   107   145   144    2
   108   146   143    1
   109   111   112    1
   110   143   144    1
   111    23    22    2
   112    22    21    1
   113    20    21    1
   114   170   168   ar
   115   144   147   am
   116   168   167    1
   117   155   154    1
   118   155   156    1
   119    21    24    1
   120   154   149   am
   121   149   150    2
   122   149   148    1
   123   156   157    2
   124   147   148    1
   125   167   164    1
   126     4     3    2
   127     1     2    1
   128   148   151    1
   129   164   163    1
   130   164   165    1
   131    24    25    1
   132     2     3    1
   133     2     5    1
   134   177   176    2
   135    26    25   ar
   136    26    28   ar
   137     9     7   ar
   138     9    11   ar
   139   180   178    1
   140   174   165   am
   141   174   175    1
   142   141   140    1
   143    25    27   ar
   144     7     6   ar
   145   139   140    1
   146   139   138    1
   147   165   166    2
   148    11    10   ar
   149    28    30   ar
   150     6     5    1
   151     6     8   ar
   152   151   152    1
   153   151   153    1
   154   176   175    1
   155   176   181   am
   156    10     8   ar
   157   138   137    1
   158   182   185    1
   159   182   181    1
   160   182   183    1
   161   175   178    1
   162   185   186    1
   163    27    29   ar
   164   178   179    1
   165   137   134    1
   166    30    29   ar
   167    30    31    1
   168   184   183    2
   169   134   135    1
   170   134   133    1
   171   135   136    2
   172   126   124   ar
   173   133   129   am
   174   123   124    1
   175   123   120    1
   176   124   125   ar
   177   130   129    2
   178   194   192   ar
   179   129   128    1
   180   132   131    1
   181   119   120    1
   182   191   192    1
   183   191   188    1
   184   122   121    2
   185   120   121    1
   186   192   193   ar
   187   131   128    1
   188   128   127    1
   189   189   190    2
   190   189   188    1
   191   188   187    1
