@<TRIPOS>MOLECULE
tmp/2y65A00.pdb
 199 197 0 0 0
SMALL
GASTEIGER

@<TRIPOS>ATOM
      1  N         48.0700    2.1420  -25.3750 N.3   116  PHE116     -0.1241
      2  CA        49.4420    2.5510  -25.2770 C.3   116  PHE116      0.1605
      3  C         49.8470    2.7720  -23.8040 C.2   116  PHE116      0.2264
      4  O         50.8970    2.3060  -23.4320 O.2   116  PHE116     -0.2867
      5  CB        49.7060    3.7620  -26.1610 C.3   116  PHE116      0.0534
      6  CG        49.6990    3.4250  -27.6270 C.ar  116  PHE116     -0.0203
      7  CD1       50.7810    2.7950  -28.2170 C.ar  116  PHE116     -0.0042
      8  CD2       48.5820    3.7060  -28.4070 C.ar  116  PHE116     -0.0042
      9  CE1       50.7500    2.4540  -29.5690 C.ar  116  PHE116     -0.0003
     10  CE2       48.5390    3.3360  -29.7450 C.ar  116  PHE116     -0.0003
     11  CZ        49.6450    2.7260  -30.3340 C.ar  116  PHE116     -0.0000
     12  N         50.6500   -0.6660  -22.5090 N.3   119  ILE119     -0.1231
     13  CA        51.8810   -1.2410  -23.0330 C.3   119  ILE119      0.1692
     14  C         53.0730   -0.6150  -22.3200 C.2   119  ILE119      0.2592
     15  O         53.9670   -1.3330  -21.9120 O.2   119  ILE119     -0.2718
     16  CB        51.9760   -1.0580  -24.5480 C.3   119  ILE119      0.0266
     17  CG1       51.0130   -2.0420  -25.2330 C.3   119  ILE119      0.0019
     18  CG2       53.4320   -1.1900  -25.0180 C.3   119  ILE119      0.0020
     19  CD1       50.8180   -1.7420  -26.6480 C.3   119  ILE119      0.0001
     20  N         53.0750    0.7080  -22.1810 N.am  120  TYR120     -0.1976
     21  CA        54.1600    1.4290  -21.5500 C.3   120  TYR120      0.1639
     22  C         54.3860    1.0100  -20.0870 C.2   120  TYR120      0.2290
     23  O         55.4970    1.1470  -19.5690 O.2   120  TYR120     -0.2864
     24  CB        53.8550    2.9270  -21.5390 C.3   120  TYR120      0.0560
     25  CG        53.6730    3.5880  -22.8940 C.ar  120  TYR120     -0.0198
     26  CD1       54.2640    3.0640  -24.0460 C.ar  120  TYR120     -0.0009
     27  CD2       52.9540    4.7770  -23.0130 C.ar  120  TYR120     -0.0009
     28  CE1       54.1250    3.6910  -25.2820 C.ar  120  TYR120      0.0417
     29  CE2       52.7990    5.4090  -24.2550 C.ar  120  TYR120      0.0417
     30  CZ        53.3930    4.8640  -25.3840 C.ar  120  TYR120      0.1957
     31  OH        53.2530    5.4800  -26.6190 O.3   120  TYR120     -0.2866
     32  N         53.7350   -2.1070  -18.9030 N.3   122  MET122     -0.1230
     33  CA        54.1270   -3.5030  -18.7470 C.3   122  MET122      0.1702
     34  C         55.6090   -3.6730  -18.4310 C.2   122  MET122      0.2592
     35  O         56.4540   -2.9650  -18.9710 O.2   122  MET122     -0.2718
     36  CB        53.7990   -4.3140  -19.9940 C.3   122  MET122      0.0401
     37  CG        52.3290   -4.4800  -20.2040 C.3   122  MET122      0.0596
     38  SD        52.0910   -5.2670  -21.8010 S.3   122  MET122     -0.1393
     39  CE        50.3100   -5.4820  -21.7340 C.3   122  MET122      0.0692
     40  N         55.9170   -4.6510  -17.5880 N.am  123  GLU123     -0.1966
     41  CA        57.3020   -5.0090  -17.3290 C.3   123  GLU123      0.1733
     42  C         57.6950   -6.1120  -18.3050 C.2   123  GLU123      0.2616
     43  O         58.6410   -5.9390  -19.0650 O.2   123  GLU123     -0.2715
     44  CB        57.5060   -5.4240  -15.8710 C.3   123  GLU123      0.0429
     45  CG        56.5050   -4.7930  -14.9060 C.3   123  GLU123      0.1163
     46  CD        57.0650   -3.5930  -14.1540 C.2   123  GLU123      0.3649
     47  OE1       57.7890   -2.7690  -14.7650 O.co2 123  GLU123     -0.2457
     48  OE2       56.7730   -3.4890  -12.9380 O.co2 123  GLU123     -0.2457
     49  N         56.9500   -7.2160  -18.3440 N.am  124  VAL124     -0.1963
     50  CA        57.2280   -8.3000  -19.3050 C.3   124  VAL124      0.1727
     51  C         57.8870   -7.8160  -20.6150 C.2   124  VAL124      0.2616
     52  O         57.4670   -6.8160  -21.2050 O.2   124  VAL124     -0.2715
     53  CB        55.9500   -9.1080  -19.6200 C.3   124  VAL124      0.0290
     54  CG1       55.5000   -9.9090  -18.4130 C.3   124  VAL124      0.0023
     55  CG2       54.8430   -8.1920  -20.1460 C.3   124  VAL124      0.0023
     56  N         58.9180   -8.5120  -21.0820 N.am  125  ASN125     -0.1958
     57  CA        59.6470   -8.1040  -22.2820 C.3   125  ASN125      0.1819
     58  C         58.8810   -8.4950  -23.5570 C.2   125  ASN125      0.2621
     59  O         59.0830   -9.5700  -24.1190 O.2   125  ASN125     -0.2715
     60  CB        61.0040   -8.7910  -22.2710 C.3   125  ASN125      0.1195
     61  CG        62.1130   -7.9110  -22.7850 C.2   125  ASN125      0.2630
     62  OD1       62.6030   -7.0170  -22.0840 O.2   125  ASN125     -0.2716
     63  ND2       62.5560   -8.1920  -24.0100 N.am  125  ASN125     -0.0877
     64  N         58.0160   -7.5990  -24.0170 N.am  126  LEU126     -0.1963
     65  CA        57.0170   -7.9010  -25.0230 C.3   126  LEU126      0.1728
     66  C         57.2250   -7.0000  -26.2320 C.2   126  LEU126      0.2616
     67  O         57.7100   -5.8820  -26.1040 O.2   126  LEU126     -0.2715
     68  CB        55.6150   -7.6840  -24.4520 C.3   126  LEU126      0.0311
     69  CG        54.7040   -8.8600  -24.0710 C.3   126  LEU126      0.0022
     70  CD1       55.4870   -9.9380  -23.3750 C.3   126  LEU126      0.0001
     71  CD2       53.5410   -8.4480  -23.1730 C.3   126  LEU126      0.0001
     72  N         56.8540   -7.5010  -27.4030 N.am  127  GLU127     -0.1963
     73  CA        56.9220   -6.7000  -28.5930 C.3   127  GLU127      0.1733
     74  C         55.5580   -6.6860  -29.2440 C.2   127  GLU127      0.2616
     75  O         55.0610   -7.7390  -29.6500 O.2   127  GLU127     -0.2715
     76  CB        57.9380   -7.2940  -29.5640 C.3   127  GLU127      0.0429
     77  CG        58.1310   -6.5350  -30.8490 C.3   127  GLU127      0.1163
     78  CD        59.3430   -7.1250  -31.6210 C.2   127  GLU127      0.3649
     79  OE1       60.4740   -7.0560  -31.0650 O.co2 127  GLU127     -0.2457
     80  OE2       59.1410   -7.7490  -32.6940 O.co2 127  GLU127     -0.2457
     81  N         55.0310   -5.4780  -29.4270 N.am  128  PHE128     -0.1960
     82  CA        53.6940   -5.2620  -29.9990 C.3   128  PHE128      0.1771
     83  C         53.7000   -4.7480  -31.4330 C.2   128  PHE128      0.2620
     84  O         54.4790   -3.8590  -31.7260 O.2   128  PHE128     -0.2715
     85  CB        52.9390   -4.2650  -29.1220 C.3   128  PHE128      0.0574
     86  CG        52.4450   -4.8860  -27.8500 C.ar  128  PHE128     -0.0200
     87  CD1       51.2660   -5.6180  -27.8490 C.ar  128  PHE128     -0.0042
     88  CD2       53.1950   -4.8050  -26.6820 C.ar  128  PHE128     -0.0042
     89  CE1       50.7960   -6.1990  -26.6880 C.ar  128  PHE128     -0.0003
     90  CE2       52.7290   -5.3840  -25.5070 C.ar  128  PHE128     -0.0003
     91  CZ        51.5440   -6.0930  -25.5120 C.ar  128  PHE128     -0.0000
     92  N         52.8760   -5.3330  -32.3050 N.am  129  HIS129     -0.1959
     93  CA        52.7330   -4.9010  -33.6880 C.3   129  HIS129      0.1787
     94  C         51.2670   -4.5520  -33.8450 C.2   129  HIS129      0.2620
     95  O         50.4010   -5.4440  -33.7700 O.2   129  HIS129     -0.2715
     96  CB        53.0210   -6.0440  -34.6680 C.3   129  HIS129      0.0785
     97  CG        54.4380   -6.5400  -34.6540 C.ar  129  HIS129      0.0821
     98  ND1       55.1710   -6.6970  -33.4940 N.ar  129  HIS129     -0.2267
     99  CD2       55.2400   -6.9640  -35.6580 C.ar  129  HIS129      0.1154
    100  CE1       56.3740   -7.1610  -33.7840 C.ar  129  HIS129      0.1986
    101  NE2       56.4290   -7.3610  -35.0880 N.ar  129  HIS129     -0.2212
    102  N         51.0190   -3.2750  -34.1190 N.am  130  ILE130     -0.1977
    103  CA        49.6880   -2.7090  -34.1300 C.3   130  ILE130      0.1596
    104  C         49.3670   -2.0880  -35.4760 C.2   130  ILE130      0.2287
    105  O         50.0510   -1.1570  -35.9200 O.2   130  ILE130     -0.2864
    106  CB        49.5090   -1.6100  -33.0400 C.3   130  ILE130      0.0276
    107  CG1       49.9550   -2.1480  -31.6650 C.3   130  ILE130      0.0022
    108  CG2       48.0600   -1.1350  -33.0130 C.3   130  ILE130      0.0022
    109  CD1       49.6640   -1.1900  -30.5510 C.3   130  ILE130      0.0001
    110  N         40.6830    2.7030  -53.4410 N.3   150  LYS150     -0.1245
    111  CA        40.0810    1.4310  -53.0400 C.3   150  LYS150      0.1561
    112  C         38.6140    1.6190  -52.6380 C.2   150  LYS150      0.2260
    113  O         38.2210    1.9210  -51.4800 O.2   150  LYS150     -0.2867
    114  CB        40.8990    0.7770  -51.9300 C.3   150  LYS150      0.0271
    115  CG        42.2360    0.2510  -52.4110 C.3   150  LYS150      0.0035
    116  CD        43.1900   -0.1240  -51.2780 C.3   150  LYS150      0.0206
    117  CE        44.3840   -0.9130  -51.8610 C.3   150  LYS150      0.1093
    118  NZ        45.4640   -1.2030  -50.8760 N.3   150  LYS150     -0.1314
    119  N         41.9380   -3.7600  -48.0440 N.3   168  ALA168     -0.1231
    120  CA        41.7510   -2.5850  -47.1580 C.3   168  ALA168      0.1694
    121  C         43.0970   -2.1160  -46.6150 C.2   168  ALA168      0.2593
    122  O         43.8750   -2.9470  -46.1710 O.2   168  ALA168     -0.2718
    123  CB        40.7880   -2.9220  -45.9660 C.3   168  ALA168      0.0304
    124  N         43.3900   -0.8190  -46.6140 N.am  169  THR169     -0.1939
    125  CA        44.6290   -0.3860  -45.9480 C.3   169  THR169      0.2028
    126  C         44.7980   -0.8840  -44.5120 C.2   169  THR169      0.2642
    127  O         43.8300   -1.0210  -43.7270 O.2   169  THR169     -0.2714
    128  CB        44.7220    1.1480  -45.8930 C.3   169  THR169      0.1808
    129  OG1       44.4800    1.6530  -47.1920 O.3   169  THR169     -0.2208
    130  CG2       46.1110    1.6200  -45.4170 C.3   169  THR169      0.0379
    131  N         46.0540   -1.1460  -44.1770 N.am  170  GLU170     -0.1963
    132  CA        46.4500   -1.5630  -42.8690 C.3   170  GLU170      0.1733
    133  C         47.6140   -0.6700  -42.4790 C.2   170  GLU170      0.2616
    134  O         48.6980   -0.7770  -43.0430 O.2   170  GLU170     -0.2715
    135  CB        46.8660   -3.0190  -42.9190 C.3   170  GLU170      0.0429
    136  CG        45.6870   -3.9620  -42.9730 C.3   170  GLU170      0.1163
    137  CD        46.0960   -5.4050  -43.0250 C.2   170  GLU170      0.3649
    138  OE1       47.1600   -5.6830  -43.6180 O.co2 170  GLU170     -0.2457
    139  OE2       45.3670   -6.2580  -42.4750 O.co2 170  GLU170     -0.2457
    140  N         47.3910    0.2710  -41.5800 N.am  171  ARG171     -0.1963
    141  CA        48.4350    1.2380  -41.2930 C.3   171  ARG171      0.1729
    142  C         49.1190    0.9060  -39.9500 C.2   171  ARG171      0.2616
    143  O         48.4480    0.7510  -38.9220 O.2   171  ARG171     -0.2715
    144  CB        47.7910    2.6270  -41.3320 C.3   171  ARG171      0.0348
    145  CG        48.7430    3.7810  -41.4940 C.3   171  ARG171      0.0492
    146  CD        49.4020    3.8340  -42.8910 C.3   171  ARG171      0.2205
    147  NE        48.5070    4.2020  -43.9860 N.pl3 171  ARG171     -0.0865
    148  CZ        47.8920    5.3770  -44.0940 C.cat 171  ARG171      0.5346
    149  NH1       48.0230    6.2810  -43.1220 N.pl3 171  ARG171      0.1354
    150  NH2       47.1240    5.6530  -45.1490 N.pl3 171  ARG171      0.1354
    151  N         50.4390    0.7340  -39.9720 N.am  172  PHE172     -0.1960
    152  CA        51.1640    0.4650  -38.7390 C.3   172  PHE172      0.1771
    153  C         51.2130    1.7140  -37.9150 C.2   172  PHE172      0.2619
    154  O         51.3680    2.8230  -38.4300 O.2   172  PHE172     -0.2715
    155  CB        52.5680   -0.1400  -38.9720 C.3   172  PHE172      0.0574
    156  CG        52.5150   -1.5690  -39.4180 C.ar  172  PHE172     -0.0200
    157  CD1       52.5040   -2.5930  -38.5010 C.ar  172  PHE172     -0.0042
    158  CD2       52.4590   -1.8880  -40.7550 C.ar  172  PHE172     -0.0042
    159  CE1       52.4670   -3.8970  -38.9090 C.ar  172  PHE172     -0.0003
    160  CE2       52.4050   -3.1920  -41.1720 C.ar  172  PHE172     -0.0003
    161  CZ        52.3690   -4.2050  -40.2380 C.ar  172  PHE172     -0.0000
    162  N         50.9920    1.5470  -36.6220 N.am  173  VAL173     -0.1963
    163  CA        51.0240    2.6880  -35.7230 C.3   173  VAL173      0.1727
    164  C         51.8840    2.3290  -34.5320 C.2   173  VAL173      0.2616
    165  O         51.9600    1.1680  -34.1560 O.2   173  VAL173     -0.2715
    166  CB        49.6210    3.0740  -35.2150 C.3   173  VAL173      0.0290
    167  CG1       48.8420    3.6100  -36.3680 C.3   173  VAL173      0.0023
    168  CG2       48.9220    1.8450  -34.5730 C.3   173  VAL173      0.0023
    169  N         52.5020    3.3140  -33.9080 N.am  174  SER174     -0.1950
    170  CA        53.3390    2.9700  -32.7850 C.3   174  SER174      0.1924
    171  C         53.2120    4.0670  -31.7550 C.2   174  SER174      0.2314
    172  O         54.0090    4.1150  -30.8540 O.2   174  SER174     -0.2863
    173  CB        54.8020    2.8450  -33.2420 C.3   174  SER174      0.2116
    174  OG        55.2510    4.1550  -33.5200 O.3   174  SER174     -0.2180
    175  N         50.0590    8.6590  -33.7980 N.3   178  ASP178     -0.1239
    176  CA        49.9560    7.9870  -35.1040 C.3   178  ASP178      0.1674
    177  C         48.5060    7.5380  -35.3040 C.2   178  ASP178      0.2266
    178  O         47.9540    7.6740  -36.3930 O.2   178  ASP178     -0.2867
    179  CB        50.7990    6.7000  -35.1450 C.3   178  ASP178      0.1410
    180  CG        52.3160    6.9230  -35.2360 C.2   178  ASP178      0.3668
    181  OD1       52.8010    8.0640  -35.3790 O.co2 178  ASP178     -0.2456
    182  OD2       53.0570    5.9100  -35.1490 O.co2 178  ASP178     -0.2456
    183  N         59.1150  -12.0110  -25.8770 N.3   217  LEU217     -0.1231
    184  CA        60.5100  -12.2770  -26.2590 C.3   217  LEU217      0.1693
    185  C         61.2310  -13.3150  -25.3700 C.2   217  LEU217      0.2591
    186  O         62.2640  -13.8530  -25.7570 O.2   217  LEU217     -0.2718
    187  CB        61.3250  -10.9770  -26.3770 C.3   217  LEU217      0.0284
    188  CG        60.7920   -9.9190  -27.3490 C.3   217  LEU217      0.0019
    189  CD1       61.4710   -8.5690  -27.1380 C.3   217  LEU217      0.0001
    190  CD2       60.9510  -10.3680  -28.7800 C.3   217  LEU217      0.0001
    191  N         60.6790  -13.6260  -24.2060 N.am  218  GLU218     -0.1979
    192  CA        61.3050  -14.6160  -23.3250 C.3   218  GLU218      0.1602
    193  C         60.9030  -16.0390  -23.6820 C.2   218  GLU218      0.2287
    194  O         61.7550  -16.9240  -23.7130 O.2   218  GLU218     -0.2864
    195  CB        60.9540  -14.3400  -21.8720 C.3   218  GLU218      0.0415
    196  CG        61.3490  -12.9510  -21.4120 C.3   218  GLU218      0.1163
    197  CD        60.8730  -12.6670  -19.9990 C.2   218  GLU218      0.3649
    198  OE1       61.0860  -13.5550  -19.1350 O.co2 218  GLU218     -0.2457
    199  OE2       60.2870  -11.5740  -19.7710 O.co2 218  GLU218     -0.2457
@<TRIPOS>BOND
     1   110   111    1
     2   111   112    1
     3   111   114    1
     4   112   113    2
     5   115   114    1
     6   115   116    1
     7   117   116    1
     8   117   118    1
     9   119   120    1
    10   129   128    1
    11   120   121    1
    12   120   123    1
    13   121   124   am
    14   121   122    2
    15   124   125    1
    16   125   128    1
    17   125   126    1
    18   128   130    1
    19   150   148    1
    20   126   131   am
    21   126   127    2
    22   131   132    1
    23   148   147    2
    24   148   149    1
    25   147   146    1
    26   138   137   ar
    27   134   133    2
    28   137   136    1
    29   137   139   ar
    30   136   135    1
    31   135   132    1
    32   146   145    1
    33   132   133    1
    34   133   140   am
    35   140   141    1
    36   145   144    1
    37   144   141    1
    38   141   142    1
    39   160   158   ar
    40   160   161   ar
    41   158   156   ar
    42   161   159   ar
    43   151   142   am
    44   151   152    1
    45   142   143    2
    46   156   155    1
    47   156   157   ar
    48   155   152    1
    49   159   157   ar
    50   152   153    1
    51   154   153    2
    52   153   162   am
    53   162   163    1
    54   178   177    2
    55   167   166    1
    56   105   104    2
    57   163   166    1
    58   163   164    1
    59    99   101   ar
    60    99    97   ar
    61   104   103    1
    62   181   180   ar
    63   177   176    1
    64   180   182   ar
    65   180   179    1
    66   166   168    1
    67   179   176    1
    68   176   175    1
    69   101   100   ar
    70    96    97    1
    71    96    93    1
    72    97    98   ar
    73   164   165    2
    74   164   169   am
    75   103   102    1
    76   103   106    1
    77   102    94   am
    78   169   170    1
    79    94    95    2
    80    94    93    1
    81   100    98   ar
    82    93    92    1
    83   174   173    1
    84   173   170    1
    85   106   108    1
    86   106   107    1
    87   170   171    1
    88    80    78   ar
    89    92    83   am
    90   171   172    2
    91    84    83    2
    92   107   109    1
    93    78    79   ar
    94    78    77    1
    95    83    82    1
    96    77    76    1
    97    11    10   ar
    98    11     9   ar
    99    82    81    1
   100    82    85    1
   101    10     8   ar
   102    75    74    2
   103     9     7   ar
   104    76    73    1
   105    81    74   am
   106    74    73    1
   107    85    86    1
   108   190   188    1
   109    73    72    1
   110     8     6   ar
   111     7     6   ar
   112    86    87   ar
   113    86    88   ar
   114    87    89   ar
   115     6     5    1
   116    72    66   am
   117   188   189    1
   118   188   187    1
   119    89    91   ar
   120    88    90   ar
   121    19    17    1
   122    31    30    1
   123   187   184    1
   124   184   183    1
   125   184   185    1
   126    66    67    2
   127    66    65    1
   128     5     2    1
   129   186   185    2
   130    91    90   ar
   131    30    28   ar
   132    30    29   ar
   133     1     2    1
   134   185   191   am
   135    28    26   ar
   136     2     3    1
   137    17    16    1
   138    65    68    1
   139    65    64    1
   140    18    16    1
   141    16    13    1
   142    68    69    1
   143    29    27   ar
   144   191   192    1
   145    59    58    2
   146    69    70    1
   147    69    71    1
   148    26    25   ar
   149    64    58   am
   150    63    61   am
   151     3     4    2
   152   194   193    2
   153   193   192    1
   154    58    57    1
   155   192   195    1
   156    13    12    1
   157    13    14    1
   158    27    25   ar
   159    25    24    1
   160    61    60    1
   161    61    62    2
   162    14    20   am
   163    14    15    2
   164    57    60    1
   165    57    56    1
   166    20    21    1
   167   195   196    1
   168    38    39    1
   169    38    37    1
   170    21    24    1
   171    21    22    1
   172   196   197    1
   173    52    51    2
   174    56    51   am
   175    51    50    1
   176    37    36    1
   177    55    53    1
   178    22    23    2
   179   197   199   ar
   180   197   198   ar
   181    36    33    1
   182    53    50    1
   183    53    54    1
   184    50    49    1
   185    43    42    2
   186    35    34    2
   187    32    33    1
   188    33    34    1
   189    34    40   am
   190    49    42   am
   191    42    41    1
   192    40    41    1
   193    41    44    1
   194    44    45    1
   195    45    46    1
   196    47    46   ar
   197    46    48   ar
