@<TRIPOS>MOLECULE
tmp/2y66A00.pdb
 190 181 0 0 0
SMALL
GASTEIGER

@<TRIPOS>ATOM
      1  N         -1.6850    7.6810  116.8780 N.3    11  ILE11      -0.1231
      2  CA        -1.6630    8.3360  118.1780 C.3    11  ILE11       0.1692
      3  C         -1.8600    9.8330  118.0370 C.2    11  ILE11       0.2593
      4  O         -1.0690   10.5110  117.3720 O.2    11  ILE11      -0.2718
      5  CB        -0.3840    8.0710  118.9550 C.3    11  ILE11       0.0266
      6  CG1       -0.0640    6.5660  119.0230 C.3    11  ILE11       0.0019
      7  CG2       -0.4910    8.7250  120.3410 C.3    11  ILE11       0.0020
      8  CD1        1.3170    6.3030  119.6060 C.3    11  ILE11       0.0001
      9  N         -2.9520   10.3400  118.6070 N.am   12  GLY12      -0.1942
     10  CA        -3.2140   11.7870  118.6500 C.3    12  GLY12       0.2014
     11  C         -4.3450   12.1780  117.7200 C.2    12  GLY12       0.2639
     12  O         -4.3020   11.9010  116.5050 O.2    12  GLY12      -0.2714
     13  N         -5.3680   12.8010  118.2800 N.am   13  LEU13      -0.1963
     14  CA        -6.4310   13.3660  117.4740 C.3    13  LEU13       0.1728
     15  C         -6.1870   14.8690  117.3340 C.2    13  LEU13       0.2616
     16  O         -5.1190   15.3450  117.6780 O.2    13  LEU13      -0.2715
     17  CB        -7.7920   13.0770  118.1050 C.3    13  LEU13       0.0311
     18  CG        -8.9060   12.7650  117.0930 C.3    13  LEU13       0.0022
     19  CD1       -8.4860   11.7290  116.0550 C.3    13  LEU13       0.0001
     20  CD2      -10.1860   12.3610  117.7580 C.3    13  LEU13       0.0001
     21  N         -7.1660   15.6150  116.8340 N.am   14  GLY14      -0.1955
     22  CA        -6.8600   16.9460  116.3050 C.3    14  GLY14       0.1869
     23  C         -6.8230   16.9160  114.7950 C.2    14  GLY14       0.2309
     24  O         -7.0130   15.8710  114.1930 O.2    14  GLY14      -0.2863
     25  N         -4.5460   17.1330  112.6280 N.3    16  THR16      -0.1218
     26  CA        -3.4960   16.3250  112.0190 C.3    16  THR16       0.1862
     27  C         -3.7850   14.8360  112.1870 C.2    16  THR16       0.2287
     28  O         -3.7160   14.0770  111.2180 O.2    16  THR16      -0.2866
     29  CB        -2.1420   16.6940  112.5770 C.3    16  THR16       0.1770
     30  OG1       -1.9020   18.0790  112.2920 O.3    16  THR16      -0.2211
     31  CG2       -1.0580   15.8600  111.9030 C.3    16  THR16       0.0375
     32  N         -5.3580    8.4640  122.1780 N.3    35  ASP35      -0.1225
     33  CA        -4.8580    9.7790  122.5690 C.3    35  ASP35       0.1805
     34  C         -4.8020    9.7500  124.0900 C.2    35  ASP35       0.2598
     35  O         -5.7250    9.2000  124.7040 O.2    35  ASP35      -0.2718
     36  CB        -5.8220   10.8610  122.0590 C.3    35  ASP35       0.1424
     37  CG        -5.2530   12.2660  122.1760 C.2    35  ASP35       0.3668
     38  OD1       -4.8130   12.6570  123.2870 O.co2  35  ASP35      -0.2456
     39  OD2       -5.2310   12.9750  121.1470 O.co2  35  ASP35      -0.2456
     40  N         -3.7100   10.2210  124.6950 N.am   36  THR36      -0.1939
     41  CA        -3.5590   10.0830  126.1530 C.3    36  THR36       0.2028
     42  C         -4.4290   11.0750  126.9030 C.2    36  THR36       0.2642
     43  O         -4.6060   10.9460  128.1140 O.2    36  THR36      -0.2714
     44  CB        -2.1200   10.2600  126.6480 C.3    36  THR36       0.1808
     45  OG1       -1.7160   11.6180  126.4770 O.3    36  THR36      -0.2208
     46  CG2       -1.1740    9.3560  125.9000 C.3    36  THR36       0.0379
     47  N         -4.9610   12.0560  126.1770 N.am   37  ARG37      -0.1977
     48  CA        -5.8180   13.0680  126.7860 C.3    37  ARG37       0.1597
     49  C         -7.1770   12.4380  126.9990 C.2    37  ARG37       0.2287
     50  O         -7.7060   11.7560  126.1120 O.2    37  ARG37      -0.2864
     51  CB        -5.9420   14.2960  125.8780 C.3    37  ARG37       0.0334
     52  CG        -4.6270   15.0490  125.6990 C.3    37  ARG37       0.0492
     53  CD        -4.7130   16.1160  124.6250 C.3    37  ARG37       0.2205
     54  NE        -4.7360   15.5490  123.2790 N.pl3  37  ARG37      -0.0865
     55  CZ        -4.6070   16.2470  122.1510 C.cat  37  ARG37       0.5346
     56  NH1       -4.4170   17.5680  122.1690 N.pl3  37  ARG37       0.1354
     57  NH2       -4.6500   15.6150  120.9900 N.pl3  37  ARG37       0.1354
     58  N          1.5730   11.2600  116.3360 N.3    71  SER71      -0.1203
     59  CA         1.4950   12.7180  116.3670 C.3    71  SER71       0.2005
     60  C          2.8160   13.2760  116.8670 C.2    71  SER71       0.2461
     61  O          3.4420   12.7010  117.7460 O.2    71  SER71      -0.2732
     62  CB         0.4060   13.1460  117.3660 C.3    71  SER71       0.2103
     63  OG         0.4750   14.5470  117.6310 O.3    71  SER71      -0.2182
     64  N          3.2040   14.4420  116.3620 N.am   72  PRO72      -0.2717
     65  CA         4.3700   15.1040  116.9220 C.3    72  PRO72       0.1536
     66  C          4.2090   15.4250  118.3970 C.2    72  PRO72       0.2599
     67  O          5.1940   15.6620  119.0970 O.2    72  PRO72      -0.2715
     68  CB         4.5220   16.3530  116.0450 C.3    72  PRO72       0.0310
     69  CG         3.2020   16.5950  115.4660 C.3    72  PRO72       0.0237
     70  CD         2.6420   15.1930  115.2280 C.3    72  PRO72       0.0939
     71  N          2.9740   15.3770  118.8850 N.am   73  GLY73      -0.1941
     72  CA         2.6590   15.6880  120.2640 C.3    73  GLY73       0.2014
     73  C          2.9210   14.5760  121.2660 C.2    73  GLY73       0.2638
     74  O          2.8100   14.8020  122.4660 O.2    73  GLY73      -0.2714
     75  N          3.2620   13.3760  120.8020 N.am   74  ILE74      -0.1977
     76  CA         3.6190   12.3070  121.7300 C.3    74  ILE74       0.1596
     77  C          5.1160   12.0190  121.5890 C.2    74  ILE74       0.2287
     78  O          5.6410   11.9150  120.4660 O.2    74  ILE74      -0.2864
     79  CB         2.7680   11.0500  121.4620 C.3    74  ILE74       0.0276
     80  CG1        2.9290   10.0150  122.5880 C.3    74  ILE74       0.0022
     81  CG2        3.1120   10.4500  120.0950 C.3    74  ILE74       0.0022
     82  CD1        2.0400   10.3030  123.8070 C.3    74  ILE74       0.0001
     83  N          3.3180   22.2350  109.6760 N.3   138  ASN138     -0.1240
     84  CA         3.2320   22.6000  111.0720 C.3   138  ASN138      0.1653
     85  C          2.4760   23.9330  111.1920 C.2   138  ASN138      0.2266
     86  O          2.0900   24.3580  112.2850 O.2   138  ASN138     -0.2867
     87  CB         4.6510   22.6590  111.6820 C.3   138  ASN138      0.1155
     88  CG         4.6280   22.8400  113.1870 C.2   138  ASN138      0.2627
     89  OD1        4.0630   22.0190  113.9130 O.2   138  ASN138     -0.2716
     90  ND2        5.2470   23.9220  113.6660 N.am  138  ASN138     -0.0877
     91  N          8.3560   20.8710  112.2300 N.3   159  SER159     -0.1217
     92  CA         8.9030   21.0010  113.5910 C.3   159  SER159      0.1889
     93  C          9.9720   19.9410  113.8530 C.2   159  SER159      0.2288
     94  O         10.0530   18.9220  113.1400 O.2   159  SER159     -0.2866
     95  CB         7.7990   20.8320  114.6280 C.3   159  SER159      0.2089
     96  OG         7.3110   19.5080  114.5590 O.3   159  SER159     -0.2183
     97  N          9.8560   17.8840  116.2070 N.3   161  PHE161     -0.1241
     98  CA         9.0960   16.6640  116.5160 C.3   161  PHE161      0.1605
     99  C          8.6920   15.8970  115.2760 C.2   161  PHE161      0.2264
    100  O          8.8580   14.6600  115.2040 O.2   161  PHE161     -0.2867
    101  CB         7.8210   17.0100  117.3040 C.3   161  PHE161      0.0534
    102  CG         8.0860   17.7850  118.5820 C.ar  161  PHE161     -0.0203
    103  CD1        9.1110   17.4470  119.4270 C.ar  161  PHE161     -0.0042
    104  CD2        7.2460   18.8320  118.9380 C.ar  161  PHE161     -0.0042
    105  CE1        9.3460   18.1830  120.6120 C.ar  161  PHE161     -0.0003
    106  CE2        7.4530   19.5390  120.1340 C.ar  161  PHE161     -0.0003
    107  CZ         8.5190   19.2100  120.9640 C.ar  161  PHE161     -0.0000
    108  N         14.6370   25.4590  123.0460 N.3   182  ASP182     -0.1225
    109  CA        13.1610   25.3400  123.0880 C.3   182  ASP182      0.1805
    110  C         12.8180   23.8660  123.3110 C.2   182  ASP182      0.2597
    111  O         13.6720   22.9860  123.1070 O.2   182  ASP182     -0.2718
    112  CB        12.5510   25.8770  121.7640 C.3   182  ASP182      0.1424
    113  CG        11.0390   26.1500  121.8490 C.2   182  ASP182      0.3668
    114  OD1       10.4230   25.9860  122.9220 O.co2 182  ASP182     -0.2456
    115  OD2       10.4930   26.5130  120.7890 O.co2 182  ASP182     -0.2456
    116  N         11.6020   23.6030  123.7660 N.am  183  HIS183     -0.1975
    117  CA        11.1020   22.2210  123.8970 C.3   183  HIS183      0.1656
    118  C         11.9650   21.3490  124.8010 C.2   183  HIS183      0.2291
    119  O         12.0420   20.1430  124.6010 O.2   183  HIS183     -0.2864
    120  CB        10.9540   21.5780  122.5090 C.3   183  HIS183      0.0771
    121  CG        10.0670   22.3580  121.5900 C.ar  183  HIS183      0.0820
    122  ND1        8.7650   22.6560  121.9170 N.ar  183  HIS183     -0.2267
    123  CD2       10.2840   22.8770  120.3620 C.ar  183  HIS183      0.1154
    124  CE1        8.2190   23.3430  120.9280 C.ar  183  HIS183      0.1986
    125  NE2        9.1190   23.5030  119.9770 N.ar  183  HIS183     -0.2212
    126  N         10.8550   18.0920  126.1830 N.3   186  ARG186     -0.1245
    127  CA        10.7650   16.9540  125.2470 C.3   186  ARG186      0.1563
    128  C         12.1480   16.4470  124.8440 C.2   186  ARG186      0.2260
    129  O         12.2570   15.4630  124.1060 O.2   186  ARG186     -0.2867
    130  CB        10.0030   17.3270  123.9610 C.3   186  ARG186      0.0307
    131  CG         8.4770   17.2450  124.0620 C.3   186  ARG186      0.0489
    132  CD         7.9720   15.8210  123.9200 C.3   186  ARG186      0.2205
    133  NE         8.2070   15.2290  122.6040 N.pl3 186  ARG186     -0.0865
    134  CZ         7.3330   15.2820  121.5960 C.cat 186  ARG186      0.5346
    135  NH1        6.2340   16.0090  121.7180 N.pl3 186  ARG186      0.1354
    136  NH2        7.6080   14.6920  120.4370 N.pl3 186  ARG186      0.1354
    137  N          6.9130   31.9790  121.4440 N.3   315  THR315     -0.1218
    138  CA         6.7100   30.8890  122.4010 C.3   315  THR315      0.1862
    139  C          8.0250   30.3450  122.9410 C.2   315  THR315      0.2287
    140  O          8.0460   29.3310  123.6400 O.2   315  THR315     -0.2866
    141  CB         5.9780   29.7380  121.7030 C.3   315  THR315      0.1770
    142  OG1        6.6810   29.3670  120.5040 O.3   315  THR315     -0.2211
    143  CG2        4.5800   30.1960  121.3050 C.3   315  THR315      0.0375
    144  N          8.4330   25.6070  129.4010 N.3   342  LYS342     -0.1245
    145  CA         9.0430   24.3790  128.8760 C.3   342  LYS342      0.1561
    146  C         10.4610   24.1650  129.4410 C.2   342  LYS342      0.2260
    147  O         11.3460   23.6230  128.7550 O.2   342  LYS342     -0.2867
    148  CB         9.0600   24.3910  127.3370 C.3   342  LYS342      0.0271
    149  CG         7.6490   24.2670  126.7120 C.3   342  LYS342      0.0035
    150  CD         7.6390   24.6130  125.2070 C.3   342  LYS342      0.0206
    151  CE         7.6700   26.1340  125.0220 C.3   342  LYS342      0.1093
    152  NZ         7.7300   26.4520  123.5690 N.3   342  LYS342     -0.1314
    153  N          5.0670   28.7650  125.8200 N.3   408  ALA408     -0.1231
    154  CA         3.8490   28.2280  125.2490 C.3   408  ALA408      0.1694
    155  C          2.6170   28.7180  126.0090 C.2   408  ALA408      0.2593
    156  O          2.7020   29.0660  127.1980 O.2   408  ALA408     -0.2718
    157  CB         3.9040   26.6890  125.2350 C.3   408  ALA408      0.0304
    158  N          1.4880   28.7480  125.3070 N.am  409  SER409     -0.1938
    159  CA         0.2150   29.2290  125.8530 C.3   409  SER409      0.2055
    160  C         -0.6070   28.1040  126.4690 C.2   409  SER409      0.2642
    161  O         -1.6720   28.3390  127.0280 O.2   409  SER409     -0.2714
    162  CB        -0.6380   29.8790  124.7460 C.3   409  SER409      0.2130
    163  OG        -1.0230   28.9040  123.7950 O.3   409  SER409     -0.2179
    164  N         -0.1090   26.8780  126.3490 N.am  410  LEU410     -0.1977
    165  CA        -0.9820   25.7080  126.4790 C.3   410  LEU410      0.1596
    166  C         -1.4790   25.4220  127.9090 C.2   410  LEU410      0.2287
    167  O         -2.4160   24.6210  128.1100 O.2   410  LEU410     -0.2864
    168  CB        -0.2980   24.4830  125.8780 C.3   410  LEU410      0.0297
    169  CG         0.0710   24.6640  124.3890 C.3   410  LEU410      0.0022
    170  CD1        0.7040   23.4000  123.8400 C.3   410  LEU410      0.0001
    171  CD2       -1.1440   25.1100  123.5400 C.3   410  LEU410      0.0001
    172  N         -4.1820   27.5900  122.2040 N.3   415  ASN415     -0.1225
    173  CA        -3.0100   27.7990  121.3590 C.3   415  ASN415      0.1785
    174  C         -2.6310   29.2690  121.3640 C.2   415  ASN415      0.2597
    175  O         -3.3820   30.0970  121.9080 O.2   415  ASN415     -0.2718
    176  CB        -3.2340   27.3130  119.9090 C.3   415  ASN415      0.1169
    177  CG        -4.5520   27.7940  119.3120 C.2   415  ASN415      0.2627
    178  OD1       -4.9400   28.9640  119.4410 O.2   415  ASN415     -0.2716
    179  ND2       -5.2650   26.8750  118.6610 N.am  415  ASN415     -0.0877
    180  N         -1.4750   29.5980  120.7660 N.am  416  PHE416     -0.1976
    181  CA        -0.9990   30.9800  120.7890 C.3   416  PHE416      0.1639
    182  C         -1.9250   31.9290  120.0170 C.2   416  PHE416      0.2290
    183  O         -1.9820   33.1130  120.3290 O.2   416  PHE416     -0.2864
    184  CB         0.4470   31.0910  120.2770 C.3   416  PHE416      0.0560
    185  CG         0.5690   30.8960  118.7740 C.ar  416  PHE416     -0.0200
    186  CD1        0.4000   31.9710  117.9090 C.ar  416  PHE416     -0.0042
    187  CD2        0.8120   29.6380  118.2450 C.ar  416  PHE416     -0.0042
    188  CE1        0.4810   31.8000  116.5220 C.ar  416  PHE416     -0.0003
    189  CE2        0.9050   29.4440  116.8550 C.ar  416  PHE416     -0.0003
    190  CZ         0.7310   30.5190  115.9900 C.ar  416  PHE416     -0.0000
@<TRIPOS>BOND
     1    83    84    1
     2    84    85    1
     3    84    87    1
     4    85    86    2
     5    28    27    2
     6    87    88    1
     7    31    29    1
     8    26    27    1
     9    26    29    1
    10    26    25    1
    11    91    92    1
    12    30    29    1
    13    94    93    2
    14    88    90   am
    15    88    89    2
    16    92    93    1
    17    92    95    1
    18    24    23    2
    19    96    95    1
    20    23    22    1
    21   100    99    2
    22    70    69    1
    23    70    64    1
    24    99    98    1
    25    69    68    1
    26   190   188   ar
    27   190   189   ar
    28    68    65    1
    29    19    18    1
    30    97    98    1
    31    22    21    1
    32    58    59    1
    33    64    60   am
    34    64    65    1
    35    59    60    1
    36    59    62    1
    37    12    11    2
    38    98   101    1
    39   188   186   ar
    40    21    15   am
    41   189   187   ar
    42    60    61    2
    43     1     2    1
    44    65    66    1
    45    18    20    1
    46    18    17    1
    47   101   102    1
    48    15    14    1
    49    15    16    2
    50    62    63    1
    51     4     3    2
    52    14    17    1
    53    14    13    1
    54    11    13   am
    55    11    10    1
    56   186   185   ar
    57     3     2    1
    58     3     9   am
    59     2     5    1
    60   187   185   ar
    61    66    71   am
    62    66    67    2
    63   102   104   ar
    64   102   103   ar
    65     9    10    1
    66   179   177   am
    67   185   184    1
    68    71    72    1
    69   104   106   ar
    70     5     6    1
    71     5     7    1
    72     6     8    1
    73   177   178    2
    74   177   176    1
    75   103   105   ar
    76   176   173    1
    77   125   123   ar
    78   125   124   ar
    79   182   183    2
    80   182   181    1
    81    81    79    1
    82   106   107   ar
    83    72    73    1
    84   184   181    1
    85   123   121   ar
    86   136   134    1
    87    78    77    2
    88   142   141    1
    89   105   107   ar
    90   180   181    1
    91   180   174   am
    92   115   113   ar
    93    75    73   am
    94    75    76    1
    95   124   122   ar
    96    57    55    1
    97    39    37   ar
    98    73    74    2
    99   143   141    1
   100   173   174    1
   101   173   172    1
   102   174   175    2
   103   137   138    1
   104    79    76    1
   105    79    80    1
   106    77    76    1
   107   121   122   ar
   108   121   120    1
   109   134   135    1
   110   134   133    2
   111   141   138    1
   112   112   113    1
   113   112   109    1
   114   113   114   ar
   115    36    37    1
   116    36    33    1
   117    55    56    1
   118    55    54    2
   119    37    38   ar
   120    32    33    1
   121   138   139    1
   122   120   117    1
   123    33    34    1
   124    80    82    1
   125   133   132    1
   126   139   140    2
   127   108   109    1
   128   109   110    1
   129   111   110    2
   130    54    53    1
   131   110   116   am
   132   171   169    1
   133   152   151    1
   134   116   117    1
   135   163   162    1
   136   170   169    1
   137   117   118    1
   138   132   131    1
   139   130   131    1
   140   130   127    1
   141    34    40   am
   142    34    35    2
   143   129   128    2
   144   169   168    1
   145   119   118    2
   146    53    52    1
   147    40    41    1
   148   162   159    1
   149   128   127    1
   150   151   150    1
   151   150   149    1
   152   157   154    1
   153   127   126    1
   154   154   153    1
   155   154   155    1
   156   158   159    1
   157   158   155   am
   158    52    51    1
   159   159   160    1
   160    51    48    1
   161   168   165    1
   162    46    44    1
   163   155   156    2
   164    50    49    2
   165    41    44    1
   166    41    42    1
   167    47    48    1
   168    47    42   am
   169   164   160   am
   170   164   165    1
   171   160   161    2
   172    45    44    1
   173   165   166    1
   174   149   148    1
   175    48    49    1
   176    42    43    2
   177   148   145    1
   178   166   167    2
   179   147   146    2
   180   145   144    1
   181   145   146    1
