@<TRIPOS>MOLECULE
tmp/2y67A00.pdb
 188 179 0 0 0
SMALL
GASTEIGER

@<TRIPOS>ATOM
      1  N         57.3660   -1.8860   15.6550 N.3    11  ILE11      -0.1231
      2  CA        56.7940   -1.8190   16.9660 C.3    11  ILE11       0.1692
      3  C         55.3040   -1.9760   16.8000 C.2    11  ILE11       0.2593
      4  O         54.6590   -1.1350   16.1780 O.2    11  ILE11      -0.2718
      5  CB        57.0860   -0.4920   17.6420 C.3    11  ILE11       0.0266
      6  CG1       58.5990   -0.2440   17.7000 C.3    11  ILE11       0.0019
      7  CG2       56.5780   -0.5100   19.0740 C.3    11  ILE11       0.0020
      8  CD1       58.9700    1.1120   18.3450 C.3    11  ILE11       0.0001
      9  N         54.7720   -3.0720   17.3420 N.am   12  GLY12      -0.1942
     10  CA        53.3380   -3.3330   17.3180 C.3    12  GLY12       0.2014
     11  C         52.9670   -4.4440   16.3590 C.2    12  GLY12       0.2639
     12  O         53.3190   -4.4210   15.1860 O.2    12  GLY12      -0.2714
     13  N         52.2250   -5.4310   16.8400 N.am   13  LEU13      -0.1963
     14  CA        51.6630   -6.3820   15.9040 C.3    13  LEU13       0.1728
     15  C         50.2400   -5.9830   15.5010 C.2    13  LEU13       0.2616
     16  O         50.0050   -4.8660   14.9820 O.2    13  LEU13      -0.2715
     17  CB        51.7360   -7.8140   16.4430 C.3    13  LEU13       0.0311
     18  CG        52.9170   -8.6140   15.8850 C.3    13  LEU13       0.0022
     19  CD1       53.2450   -9.7990   16.7820 C.3    13  LEU13       0.0001
     20  CD2       52.6680   -9.0770   14.4490 C.3    13  LEU13       0.0001
     21  N         49.2970   -6.8860   15.7420 N.am   14  GLY14      -0.1955
     22  CA        47.9900   -6.7990   15.0950 C.3    14  GLY14       0.1869
     23  C         48.0680   -6.9110   13.5800 C.2    14  GLY14       0.2309
     24  O         49.1470   -7.1660   13.0110 O.2    14  GLY14      -0.2863
     25  N         48.0040   -4.5170   11.4450 N.3    16  THR16      -0.1218
     26  CA        48.8310   -3.4720   10.8350 C.3    16  THR16       0.1862
     27  C         50.2770   -3.8970   10.8680 C.2    16  THR16       0.2287
     28  O         50.9690   -3.8730    9.8530 O.2    16  THR16      -0.2866
     29  CB        48.7090   -2.1520   11.5660 C.3    16  THR16       0.1770
     30  OG1       47.3710   -1.6710   11.4160 O.3    16  THR16      -0.2211
     31  CG2       49.7060   -1.1250   10.9800 C.3    16  THR16       0.0375
     32  N         56.6140   -5.5790   20.7890 N.3    35  ASP35      -0.1225
     33  CA        55.3030   -5.1090   21.2070 C.3    35  ASP35       0.1805
     34  C         55.2750   -5.0910   22.7310 C.2    35  ASP35       0.2598
     35  O         55.7320   -6.0430   23.3630 O.2    35  ASP35      -0.2718
     36  CB        54.2110   -6.0330   20.6550 C.3    35  ASP35       0.1424
     37  CG        52.8060   -5.4300   20.7580 C.2    35  ASP35       0.3668
     38  OD1       52.3660   -5.0710   21.8700 O.co2  35  ASP35      -0.2456
     39  OD2       52.1290   -5.3310   19.7200 O.co2  35  ASP35      -0.2456
     40  N         54.7650   -4.0120   23.3210 N.am   36  THR36      -0.1939
     41  CA        54.8200   -3.8450   24.7720 C.3    36  THR36       0.2028
     42  C         53.8540   -4.8390   25.4570 C.2    36  THR36       0.2642
     43  O         53.9040   -5.0290   26.6680 O.2    36  THR36      -0.2714
     44  CB        54.5160   -2.3850   25.2180 C.3    36  THR36       0.1808
     45  OG1       53.1680   -2.0410   24.8720 O.3    36  THR36      -0.2208
     46  CG2       55.4780   -1.3760   24.5370 C.3    36  THR36       0.0379
     47  N         53.0090   -5.5000   24.6720 N.am   37  ARG37      -0.1977
     48  CA        52.0080   -6.4350   25.2290 C.3    37  ARG37       0.1597
     49  C         52.5750   -7.8580   25.2230 C.2    37  ARG37       0.2287
     50  O         53.2600   -8.2570   24.2820 O.2    37  ARG37      -0.2864
     51  CB        50.6970   -6.4020   24.4160 C.3    37  ARG37       0.0334
     52  CG        49.9610   -5.0550   24.3810 C.3    37  ARG37       0.0492
     53  CD        48.9000   -5.0200   23.2630 C.3    37  ARG37       0.2205
     54  NE        49.4820   -4.9750   21.9170 N.pl3  37  ARG37      -0.0865
     55  CZ        48.7850   -4.7790   20.7950 C.cat  37  ARG37       0.5346
     56  NH1       47.4710   -4.6030   20.8350 N.pl3  37  ARG37       0.1354
     57  NH2       49.4020   -4.7600   19.6200 N.pl3  37  ARG37       0.1354
     58  N         53.9550    1.4520   15.0430 N.3    71  SER71      -0.1203
     59  CA        52.5200    1.3680   15.0570 C.3    71  SER71       0.2005
     60  C         51.9190    2.6440   15.6460 C.2    71  SER71       0.2461
     61  O         52.4970    3.2410   16.5630 O.2    71  SER71      -0.2732
     62  CB        52.0810    0.2180   15.9540 C.3    71  SER71       0.2103
     63  OG        50.7620    0.4710   16.4390 O.3    71  SER71      -0.2182
     64  N         50.7360    3.0490   15.1470 N.am   72  PRO72      -0.2717
     65  CA        50.1080    4.2350   15.7260 C.3    72  PRO72       0.1536
     66  C         49.8440    4.1050   17.2290 C.2    72  PRO72       0.2599
     67  O         49.6030    5.1070   17.8940 O.2    72  PRO72      -0.2715
     68  CB        48.7700    4.3600   14.9710 C.3    72  PRO72       0.0310
     69  CG        48.6500    3.1400   14.1040 C.3    72  PRO72       0.0237
     70  CD        50.0210    2.5320   13.9670 C.3    72  PRO72       0.0939
     71  N         49.8290    2.8870   17.7500 N.am   73  GLY73      -0.1941
     72  CA        49.4100    2.6550   19.1180 C.3    73  GLY73       0.2014
     73  C         50.5530    2.8610   20.1070 C.2    73  GLY73       0.2638
     74  O         50.3840    2.6690   21.2990 O.2    73  GLY73      -0.2714
     75  N         51.7260    3.2550   19.6220 N.am   74  ILE74      -0.1977
     76  CA        52.7930    3.6350   20.5470 C.3    74  ILE74       0.1596
     77  C         53.0940    5.1230   20.4070 C.2    74  ILE74       0.2287
     78  O         53.2910    5.6030   19.3020 O.2    74  ILE74      -0.2864
     79  CB        54.0640    2.8350   20.2730 C.3    74  ILE74       0.0276
     80  CG1       55.1150    3.0790   21.3710 C.3    74  ILE74       0.0022
     81  CG2       54.6520    3.2040   18.9140 C.3    74  ILE74       0.0022
     82  CD1       55.2570    1.9070   22.3250 C.3    74  ILE74       0.0001
     83  N         43.1220    3.3480    8.3570 N.3   138  ASN138     -0.1240
     84  CA        42.6890    3.1940    9.7260 C.3   138  ASN138      0.1653
     85  C         41.3610    2.4260    9.8530 C.2   138  ASN138      0.2266
     86  O         40.9490    2.0810   10.9500 O.2   138  ASN138     -0.2867
     87  CB        42.6000    4.5670   10.3890 C.3   138  ASN138      0.1155
     88  CG        42.4320    4.4730   11.8900 C.2   138  ASN138      0.2627
     89  OD1       43.2210    3.8290   12.5690 O.2   138  ASN138     -0.2716
     90  ND2       41.4130    5.1390   12.4140 N.am  138  ASN138     -0.0877
     91  N         44.2460    8.3110   11.1630 N.3   159  SER159     -0.1217
     92  CA        44.1500    8.8790   12.5140 C.3   159  SER159      0.1889
     93  C         45.2430    9.9060   12.7220 C.2   159  SER159      0.2288
     94  O         46.2350    9.9410   11.9530 O.2   159  SER159     -0.2866
     95  CB        44.3290    7.7980   13.5880 C.3   159  SER159      0.2089
     96  OG        45.6450    7.2300   13.5460 O.3   159  SER159     -0.2183
     97  N         47.3770    9.6810   14.9880 N.3   161  PHE161     -0.1241
     98  CA        48.5950    8.9410   15.3490 C.3   161  PHE161      0.1605
     99  C         49.3980    8.5850   14.1030 C.2   161  PHE161      0.2264
    100  O         50.6370    8.7690   14.0630 O.2   161  PHE161     -0.2867
    101  CB        48.2480    7.6410   16.1310 C.3   161  PHE161      0.0534
    102  CG        47.4650    7.8700   17.4090 C.ar  161  PHE161     -0.0203
    103  CD1       47.7370    8.9420   18.2390 C.ar  161  PHE161     -0.0042
    104  CD2       46.4800    6.9740   17.8060 C.ar  161  PHE161     -0.0042
    105  CE1       46.9980    9.1550   19.4270 C.ar  161  PHE161     -0.0003
    106  CE2       45.7730    7.1720   18.9890 C.ar  161  PHE161     -0.0003
    107  CZ        46.0230    8.2750   19.7970 C.ar  161  PHE161     -0.0000
    108  N         39.8000   14.3650   21.9560 N.3   182  ASP182     -0.1225
    109  CA        39.9360   12.9240   21.9380 C.3   182  ASP182      0.1805
    110  C         41.4050   12.5790   22.1580 C.2   182  ASP182      0.2597
    111  O         42.2840   13.4280   21.9730 O.2   182  ASP182     -0.2718
    112  CB        39.4320   12.3590   20.6060 C.3   182  ASP182      0.1424
    113  CG        39.1560   10.8530   20.6610 C.2   182  ASP182      0.3668
    114  OD1       39.2310   10.2410   21.7520 O.co2 182  ASP182     -0.2456
    115  OD2       38.8960   10.2790   19.5810 O.co2 182  ASP182     -0.2456
    116  N         41.6670   11.3550   22.6010 N.am  183  HIS183     -0.1975
    117  CA        43.0360   10.8370   22.7410 C.3   183  HIS183      0.1656
    118  C         43.9400   11.6100   23.6680 C.2   183  HIS183      0.2291
    119  O         45.1640   11.6140   23.4590 O.2   183  HIS183     -0.2864
    120  CB        43.7350   10.7590   21.3740 C.3   183  HIS183      0.0771
    121  CG        42.9910    9.9430   20.3810 C.ar  183  HIS183      0.0820
    122  ND1       42.6220    8.6380   20.6270 N.ar  183  HIS183     -0.2267
    123  CD2       42.4910   10.2600   19.1620 C.ar  183  HIS183      0.1154
    124  CE1       41.9450    8.1780   19.5890 C.ar  183  HIS183      0.1986
    125  NE2       41.8480    9.1420   18.6870 N.ar  183  HIS183     -0.2212
    126  N         30.5840    2.7610   17.8660 N.3   314  LYS314     -0.1245
    127  CA        31.6920    3.5290   17.2830 C.3   314  LYS314      0.1561
    128  C         31.8360    4.9380   17.8760 C.2   314  LYS314      0.2260
    129  O         32.8080    5.6400   17.6100 O.2   314  LYS314     -0.2867
    130  CB        31.5930    3.5660   15.7520 C.3   314  LYS314      0.0271
    131  CG        32.7700    4.2300   15.0690 C.3   314  LYS314      0.0035
    132  CD        34.0880    3.8330   15.7230 C.3   314  LYS314      0.0206
    133  CE        35.2920    4.1590   14.8340 C.3   314  LYS314      0.1093
    134  NZ        36.1570    5.2200   15.4330 N.3   314  LYS314     -0.1314
    135  N         33.3640    6.7280   20.3570 N.3   316  THR316     -0.1218
    136  CA        34.4440    6.3910   21.2810 C.3   316  THR316      0.1862
    137  C         35.0080    7.6870   21.8600 C.2   316  THR316      0.2287
    138  O         36.0610    7.6950   22.5150 O.2   316  THR316     -0.2866
    139  CB        35.5540    5.6120   20.5510 C.3   316  THR316      0.1770
    140  OG1       36.0930    6.3960   19.4700 O.3   316  THR316     -0.2211
    141  CG2       35.0010    4.3070   20.0050 C.3   316  THR316      0.0375
    142  N         39.8010    8.0900   28.1550 N.3   343  LYS343     -0.1245
    143  CA        41.0310    8.7070   27.6530 C.3   343  LYS343      0.1561
    144  C         41.3060   10.1200   28.2360 C.2   343  LYS343      0.2260
    145  O         41.8070   10.9920   27.5380 O.2   343  LYS343     -0.2867
    146  CB        41.0490    8.7030   26.1090 C.3   343  LYS343      0.0271
    147  CG        41.0220    7.3000   25.4590 C.3   343  LYS343      0.0035
    148  CD        40.6070    7.3390   23.9760 C.3   343  LYS343      0.0206
    149  CE        39.0870    7.4080   23.8200 C.3   343  LYS343      0.1093
    150  NZ        38.7040    7.6150   22.3850 N.3   343  LYS343     -0.1314
    151  N         36.5110    4.6640   24.5960 N.3   409  ALA409     -0.1231
    152  CA        37.0830    3.4470   24.0310 C.3   409  ALA409      0.1694
    153  C         36.5640    2.2190   24.7890 C.2   409  ALA409      0.2593
    154  O         36.2010    2.3130   25.9510 O.2   409  ALA409     -0.2718
    155  CB        38.6090    3.5050   24.0590 C.3   409  ALA409      0.0304
    156  N         36.5410    1.0740   24.1110 N.am  410  SER410     -0.1938
    157  CA        36.0870   -0.1850   24.6710 C.3   410  SER410      0.2055
    158  C         37.2710   -0.9610   25.2470 C.2   410  SER410      0.2642
    159  O         37.0940   -1.9700   25.9110 O.2   410  SER410     -0.2714
    160  CB        35.5290   -1.0340   23.5430 C.3   410  SER410      0.2130
    161  OG        36.5670   -1.2490   22.5950 O.3   410  SER410     -0.2179
    162  N         38.4790   -0.4890   24.9870 N.am  411  LEU411     -0.1977
    163  CA        39.6730   -1.3270   25.1510 C.3   411  LEU411      0.1596
    164  C         39.9710   -1.8180   26.5800 C.2   411  LEU411      0.2287
    165  O         40.7560   -2.7420   26.7410 O.2   411  LEU411     -0.2864
    166  CB        40.8870   -0.5980   24.5800 C.3   411  LEU411      0.0297
    167  CG        40.8230   -0.1970   23.0970 C.3   411  LEU411      0.0022
    168  CD1       42.1530    0.4390   22.6350 C.3   411  LEU411      0.0001
    169  CD2       40.4650   -1.4040   22.2000 C.3   411  LEU411      0.0001
    170  N         37.7670   -4.4730   20.7860 N.3   416  ASN416     -0.1225
    171  CA        37.6440   -3.1940   20.0630 C.3   416  ASN416      0.1785
    172  C         36.1490   -2.7930   20.0570 C.2   416  ASN416      0.2597
    173  O         35.3300   -3.5510   20.5600 O.2   416  ASN416     -0.2718
    174  CB        38.1630   -3.3580   18.6340 C.3   416  ASN416      0.1169
    175  CG        37.6910   -4.6580   18.0070 C.2   416  ASN416      0.2627
    176  OD1       36.5150   -5.0390   18.1410 O.2   416  ASN416     -0.2716
    177  ND2       38.5920   -5.3440   17.3150 N.am  416  ASN416     -0.0877
    178  N         35.8070   -1.6080   19.5420 N.am  417  PHE417     -0.1976
    179  CA        34.4070   -1.1560   19.5610 C.3   417  PHE417      0.1639
    180  C         33.4560   -2.0820   18.7700 C.2   417  PHE417      0.2290
    181  O         32.2480   -2.0790   19.0440 O.2   417  PHE417     -0.2864
    182  CB        34.2670    0.2820   19.0260 C.3   417  PHE417      0.0560
    183  CG        34.4930    0.3860   17.5460 C.ar  417  PHE417     -0.0200
    184  CD1       33.4790    0.0780   16.6410 C.ar  417  PHE417     -0.0042
    185  CD2       35.7540    0.7550   17.0500 C.ar  417  PHE417     -0.0042
    186  CE1       33.7000    0.1960   15.2640 C.ar  417  PHE417     -0.0003
    187  CE2       35.9910    0.8380   15.6800 C.ar  417  PHE417     -0.0003
    188  CZ        34.9830    0.5510   14.7790 C.ar  417  PHE417     -0.0000
@<TRIPOS>BOND
     1    83    84    1
     2    84    85    1
     3    84    87    1
     4    28    27    2
     5    85    86    2
     6    87    88    1
     7    26    27    1
     8    26    25    1
     9    26    29    1
    10    31    29    1
    11    91    92    1
    12    30    29    1
    13    88    90   am
    14    88    89    2
    15    94    93    2
    16    92    93    1
    17    92    95    1
    18    24    23    2
    19    96    95    1
    20    23    22    1
    21    70    69    1
    22    70    64    1
    23   100    99    2
    24    99    98    1
    25    69    68    1
    26    20    18    1
    27   188   186   ar
    28   188   187   ar
    29   133   134    1
    30   133   132    1
    31    68    65    1
    32    16    15    2
    33    97    98    1
    34    58    59    1
    35    59    60    1
    36    59    62    1
    37   131   132    1
    38   131   130    1
    39    22    21    1
    40    64    60   am
    41    64    65    1
    42    12    11    2
    43   186   184   ar
    44    98   101    1
    45    15    21   am
    46    15    14    1
    47    60    61    2
    48     1     2    1
    49   187   185   ar
    50    65    66    1
    51   130   127    1
    52    18    17    1
    53    18    19    1
    54    14    17    1
    55    14    13    1
    56    62    63    1
    57   101   102    1
    58     4     3    2
    59    11    13   am
    60    11    10    1
    61   184   183   ar
    62     3     2    1
    63     3     9   am
    64     2     5    1
    65   185   183   ar
    66    66    71   am
    67    66    67    2
    68   127   126    1
    69   127   128    1
    70   177   175   am
    71    10     9    1
    72   102   104   ar
    73   102   103   ar
    74   183   182    1
    75   129   128    2
    76     5     6    1
    77     5     7    1
    78     6     8    1
    79    71    72    1
    80   104   106   ar
    81   175   176    2
    82   175   174    1
    83   103   105   ar
    84   174   171    1
    85   125   123   ar
    86   125   124   ar
    87   180   181    2
    88   180   179    1
    89    81    79    1
    90   106   107   ar
    91   182   179    1
    92    72    73    1
    93   123   121   ar
    94    78    77    2
    95   105   107   ar
    96   140   139    1
    97   178   179    1
    98   178   172   am
    99   115   113   ar
   100   124   122   ar
   101    57    55    1
   102    75    73   am
   103    75    76    1
   104    39    37   ar
   105   141   139    1
   106   172   171    1
   107   172   173    2
   108   171   170    1
   109    73    74    2
   110    79    76    1
   111    79    80    1
   112   135   136    1
   113   121   122   ar
   114   121   120    1
   115    77    76    1
   116   139   136    1
   117   112   113    1
   118   112   109    1
   119    36    37    1
   120    36    33    1
   121   113   114   ar
   122    37    38   ar
   123    32    33    1
   124    55    56    1
   125    55    54    2
   126    33    34    1
   127   136   137    1
   128    80    82    1
   129   120   117    1
   130   137   138    2
   131    54    53    1
   132   109   108    1
   133   109   110    1
   134   111   110    2
   135   110   116   am
   136   169   167    1
   137   150   149    1
   138   161   160    1
   139   116   117    1
   140   168   167    1
   141    34    40   am
   142    34    35    2
   143   117   118    1
   144   167   166    1
   145    53    52    1
   146    40    41    1
   147   119   118    2
   148   160   157    1
   149   149   148    1
   150   148   147    1
   151   152   155    1
   152   152   151    1
   153   152   153    1
   154   156   157    1
   155   156   153   am
   156    50    49    2
   157    52    51    1
   158    51    48    1
   159    46    44    1
   160   166   163    1
   161   157   158    1
   162    47    48    1
   163    47    42   am
   164    41    44    1
   165    41    42    1
   166   153   154    2
   167    45    44    1
   168   162   163    1
   169   162   158   am
   170   163   164    1
   171    49    48    1
   172   158   159    2
   173    42    43    2
   174   147   146    1
   175   146   143    1
   176   164   165    2
   177   145   144    2
   178   143   142    1
   179   143   144    1
