@<TRIPOS>MOLECULE
tmp/2y6cA00.pdb
 174 176 0 0 0
SMALL
GASTEIGER

@<TRIPOS>ATOM
      1  N         -7.3730  -31.2530  -11.7990 N.3     5  PHE5       -0.1241
      2  CA        -6.1320  -30.6840  -12.3280 C.3     5  PHE5        0.1605
      3  C         -5.5360  -31.6050  -13.3900 C.2     5  PHE5        0.2264
      4  O         -5.7490  -32.8180  -13.3550 O.2     5  PHE5       -0.2867
      5  CB        -5.1070  -30.4270  -11.2150 C.3     5  PHE5        0.0534
      6  CG        -5.3440  -29.1570  -10.4460 C.ar    5  PHE5       -0.0203
      7  CD1       -4.7690  -27.9650  -10.8650 C.ar    5  PHE5       -0.0042
      8  CD2       -6.1240  -29.1530   -9.3010 C.ar    5  PHE5       -0.0042
      9  CE1       -4.9760  -26.7880  -10.1610 C.ar    5  PHE5       -0.0003
     10  CE2       -6.3380  -27.9770   -8.5900 C.ar    5  PHE5       -0.0003
     11  CZ        -5.7660  -26.7950   -9.0210 C.ar    5  PHE5       -0.0000
     12  N         -7.3070   -6.7990   -8.4510 N.3    81  ASN81      -0.1225
     13  CA        -6.7450   -7.8390   -9.3050 C.3    81  ASN81       0.1785
     14  C         -6.7770   -9.2120   -8.6220 C.2    81  ASN81       0.2598
     15  O         -7.8450   -9.6430   -8.2030 O.2    81  ASN81      -0.2718
     16  CB        -5.3720   -7.4330   -9.8410 C.3    81  ASN81       0.1169
     17  CG        -5.4710   -6.3310  -10.9050 C.2    81  ASN81       0.2627
     18  OD1       -4.6800   -5.3910  -10.9290 O.2    81  ASN81      -0.2716
     19  ND2       -6.4690   -6.4390  -11.7670 N.am   81  ASN81      -0.0877
     20  N         -5.6430   -9.8980   -8.4910 N.am   82  THR82      -0.1939
     21  CA        -5.6590  -11.2290   -7.8590 C.3    82  THR82       0.2028
     22  C         -5.9540  -11.1460   -6.3590 C.2    82  THR82       0.2642
     23  O         -5.3920  -10.3000   -5.6700 O.2    82  THR82      -0.2714
     24  CB        -4.3580  -12.0080   -8.1090 C.3    82  THR82       0.1808
     25  OG1       -4.2020  -12.1970   -9.5200 O.3    82  THR82      -0.2208
     26  CG2       -4.4330  -13.3740   -7.4540 C.3    82  THR82       0.0379
     27  N         -6.8200  -12.0360   -5.8690 N.am   83  LEU83      -0.1963
     28  CA        -7.2390  -12.0190   -4.4620 C.3    83  LEU83       0.1728
     29  C         -6.6180  -13.1450   -3.6490 C.2    83  LEU83       0.2616
     30  O         -6.4220  -13.0130   -2.4370 O.2    83  LEU83      -0.2715
     31  CB        -8.7590  -12.2010   -4.3760 C.3    83  LEU83       0.0311
     32  CG        -9.6060  -11.3540   -5.3240 C.3    83  LEU83       0.0022
     33  CD1      -11.0820  -11.7510   -5.1850 C.3    83  LEU83       0.0001
     34  CD2       -9.3950   -9.8860   -5.0560 C.3    83  LEU83       0.0001
     35  N         -6.3730  -14.2710   -4.3110 N.am   84  ALA84      -0.1963
     36  CA        -5.8400  -15.4490   -3.6590 C.3    84  ALA84       0.1728
     37  C         -5.5170  -16.5090   -4.6890 C.2    84  ALA84       0.2616
     38  O         -5.9270  -16.4200   -5.8460 O.2    84  ALA84      -0.2715
     39  CB        -6.8770  -16.0120   -2.6730 C.3    84  ALA84       0.0334
     40  N         -4.7770  -17.5150   -4.2480 N.am   85  HIS85      -0.1959
     41  CA        -4.4480  -18.6520   -5.0810 C.3    85  HIS85       0.1787
     42  C         -4.0840  -19.8650   -4.2230 C.2    85  HIS85       0.2620
     43  O         -3.7880  -19.7450   -3.0230 O.2    85  HIS85      -0.2715
     44  CB        -3.3710  -18.3330   -6.1360 C.3    85  HIS85       0.0785
     45  CG        -2.0530  -17.8730   -5.5820 C.ar   85  HIS85       0.0821
     46  ND1       -1.4300  -16.7220   -6.0150 N.ar   85  HIS85      -0.2267
     47  CD2       -1.2360  -18.4070   -4.6400 C.ar   85  HIS85       0.1154
     48  CE1       -0.2840  -16.5720   -5.3770 C.ar   85  HIS85       0.1986
     49  NE2       -0.1390  -17.5810   -4.5370 N.ar   85  HIS85      -0.2212
     50  N         -4.1610  -21.0430   -4.8370 N.am   86  ALA86      -0.1977
     51  CA        -3.8670  -22.2890   -4.1350 C.3    86  ALA86       0.1597
     52  C         -3.3060  -23.2780   -5.1400 C.2    86  ALA86       0.2287
     53  O         -3.5460  -23.1550   -6.3410 O.2    86  ALA86      -0.2864
     54  CB        -5.1180  -22.8480   -3.4650 C.3    86  ALA86       0.0319
     55  N        -11.0750   -8.6620    3.9720 N.3   105  TRP105     -0.1241
     56  CA       -11.7020   -9.9720    4.2280 C.3   105  TRP105      0.1605
     57  C        -12.6870   -9.8590    5.3850 C.2   105  TRP105      0.2264
     58  O        -12.4350   -9.1280    6.3300 O.2   105  TRP105     -0.2867
     59  CB       -10.6170  -11.0100    4.5600 C.3   105  TRP105      0.0550
     60  CG        -9.5840  -11.1010    3.4600 C.ar  105  TRP105      0.0003
     61  CD1       -8.4160  -10.3960    3.3720 C.ar  105  TRP105      0.0946
     62  CD2       -9.6770  -11.8810    2.2600 C.ar  105  TRP105      0.0152
     63  NE1       -7.7580  -10.7160    2.1990 N.ar  105  TRP105     -0.2442
     64  CE2       -8.5090  -11.6280    1.5040 C.ar  105  TRP105      0.0810
     65  CE3      -10.6120  -12.8030    1.7720 C.ar  105  TRP105      0.0012
     66  CZ2       -8.2680  -12.2440    0.2740 C.ar  105  TRP105      0.0191
     67  CZ3      -10.3740  -13.4120    0.5550 C.ar  105  TRP105      0.0001
     68  CH2       -9.2090  -13.1380   -0.1790 C.ar  105  TRP105      0.0015
     69  N        -14.5390   -9.3540    1.2750 N.3   113  ILE113     -0.1245
     70  CA       -14.6930  -10.6100    0.5860 C.3   113  ILE113      0.1561
     71  C        -15.0300  -11.6070    1.6780 C.2   113  ILE113      0.2260
     72  O        -14.3680  -11.6360    2.7180 O.2   113  ILE113     -0.2867
     73  CB       -13.3660  -11.0840   -0.0260 C.3   113  ILE113      0.0252
     74  CG1      -12.7860  -10.0400   -0.9840 C.3   113  ILE113      0.0019
     75  CG2      -13.5650  -12.4310   -0.7310 C.3   113  ILE113      0.0019
     76  CD1      -11.3100  -10.3030   -1.3200 C.3   113  ILE113      0.0001
     77  N        -16.3190  -18.3780    2.0730 N.3   117  TYR117     -0.1227
     78  CA       -16.5120  -18.7710    0.6830 C.3   117  TYR117      0.1736
     79  C        -15.1620  -18.8160   -0.0120 C.2   117  TYR117      0.2595
     80  O        -14.8450  -19.7860   -0.7000 O.2   117  TYR117     -0.2718
     81  CB       -17.4500  -17.8160   -0.0500 C.3   117  TYR117      0.0548
     82  CG       -17.8040  -18.2700   -1.4540 C.ar  117  TYR117     -0.0200
     83  CD1      -16.9820  -17.9720   -2.5340 C.ar  117  TYR117     -0.0009
     84  CD2      -18.9660  -19.0020   -1.7030 C.ar  117  TYR117     -0.0009
     85  CE1      -17.2970  -18.3950   -3.8150 C.ar  117  TYR117      0.0417
     86  CE2      -19.2890  -19.4190   -2.9900 C.ar  117  TYR117      0.0417
     87  CZ       -18.4500  -19.1100   -4.0410 C.ar  117  TYR117      0.1957
     88  OH       -18.7570  -19.5230   -5.3360 O.3   117  TYR117     -0.2866
     89  N        -14.3610  -17.7680    0.1660 N.am  118  ALA118     -0.1980
     90  CA       -13.0460  -17.7420   -0.4690 C.3   118  ALA118      0.1597
     91  C        -12.1980  -18.9400   -0.0390 C.2   118  ALA118      0.2287
     92  O        -11.5780  -19.5930   -0.8610 O.2   118  ALA118     -0.2864
     93  CB       -12.3230  -16.4170   -0.1900 C.3   118  ALA118      0.0319
     94  N        -13.3780  -22.1560   -1.7230 N.3   121  HIS121     -0.1226
     95  CA       -12.9440  -22.1940   -3.1280 C.3   121  HIS121      0.1752
     96  C        -11.4560  -22.5470   -3.2290 C.2   121  HIS121      0.2595
     97  O        -11.0840  -23.4780   -3.9390 O.2   121  HIS121     -0.2718
     98  CB       -13.2210  -20.8580   -3.8280 C.3   121  HIS121      0.0759
     99  CG       -12.7900  -20.8260   -5.2630 C.ar  121  HIS121      0.0818
    100  ND1      -13.6720  -21.0090   -6.3050 N.ar  121  HIS121     -0.2268
    101  CD2      -11.5720  -20.6470   -5.8270 C.ar  121  HIS121      0.1154
    102  CE1      -13.0160  -20.9360   -7.4520 C.ar  121  HIS121      0.1986
    103  NE2      -11.7380  -20.7170   -7.1880 N.ar  121  HIS121     -0.2212
    104  N        -10.6060  -21.8140   -2.5090 N.am  122  GLU122     -0.1979
    105  CA        -9.1610  -22.0720   -2.5310 C.3   122  GLU122      0.1602
    106  C         -8.7890  -23.4620   -2.0250 C.2   122  GLU122      0.2287
    107  O         -7.9400  -24.1330   -2.6000 O.2   122  GLU122     -0.2864
    108  CB        -8.3980  -21.0190   -1.7150 C.3   122  GLU122      0.0415
    109  CG        -8.5440  -19.5950   -2.2410 C.3   122  GLU122      0.1163
    110  CD        -8.1580  -19.4790   -3.7040 C.2   122  GLU122      0.3649
    111  OE1       -7.1510  -20.1090   -4.1050 O.co2 122  GLU122     -0.2457
    112  OE2       -8.8430  -18.7400   -4.4600 O.co2 122  GLU122     -0.2457
    113  N         -9.2160  -26.1050   -4.4900 N.3   125  HIS125     -0.1241
    114  CA        -8.0180  -26.2860   -5.3190 C.3   125  HIS125      0.1621
    115  C         -6.9520  -27.0990   -4.5840 C.2   125  HIS125      0.2264
    116  O         -6.3030  -27.9660   -5.1720 O.2   125  HIS125     -0.2867
    117  CB        -7.3940  -24.9440   -5.7550 C.3   125  HIS125      0.0745
    118  CG        -8.2450  -24.1370   -6.6870 C.ar  125  HIS125      0.0817
    119  ND1       -8.7770  -24.6570   -7.8470 N.ar  125  HIS125     -0.2268
    120  CD2       -8.5690  -22.8210   -6.6810 C.ar  125  HIS125      0.1154
    121  CE1       -9.4350  -23.7080   -8.4900 C.ar  125  HIS125      0.1986
    122  NE2       -9.3240  -22.5850   -7.8050 N.ar  125  HIS125     -0.2212
    123  N        -10.5880  -28.3370   -9.9370 N.3   130  GLY130     -0.1210
    124  CA       -10.3560  -27.2630  -10.9030 C.3   130  GLY130      0.1956
    125  C        -11.6150  -26.4110  -10.9230 C.2   130  GLY130      0.2611
    126  O        -12.4620  -26.5370  -10.0350 O.2   130  GLY130     -0.2717
    127  N        -11.7610  -25.5460  -11.9210 N.am  131  HIS131     -0.1975
    128  CA       -12.9630  -24.7160  -12.0050 C.3   131  HIS131      0.1656
    129  C        -14.1430  -25.4200  -12.6740 C.2   131  HIS131      0.2291
    130  O        -13.9690  -26.2680  -13.5620 O.2   131  HIS131     -0.2864
    131  CB       -12.6830  -23.3830  -12.7060 C.3   131  HIS131      0.0771
    132  CG       -11.7860  -22.4740  -11.9270 C.ar  131  HIS131      0.0820
    133  ND1      -10.6770  -21.8640  -12.4730 N.ar  131  HIS131     -0.2267
    134  CD2      -11.8230  -22.0930  -10.6290 C.ar  131  HIS131      0.1154
    135  CE1      -10.0820  -21.1280  -11.5500 C.ar  131  HIS131      0.1986
    136  NE2      -10.7550  -21.2560  -10.4200 N.ar  131  HIS131     -0.2212
    137  N        -16.8780  -22.4000   -9.3290 N.3   140  TYR140     -0.1228
    138  CA       -17.0600  -21.5740  -10.5230 C.3   140  TYR140      0.1721
    139  C        -15.8980  -20.5770  -10.4810 C.2   140  TYR140      0.2437
    140  O        -15.4740  -20.1710   -9.4020 O.2   140  TYR140     -0.2733
    141  CB       -18.4060  -20.8640  -10.4670 C.3   140  TYR140      0.0547
    142  CG       -18.8690  -20.2090  -11.7490 C.ar  140  TYR140     -0.0200
    143  CD1      -19.1680  -20.9730  -12.8760 C.ar  140  TYR140     -0.0009
    144  CD2      -19.0870  -18.8400  -11.8110 C.ar  140  TYR140     -0.0009
    145  CE1      -19.6310  -20.3830  -14.0490 C.ar  140  TYR140      0.0417
    146  CE2      -19.5500  -18.2360  -12.9780 C.ar  140  TYR140      0.0417
    147  CZ       -19.8180  -19.0100  -14.0910 C.ar  140  TYR140      0.1957
    148  OH       -20.2790  -18.4080  -15.2450 O.3   140  TYR140     -0.2866
    149  N        -15.3740  -20.1850  -11.6510 N.am  141  PRO141     -0.2718
    150  CA       -14.1610  -19.3640  -11.6550 C.3   141  PRO141      0.1535
    151  C        -14.2570  -17.9550  -11.0620 C.2   141  PRO141      0.2599
    152  O        -13.2290  -17.3710  -10.7310 O.2   141  PRO141     -0.2715
    153  CB       -13.7740  -19.3040  -13.1410 C.3   141  PRO141      0.0310
    154  CG       -15.0200  -19.6440  -13.8890 C.3   141  PRO141      0.0237
    155  CD       -15.8090  -20.5650  -13.0070 C.3   141  PRO141      0.0939
    156  N        -15.4570  -17.4110  -10.9190 N.am  142  THR142     -0.1937
    157  CA       -15.5840  -16.0500  -10.4050 C.3   142  THR142      0.2028
    158  C        -16.3210  -15.9680   -9.0620 C.2   142  THR142      0.2642
    159  O        -17.1370  -16.8360   -8.7380 O.2   142  THR142     -0.2714
    160  CB       -16.2370  -15.1260  -11.4630 C.3   142  THR142      0.1808
    161  OG1      -17.4950  -15.6760  -11.8630 O.3   142  THR142     -0.2208
    162  CG2      -15.3440  -15.0370  -12.6940 C.3   142  THR142      0.0379
    163  N        -16.0080  -14.9350   -8.2800 N.am  143  TYR143     -0.1973
    164  CA       -16.6510  -14.7160   -6.9810 C.3   143  TYR143      0.1639
    165  C        -17.9470  -13.9360   -7.1730 C.2   143  TYR143      0.2290
    166  O        -18.9990  -14.3370   -6.6760 O.2   143  TYR143     -0.2864
    167  CB       -15.7070  -13.9460   -6.0430 C.3   143  TYR143      0.0560
    168  CG       -16.2740  -13.5610   -4.6770 C.ar  143  TYR143     -0.0198
    169  CD1      -17.0310  -12.4020   -4.5120 C.ar  143  TYR143     -0.0009
    170  CD2      -16.0060  -14.3290   -3.5510 C.ar  143  TYR143     -0.0009
    171  CE1      -17.5290  -12.0350   -3.2610 C.ar  143  TYR143      0.0417
    172  CE2      -16.5010  -13.9760   -2.3050 C.ar  143  TYR143      0.0417
    173  CZ       -17.2580  -12.8310   -2.1610 C.ar  143  TYR143      0.1957
    174  OH       -17.7420  -12.4820   -0.9140 O.3   143  TYR143     -0.2866
@<TRIPOS>BOND
     1   148   147    1
     2   147   145   ar
     3   147   146   ar
     4   145   143   ar
     5   154   153    1
     6   154   155    1
     7   130   129    2
     8     3     4    2
     9     3     2    1
    10   153   150    1
    11   155   149    1
    12   146   144   ar
    13   143   142   ar
    14   131   128    1
    15   131   132    1
    16   162   160    1
    17   129   128    1
    18   133   132   ar
    19   133   135   ar
    20     2     1    1
    21     2     5    1
    22   128   127    1
    23   132   134   ar
    24   127   125   am
    25   161   160    1
    26   144   142   ar
    27    19    17   am
    28   142   141    1
    29   150   149    1
    30   150   151    1
    31   149   139   am
    32   135   136   ar
    33   160   157    1
    34     5     6    1
    35   151   156   am
    36   151   152    2
    37    18    17    2
    38   125   124    1
    39   125   126    2
    40   156   157    1
    41    17    16    1
    42   124   123    1
    43     7     6   ar
    44     7     9   ar
    45   134   136   ar
    46   138   139    1
    47   138   141    1
    48   138   137    1
    49   139   140    2
    50     6     8   ar
    51   157   158    1
    52     9    11   ar
    53    16    13    1
    54    25    24    1
    55    13    14    1
    56    13    12    1
    57     8    10   ar
    58   158   159    2
    59   158   163   am
    60    11    10   ar
    61    14    20   am
    62    14    15    2
    63    20    21    1
    64   121   119   ar
    65   121   122   ar
    66   163   164    1
    67    24    21    1
    68    24    26    1
    69    21    22    1
    70   119   118   ar
    71   122   120   ar
    72   102   103   ar
    73   102   100   ar
    74   103   101   ar
    75   165   164    1
    76   165   166    2
    77   164   167    1
    78   118   120   ar
    79   118   117    1
    80    22    27   am
    81    22    23    2
    82    53    52    2
    83   100    99   ar
    84    44    45    1
    85    44    41    1
    86   167   168    1
    87    46    45   ar
    88    46    48   ar
    89    27    28    1
    90    38    37    2
    91   101    99   ar
    92   117   114    1
    93    45    47   ar
    94    48    49   ar
    95    88    87    1
    96    32    33    1
    97    32    34    1
    98    32    31    1
    99   114   115    1
   100   114   113    1
   101    99    98    1
   102   116   115    2
   103    52    51    1
   104    41    40    1
   105    41    42    1
   106    50    42   am
   107    50    51    1
   108    37    40   am
   109    37    36    1
   110   168   169   ar
   111   168   170   ar
   112    47    49   ar
   113   169   171   ar
   114    28    31    1
   115    28    29    1
   116   112   110   ar
   117    35    36    1
   118    35    29   am
   119    42    43    2
   120    51    54    1
   121   111   110   ar
   122    87    85   ar
   123    87    86   ar
   124    97    96    2
   125    98    95    1
   126    85    83   ar
   127   110   109    1
   128    36    39    1
   129    29    30    2
   130   170   172   ar
   131   171   173   ar
   132    96    95    1
   133    96   104   am
   134    95    94    1
   135    86    84   ar
   136   107   106    2
   137    83    82   ar
   138   105   104    1
   139   105   106    1
   140   105   108    1
   141   172   173   ar
   142   109   108    1
   143   173   174    1
   144    84    82   ar
   145    82    81    1
   146    76    74    1
   147    74    73    1
   148    92    91    2
   149    75    73    1
   150    80    79    2
   151    90    93    1
   152    90    91    1
   153    90    89    1
   154    68    66   ar
   155    68    67   ar
   156    81    78    1
   157    73    70    1
   158    79    89   am
   159    79    78    1
   160    66    64   ar
   161    67    65   ar
   162    70    69    1
   163    70    71    1
   164    78    77    1
   165    64    63   ar
   166    64    62   ar
   167    71    72    2
   168    65    62   ar
   169    63    61   ar
   170    62    60   ar
   171    61    60   ar
   172    60    59    1
   173    55    56    1
   174    56    59    1
   175    56    57    1
   176    57    58    2
