@<TRIPOS>MOLECULE
tmp/2y6dA00.pdb
 163 164 0 0 0
SMALL
GASTEIGER

@<TRIPOS>ATOM
      1  N        -16.4470   -3.9850    2.4230 N.3    74  TYR74      -0.1241
      2  CA       -15.6870   -2.7680    2.2260 C.3    74  TYR74       0.1605
      3  C        -14.6110   -2.6550    3.2860 C.2    74  TYR74       0.2264
      4  O        -14.6610   -1.7820    4.1380 O.2    74  TYR74      -0.2867
      5  CB       -16.6130   -1.5570    2.2770 C.3    74  TYR74       0.0534
      6  CG       -17.7220   -1.6410    1.2540 C.ar   74  TYR74      -0.0201
      7  CD1      -17.4910   -1.3120   -0.0740 C.ar   74  TYR74      -0.0009
      8  CD2      -18.9950   -2.0590    1.6170 C.ar   74  TYR74      -0.0009
      9  CE1      -18.5010   -1.3930   -1.0170 C.ar   74  TYR74       0.0417
     10  CE2      -20.0120   -2.1440    0.6790 C.ar   74  TYR74       0.0417
     11  CZ       -19.7580   -1.8100   -0.6300 C.ar   74  TYR74       0.1957
     12  OH       -20.7680   -1.8930   -1.5610 O.3    74  TYR74      -0.2866
     13  N         -9.5250    5.3830    1.8710 N.3    82  THR82      -0.1203
     14  CA       -10.8810    5.4110    2.4200 C.3    82  THR82       0.1994
     15  C        -10.8630    5.7410    3.9110 C.2    82  THR82       0.2618
     16  O        -10.0380    5.2190    4.6510 O.2    82  THR82      -0.2717
     17  CB       -11.6260    4.0950    2.1610 C.3    82  THR82       0.1784
     18  OG1      -10.9000    3.0070    2.7440 O.3    82  THR82      -0.2211
     19  CG2      -11.7530    3.8610    0.6650 C.3    82  THR82       0.0376
     20  N        -11.7830    6.6080    4.3330 N.am   83  LEU83      -0.1965
     21  CA       -11.8240    7.0840    5.7130 C.3    83  LEU83       0.1728
     22  C        -13.0260    6.5730    6.4980 C.2    83  LEU83       0.2616
     23  O        -12.9730    6.4380    7.7220 O.2    83  LEU83      -0.2715
     24  CB       -11.8690    8.6100    5.7160 C.3    83  LEU83       0.0311
     25  CG       -10.8350    9.3510    4.8630 C.3    83  LEU83       0.0022
     26  CD1      -11.0970   10.8460    4.9320 C.3    83  LEU83       0.0001
     27  CD2       -9.4160    9.0030    5.2880 C.3    83  LEU83       0.0001
     28  N        -14.1230    6.3280    5.7920 N.am   84  ALA84      -0.1963
     29  CA       -15.3590    5.8980    6.4340 C.3    84  ALA84       0.1728
     30  C        -16.3880    5.5330    5.3810 C.2    84  ALA84       0.2616
     31  O        -16.2340    5.8610    4.2010 O.2    84  ALA84      -0.2715
     32  CB       -15.9110    7.0320    7.3210 C.3    84  ALA84       0.0334
     33  N        -17.4110    4.8040    5.8070 N.am   85  HIS85      -0.1959
     34  CA       -18.5340    4.4810    4.9450 C.3    85  HIS85       0.1787
     35  C        -19.7490    4.1610    5.8000 C.2    85  HIS85       0.2620
     36  O        -19.6300    3.7990    6.9770 O.2    85  HIS85      -0.2715
     37  CB       -18.2280    3.3530    3.9600 C.3    85  HIS85       0.0785
     38  CG       -17.7190    2.1020    4.6020 C.ar   85  HIS85       0.0821
     39  ND1      -16.4620    1.5980    4.3450 N.ar   85  HIS85      -0.2267
     40  CD2      -18.2890    1.2590    5.4960 C.ar   85  HIS85       0.1154
     41  CE1      -16.2870    0.4880    5.0400 C.ar   85  HIS85       0.1986
     42  NE2      -17.3750    0.2660    5.7560 N.ar   85  HIS85      -0.2212
     43  N        -20.9250    4.3380    5.2170 N.am   86  ALA86      -0.1963
     44  CA       -22.1620    4.0650    5.9260 C.3    86  ALA86       0.1728
     45  C        -23.1500    3.5170    4.9170 C.2    86  ALA86       0.2616
     46  O        -23.0340    3.7770    3.7180 O.2    86  ALA86      -0.2715
     47  CB       -22.6930    5.3260    6.6060 C.3    86  ALA86       0.0334
     48  N        -24.1100    2.7450    5.4000 N.am   87  PHE87      -0.1974
     49  CA       -25.0590    2.0810    4.5210 C.3    87  PHE87       0.1639
     50  C        -26.4750    2.6070    4.6790 C.2    87  PHE87       0.2290
     51  O        -26.9040    2.9440    5.7810 O.2    87  PHE87      -0.2864
     52  CB       -25.0330    0.5720    4.7840 C.3    87  PHE87       0.0560
     53  CG       -23.6600   -0.0410    4.6520 C.ar   87  PHE87      -0.0200
     54  CD1      -23.1510   -0.3810    3.4070 C.ar   87  PHE87      -0.0042
     55  CD2      -22.8770   -0.2610    5.7750 C.ar   87  PHE87      -0.0042
     56  CE1      -21.8850   -0.9390    3.2850 C.ar   87  PHE87      -0.0003
     57  CE2      -21.6100   -0.8260    5.6590 C.ar   87  PHE87      -0.0003
     58  CZ       -21.1160   -1.1600    4.4170 C.ar   87  PHE87      -0.0000
     59  N        -18.3290   16.5050   12.3880 N.3   117  TYR117     -0.1227
     60  CA       -18.7290   16.7620   11.0120 C.3   117  TYR117      0.1736
     61  C        -18.7990   15.4560   10.2360 C.2   117  TYR117      0.2595
     62  O        -19.7450   15.2160    9.4840 O.2   117  TYR117     -0.2718
     63  CB       -17.7810   17.7430   10.3060 C.3   117  TYR117      0.0548
     64  CG       -17.4160   18.9770   11.1070 C.ar  117  TYR117     -0.0200
     65  CD1      -18.3280   19.5730   11.9700 C.ar  117  TYR117     -0.0009
     66  CD2      -16.1720   19.5790   10.9530 C.ar  117  TYR117     -0.0009
     67  CE1      -17.9900   20.7070   12.6960 C.ar  117  TYR117      0.0417
     68  CE2      -15.8280   20.7190   11.6650 C.ar  117  TYR117      0.0417
     69  CZ       -16.7410   21.2780   12.5330 C.ar  117  TYR117      0.1957
     70  OH       -16.4020   22.4120   13.2400 O.3   117  TYR117     -0.2866
     71  N        -17.7900   14.6090   10.4110 N.am  118  ALA118     -0.1980
     72  CA       -17.7650   13.3390    9.7020 C.3   118  ALA118      0.1597
     73  C        -18.9410   12.4600   10.1070 C.2   118  ALA118      0.2287
     74  O        -19.5510   11.8230    9.2590 O.2   118  ALA118     -0.2864
     75  CB       -16.4510   12.6150    9.9370 C.3   118  ALA118      0.0319
     76  N        -22.2690   13.6820    8.5990 N.3   121  HIS121     -0.1226
     77  CA       -22.3150   13.2780    7.1940 C.3   121  HIS121      0.1752
     78  C        -22.6370   11.7880    7.0940 C.2   121  HIS121      0.2595
     79  O        -23.5810   11.3960    6.4130 O.2   121  HIS121     -0.2718
     80  CB       -20.9690   13.5660    6.5150 C.3   121  HIS121      0.0759
     81  CG       -20.9000   13.1320    5.0820 C.ar  121  HIS121      0.0818
     82  ND1      -21.1290   13.9950    4.0310 N.ar  121  HIS121     -0.2268
     83  CD2      -20.6010   11.9350    4.5290 C.ar  121  HIS121      0.1154
     84  CE1      -20.9870   13.3410    2.8900 C.ar  121  HIS121      0.1986
     85  NE2      -20.6690   12.0890    3.1650 N.ar  121  HIS121     -0.2212
     86  N        -21.8520   10.9560    7.7710 N.am  122  GLU122     -0.1979
     87  CA       -22.0800    9.5080    7.7220 C.3   122  GLU122      0.1602
     88  C        -23.4760    9.1190    8.1960 C.2   122  GLU122      0.2287
     89  O        -24.1320    8.2630    7.5990 O.2   122  GLU122     -0.2864
     90  CB       -21.0300    8.7520    8.5420 C.3   122  GLU122      0.0415
     91  CG       -19.5990    8.9470    8.0450 C.3   122  GLU122      0.1163
     92  CD       -19.3980    8.5030    6.6050 C.2   122  GLU122      0.3649
     93  OE1      -19.7910    7.3680    6.2550 O.co2 122  GLU122     -0.2457
     94  OE2      -18.8110    9.2830    5.8240 O.co2 122  GLU122     -0.2457
     95  N        -26.1390    9.4350    5.7210 N.3   125  HIS125     -0.1241
     96  CA       -26.2750    8.2460    4.8960 C.3   125  HIS125      0.1621
     97  C        -27.0870    7.1770    5.6230 C.2   125  HIS125      0.2264
     98  O        -27.9440    6.5320    5.0280 O.2   125  HIS125     -0.2867
     99  CB       -24.9110    7.6450    4.5300 C.3   125  HIS125      0.0745
    100  CG       -24.0870    8.4850    3.6060 C.ar  125  HIS125      0.0817
    101  ND1      -24.5630    8.9650    2.4060 N.ar  125  HIS125     -0.2268
    102  CD2      -22.7820    8.8460    3.6630 C.ar  125  HIS125      0.1154
    103  CE1      -23.6030    9.6300    1.7870 C.ar  125  HIS125      0.1986
    104  NE2      -22.5120    9.5710    2.5290 N.ar  125  HIS125     -0.2212
    105  N        -25.2680   11.8350   -1.5280 N.3   131  HIS131     -0.1241
    106  CA       -24.4420   13.0400   -1.5910 C.3   131  HIS131      0.1621
    107  C        -25.1630   14.1930   -2.2970 C.2   131  HIS131      0.2264
    108  O        -25.9890   13.9770   -3.1850 O.2   131  HIS131     -0.2867
    109  CB       -23.0750   12.7680   -2.2420 C.3   131  HIS131      0.0745
    110  CG       -22.1640   11.9150   -1.4110 C.ar  131  HIS131      0.0817
    111  ND1      -21.3520   10.9400   -1.9500 N.ar  131  HIS131     -0.2268
    112  CD2      -21.9650   11.8710   -0.0730 C.ar  131  HIS131      0.1154
    113  CE1      -20.6680   10.3540   -0.9830 C.ar  131  HIS131      0.1986
    114  NE2      -21.0300   10.8920    0.1690 N.ar  131  HIS131     -0.2212
    115  N        -23.8650   22.0130    1.6100 N.3   137  ALA137     -0.1231
    116  CA       -24.5030   20.8950    2.3030 C.3   137  ALA137      0.1694
    117  C        -23.5350   19.9960    3.0650 C.2   137  ALA137      0.2591
    118  O        -22.4290   19.7310    2.6070 O.2   137  ALA137     -0.2718
    119  CB       -25.3220   20.0650    1.3140 C.3   137  ALA137      0.0304
    120  N        -23.9620   19.5220    4.2340 N.am  138  VAL138     -0.1980
    121  CA       -23.1410   18.5980    5.0040 C.3   138  VAL138      0.1595
    122  C        -22.9550   17.3140    4.1940 C.2   138  VAL138      0.2287
    123  O        -21.9520   16.6170    4.3400 O.2   138  VAL138     -0.2864
    124  CB       -23.7740   18.2790    6.3770 C.3   138  VAL138      0.0276
    125  CG1      -22.9840   17.1980    7.0990 C.3   138  VAL138      0.0022
    126  CG2      -23.8590   19.5440    7.2230 C.3   138  VAL138      0.0022
    127  N        -22.3920   17.1120    1.0200 N.3   140  TYR140     -0.1228
    128  CA       -21.5210   17.3110   -0.1310 C.3   140  TYR140      0.1721
    129  C        -20.4470   16.2290   -0.0090 C.2   140  TYR140      0.2437
    130  O        -20.0310   15.8900    1.1050 O.2   140  TYR140     -0.2733
    131  CB       -20.9290   18.7230   -0.1020 C.3   140  TYR140      0.0547
    132  CG       -20.2340   19.1460   -1.3760 C.ar  140  TYR140     -0.0200
    133  CD1      -20.9500   19.3150   -2.5530 C.ar  140  TYR140     -0.0009
    134  CD2      -18.8750   19.4240   -1.3870 C.ar  140  TYR140     -0.0009
    135  CE1      -20.3200   19.7170   -3.7200 C.ar  140  TYR140      0.0417
    136  CE2      -18.2360   19.8310   -2.5440 C.ar  140  TYR140      0.0417
    137  CZ       -18.9640   19.9760   -3.7040 C.ar  140  TYR140      0.1957
    138  OH       -18.3260   20.3790   -4.8580 O.3   140  TYR140     -0.2866
    139  N        -20.0070   15.6660   -1.1450 N.am  141  PRO141     -0.2718
    140  CA       -19.0570   14.5470   -1.1760 C.3   141  PRO141      0.1535
    141  C        -17.7130   14.7980   -0.5050 C.2   141  PRO141      0.2599
    142  O        -17.0660   13.8520   -0.0560 O.2   141  PRO141     -0.2715
    143  CB       -18.8450   14.2990   -2.6780 C.3   141  PRO141      0.0310
    144  CG       -20.0150   14.9190   -3.3500 C.3   141  PRO141      0.0237
    145  CD       -20.4250   16.0770   -2.4980 C.3   141  PRO141      0.0939
    146  N        -17.2890   16.0520   -0.4410 N.am  142  THR142     -0.1951
    147  CA       -15.9920   16.3620    0.1380 C.3   142  THR142      0.1897
    148  C        -16.0840   17.4120    1.2320 C.2   142  THR142      0.2313
    149  O        -17.0740   18.1370    1.3340 O.2   142  THR142     -0.2863
    150  CB       -15.0330   16.8880   -0.9390 C.3   142  THR142      0.1794
    151  OG1      -15.5310   18.1310   -1.4430 O.3   142  THR142     -0.2208
    152  CG2      -14.9130   15.8910   -2.0840 C.3   142  THR142      0.0378
    153  N        -21.3910   25.2540   12.8450 N.3   145  PHE145     -0.1241
    154  CA       -21.7220   24.0340   12.1090 C.3   145  PHE145      0.1605
    155  C        -23.1870   23.6240   12.2590 C.2   145  PHE145      0.2264
    156  O        -23.6850   23.4390   13.3730 O.2   145  PHE145     -0.2867
    157  CB       -20.8130   22.8800   12.5340 C.3   145  PHE145      0.0534
    158  CG       -21.1730   21.5700   11.8980 C.ar  145  PHE145     -0.0203
    159  CD1      -20.8700   21.3280   10.5710 C.ar  145  PHE145     -0.0042
    160  CD2      -21.8180   20.5830   12.6270 C.ar  145  PHE145     -0.0042
    161  CE1      -21.2050   20.1240    9.9770 C.ar  145  PHE145     -0.0003
    162  CE2      -22.1550   19.3770   12.0410 C.ar  145  PHE145     -0.0003
    163  CZ       -21.8520   19.1470   10.7170 C.ar  145  PHE145     -0.0000
@<TRIPOS>BOND
     1   138   137    1
     2   135   137   ar
     3   135   133   ar
     4   137   136   ar
     5   144   143    1
     6   144   145    1
     7   108   107    2
     8   143   140    1
     9   133   132   ar
    10   136   134   ar
    11   145   139    1
    12   107   106    1
    13   109   106    1
    14   109   110    1
    15   152   150    1
    16   111   110   ar
    17   111   113   ar
    18   106   105    1
    19    12    11    1
    20   151   150    1
    21   110   112   ar
    22   134   132   ar
    23   132   131    1
    24   140   139    1
    25   140   141    1
    26   139   129   am
    27     9    11   ar
    28     9     7   ar
    29   113   114   ar
    30   150   147    1
    31    11    10   ar
    32   141   146   am
    33   141   142    2
    34   146   147    1
    35   128   131    1
    36   128   129    1
    37   128   127    1
    38     7     6   ar
    39   112   114   ar
    40   129   130    2
    41   147   148    1
    42    19    17    1
    43    10     8   ar
    44   148   149    2
    45     6     8   ar
    46     6     5    1
    47   119   116    1
    48   115   116    1
    49   103   101   ar
    50   103   104   ar
    51    13    14    1
    52    17    14    1
    53    17    18    1
    54     2     5    1
    55     2     1    1
    56     2     3    1
    57   116   117    1
    58   101   100   ar
    59    14    15    1
    60   104   102   ar
    61   118   117    2
    62    84    85   ar
    63    84    82   ar
    64   117   120   am
    65    85    83   ar
    66    56    54   ar
    67    56    58   ar
    68     3     4    2
    69    54    53   ar
    70   100   102   ar
    71   100    99    1
    72    46    45    2
    73    15    20   am
    74    15    16    2
    75    37    38    1
    76    37    34    1
    77    82    81   ar
    78   122   123    2
    79   122   121    1
    80    31    30    2
    81   120   121    1
    82    20    21    1
    83    39    38   ar
    84    39    41   ar
    85    58    57   ar
    86    49    50    1
    87    49    52    1
    88    49    48    1
    89    83    81   ar
    90    99    96    1
    91    38    40   ar
    92    53    52    1
    93    53    55   ar
    94    50    51    2
    95    25    26    1
    96    25    27    1
    97    25    24    1
    98    96    97    1
    99    96    95    1
   100    45    48   am
   101    45    44    1
   102    34    35    1
   103    34    33    1
   104   121   124    1
   105    98    97    2
   106    41    42   ar
   107    81    80    1
   108    43    35   am
   109    43    44    1
   110    30    33   am
   111    30    29    1
   112    40    42   ar
   113    57    55   ar
   114    21    24    1
   115    21    22    1
   116    28    29    1
   117    28    22   am
   118    35    36    2
   119    94    92   ar
   120    44    47    1
   121    93    92   ar
   122   124   125    1
   123   124   126    1
   124    79    78    2
   125    29    32    1
   126    22    23    2
   127    80    77    1
   128    92    91    1
   129    78    77    1
   130    78    86   am
   131    77    76    1
   132    89    88    2
   133    87    86    1
   134    87    88    1
   135    87    90    1
   136    91    90    1
   137    74    73    2
   138    62    61    2
   139    72    75    1
   140    72    73    1
   141    72    71    1
   142   161   159   ar
   143   161   163   ar
   144    61    71   am
   145    61    60    1
   146    63    60    1
   147    63    64    1
   148   159   158   ar
   149   163   162   ar
   150    66    64   ar
   151    66    68   ar
   152    60    59    1
   153    64    65   ar
   154    68    69   ar
   155   158   157    1
   156   158   160   ar
   157    65    67   ar
   158   162   160   ar
   159   154   155    1
   160   154   157    1
   161   154   153    1
   162   155   156    2
   163    69    67   ar
   164    69    70    1
