@<TRIPOS>MOLECULE
tmp/2y6fA00.pdb
 221 203 0 0 0
SMALL
GASTEIGER

@<TRIPOS>ATOM
      1  N         21.5050   36.9890   10.9890 N.3    84  ARG84      -0.1245
      2  CA        20.4260   36.5270    9.9990 C.3    84  ARG84       0.1563
      3  C         19.6770   35.1840   10.3570 C.2    84  ARG84       0.2260
      4  O         18.4310   35.1210   10.3480 O.2    84  ARG84      -0.2867
      5  CB        21.0440   36.3480    8.5770 C.3    84  ARG84       0.0307
      6  CG        21.5500   37.7000    7.9460 C.3    84  ARG84       0.0489
      7  CD        22.2290   37.5430    6.5720 C.3    84  ARG84       0.2205
      8  NE        21.1800   37.1850    5.5660 N.pl3  84  ARG84      -0.0865
      9  CZ        21.4270   36.5720    4.4110 C.cat  84  ARG84       0.5346
     10  NH1       22.6970   36.2850    4.0210 N.pl3  84  ARG84       0.1354
     11  NH2       20.3860   36.2810    3.5900 N.pl3  84  ARG84       0.1354
     12  N         13.2050   33.9430   15.4780 N.3    88  TYR88      -0.1241
     13  CA        12.7590   35.3280   15.7210 C.3    88  TYR88       0.1605
     14  C         11.4610   35.1930   16.5640 C.2    88  TYR88       0.2264
     15  O         10.3870   34.7580   16.0280 O.2    88  TYR88      -0.2867
     16  CB        12.4330   36.0570   14.3790 C.3    88  TYR88       0.0534
     17  CG        13.6150   36.3570   13.4030 C.ar   88  TYR88      -0.0201
     18  CD1       14.5590   35.3510   13.0740 C.ar   88  TYR88      -0.0009
     19  CD2       13.6700   37.6000   12.6690 C.ar   88  TYR88      -0.0009
     20  CE1       15.5560   35.6230   12.1330 C.ar   88  TYR88       0.0417
     21  CE2       14.6860   37.8920   11.7630 C.ar   88  TYR88       0.0417
     22  CZ        15.6230   36.8920   11.4760 C.ar   88  TYR88       0.1957
     23  OH        16.6750   37.1900   10.5780 O.3    88  TYR88      -0.2866
     24  N         14.6940   31.4590   10.2350 N.3   101  CYS101     -0.1235
     25  CA        15.4530   31.7130    8.9810 C.3   101  CYS101      0.1677
     26  C         16.6850   30.7860    8.8680 C.2   101  CYS101      0.2270
     27  O         17.4040   30.5840    9.8580 O.2   101  CYS101     -0.2867
     28  CB        15.8540   33.2170    8.9040 C.3   101  CYS101      0.0956
     29  SG        16.9650   33.7600    7.5930 S.3   101  CYS101     -0.0801
     30  N         18.1220   33.0700    1.1120 N.3   180  SER180     -0.1217
     31  CA        17.6020   32.6140    2.4140 C.3   180  SER180      0.1889
     32  C         16.1310   32.0860    2.2920 C.2   180  SER180      0.2288
     33  O         15.3610   32.5400    1.3980 O.2   180  SER180     -0.2866
     34  CB        17.6790   33.7340    3.4470 C.3   180  SER180      0.2089
     35  OG        16.7360   34.7850    3.1300 O.3   180  SER180     -0.2183
     36  N         12.7010   31.7640    4.8230 N.3   182  VAL182     -0.1245
     37  CA        12.1320   32.1090    6.0870 C.3   182  VAL182      0.1561
     38  C         10.7970   31.3550    6.2590 C.2   182  VAL182      0.2260
     39  O          9.8940   31.4680    5.4040 O.2   182  VAL182     -0.2867
     40  CB        11.9510   33.7270    6.2710 C.3   182  VAL182      0.0252
     41  CG1       11.4170   34.1190    7.7110 C.3   182  VAL182      0.0019
     42  CG2       13.2220   34.4840    5.9060 C.3   182  VAL182      0.0019
     43  N          7.6880   31.6900    8.2100 N.3   184  ILE184     -0.1245
     44  CA         6.9500   32.6700    9.0640 C.3   184  ILE184      0.1561
     45  C          5.6270   32.0350    9.5280 C.2   184  ILE184      0.2260
     46  O          4.8470   31.5440    8.6800 O.2   184  ILE184     -0.2867
     47  CB         6.6260   34.0300    8.3080 C.3   184  ILE184      0.0252
     48  CG1        7.9470   34.6710    7.7230 C.3   184  ILE184      0.0019
     49  CG2        5.8340   35.0180    9.2390 C.3   184  ILE184      0.0019
     50  CD1        7.6330   35.8040    6.6420 C.3   184  ILE184      0.0001
     51  N          2.0860   33.1830   11.0810 N.3   186  TYR186     -0.1241
     52  CA         1.1480   34.2530   11.5250 C.3   186  TYR186      0.1605
     53  C          0.0270   33.5220   12.2420 C.2   186  TYR186      0.2264
     54  O         -0.7060   32.7430   11.5840 O.2   186  TYR186     -0.2867
     55  CB         0.5810   35.0810   10.3240 C.3   186  TYR186      0.0534
     56  CG         1.4750   36.2050    9.7170 C.ar  186  TYR186     -0.0201
     57  CD1        1.5490   37.4720   10.3220 C.ar  186  TYR186     -0.0009
     58  CD2        2.2100   36.0090    8.5380 C.ar  186  TYR186     -0.0009
     59  CE1        2.3590   38.5180    9.8100 C.ar  186  TYR186      0.0417
     60  CE2        3.0500   37.0680    7.9940 C.ar  186  TYR186      0.0417
     61  CZ         3.1010   38.3170    8.6640 C.ar  186  TYR186      0.1957
     62  OH         3.8240   39.4600    8.1980 O.3   186  TYR186     -0.2866
     63  N          2.1150   44.1920    8.5010 N.3   208  PHE208     -0.1241
     64  CA         3.4810   44.6540    8.0770 C.3   208  PHE208      0.1605
     65  C          3.2630   45.8200    7.0600 C.2   208  PHE208      0.2264
     66  O          2.4020   45.7010    6.1670 O.2   208  PHE208     -0.2867
     67  CB         4.3270   43.4850    7.4750 C.3   208  PHE208      0.0534
     68  CG         5.8130   43.7930    7.2980 C.ar  208  PHE208     -0.0203
     69  CD1        6.6610   43.7900    8.3990 C.ar  208  PHE208     -0.0042
     70  CD2        6.3600   44.0590    6.0220 C.ar  208  PHE208     -0.0042
     71  CE1        8.0650   44.0620    8.2560 C.ar  208  PHE208     -0.0003
     72  CE2        7.7650   44.3330    5.8520 C.ar  208  PHE208     -0.0003
     73  CZ         8.6290   44.3470    6.9770 C.ar  208  PHE208     -0.0000
     74  N          6.4900   48.5420    1.6900 N.3   211  HIS211     -0.1241
     75  CA         7.9280   48.3230    1.4600 C.3   211  HIS211      0.1621
     76  C          8.1730   47.8620    0.0360 C.2   211  HIS211      0.2264
     77  O          7.2780   47.4240   -0.6410 O.2   211  HIS211     -0.2867
     78  CB         8.5200   47.2970    2.4940 C.3   211  HIS211      0.0745
     79  CG         8.0050   45.8960    2.3300 C.ar  211  HIS211      0.0817
     80  ND1        6.7390   45.5050    2.7540 N.ar  211  HIS211     -0.2268
     81  CD2        8.5880   44.7930    1.7600 C.ar  211  HIS211      0.1154
     82  CE1        6.5600   44.2180    2.4360 C.ar  211  HIS211      0.1986
     83  NE2        7.6730   43.7600    1.8410 N.ar  211  HIS211     -0.2212
     84  N         10.9980   44.9710   -1.7450 N.3   213  ASP213     -0.1225
     85  CA        11.8050   43.8500   -1.2070 C.3   213  ASP213      0.1805
     86  C         13.3220   44.0790   -1.3840 C.2   213  ASP213      0.2597
     87  O         13.8170   44.6840   -2.3860 O.2   213  ASP213     -0.2718
     88  CB        11.4900   42.4470   -1.8800 C.3   213  ASP213      0.1424
     89  CG        10.1430   41.8660   -1.4670 C.2   213  ASP213      0.3668
     90  OD1        9.4380   42.4060   -0.5430 O.co2 213  ASP213     -0.2456
     91  OD2        9.7530   40.7840   -2.0460 O.co2 213  ASP213     -0.2456
     92  N         14.0720   43.5170   -0.4370 N.am  214  VAL214     -0.1980
     93  CA        15.5330   43.4510   -0.5880 C.3   214  VAL214      0.1595
     94  C         15.9340   42.0180   -1.1990 C.2   214  VAL214      0.2287
     95  O         15.9460   41.0100   -0.4750 O.2   214  VAL214     -0.2864
     96  CB        16.2370   43.6320    0.7660 C.3   214  VAL214      0.0276
     97  CG1       17.7530   43.7710    0.5100 C.3   214  VAL214      0.0022
     98  CG2       15.7300   44.9550    1.4200 C.3   214  VAL214      0.0022
     99  N         11.8310   37.5150   -5.5470 N.3   218  THR218     -0.1218
    100  CA        11.3450   36.7770   -4.4120 C.3   218  THR218      0.1862
    101  C         10.3770   35.6870   -4.8810 C.2   218  THR218      0.2287
    102  O          9.5240   35.9320   -5.7430 O.2   218  THR218     -0.2866
    103  CB        10.5990   37.8270   -3.4660 C.3   218  THR218      0.1770
    104  OG1       11.5630   38.8510   -3.0370 O.3   218  THR218     -0.2211
    105  CG2       10.0050   37.1090   -2.2190 C.3   218  THR218      0.0375
    106  N          7.6490   32.9790   -3.4660 N.3   220  LEU220     -0.1245
    107  CA         6.8600   32.8690   -2.1790 C.3   220  LEU220      0.1561
    108  C          5.7390   31.7990   -2.2010 C.2   220  LEU220      0.2260
    109  O          4.8760   31.8340   -3.1200 O.2   220  LEU220     -0.2867
    110  CB         6.2200   34.2870   -1.8890 C.3   220  LEU220      0.0270
    111  CG         5.2090   34.3730   -0.6830 C.3   220  LEU220      0.0019
    112  CD1        5.9170   34.0310    0.7490 C.3   220  LEU220      0.0001
    113  CD2        4.5920   35.8160   -0.7190 C.3   220  LEU220      0.0001
    114  N          2.3870   30.8140    0.0990 N.3   222  GLN222     -0.1245
    115  CA         1.4770   31.1330    1.2310 C.3   222  GLN222      0.1566
    116  C          0.2550   30.1770    1.3110 C.2   222  GLN222      0.2260
    117  O         -0.1850   29.6130    0.2910 O.2   222  GLN222     -0.2867
    118  CB         0.9410   32.5780    1.1380 C.3   222  GLN222      0.0367
    119  CG         2.0790   33.7370    1.0630 C.3   222  GLN222      0.0905
    120  CD         1.5360   35.0670    1.6750 C.2   222  GLN222      0.2608
    121  OE1        0.3580   35.4370    1.3800 O.2   222  GLN222     -0.2717
    122  NE2        2.2970   35.7610    2.4480 N.am  222  GLN222     -0.0878
    123  N         -2.3660   39.9130    1.0370 N.3   228  LEU228     -0.1245
    124  CA        -1.4040   40.8470    0.3670 C.3   228  LEU228      0.1561
    125  C         -2.1070   41.9490   -0.5010 C.2   228  LEU228      0.2260
    126  O         -3.1470   41.6860   -1.1300 O.2   228  LEU228     -0.2867
    127  CB        -0.4470   40.0640   -0.5520 C.3   228  LEU228      0.0270
    128  CG         0.3670   38.9570    0.1010 C.3   228  LEU228      0.0019
    129  CD1        1.2170   38.1600   -0.9370 C.3   228  LEU228      0.0001
    130  CD2        1.3590   39.6110    1.0840 C.3   228  LEU228      0.0001
    131  N          4.4100   46.9750   -1.7260 N.3   267  HIS267     -0.1241
    132  CA         3.3460   46.0700   -1.2320 C.3   267  HIS267      0.1621
    133  C          3.2920   46.0350    0.2890 C.2   267  HIS267      0.2264
    134  O          4.2270   46.5020    0.9850 O.2   267  HIS267     -0.2867
    135  CB         3.4510   44.6330   -1.8580 C.3   267  HIS267      0.0745
    136  CG         4.7770   43.9640   -1.6020 C.ar  267  HIS267      0.0817
    137  ND1        5.9550   44.3380   -2.2310 N.ar  267  HIS267     -0.2268
    138  CD2        5.1080   42.9810   -0.7210 C.ar  267  HIS267      0.1154
    139  CE1        6.9650   43.6140   -1.7420 C.ar  267  HIS267      0.1986
    140  NE2        6.4590   42.7460   -0.8480 N.ar  267  HIS267     -0.2212
    141  N          1.0650   44.0200    3.9940 N.3   269  VAL269     -0.1245
    142  CA         0.3590   42.8270    4.5440 C.3   269  VAL269      0.1561
    143  C         -0.8340   43.2940    5.3990 C.2   269  VAL269      0.2260
    144  O         -0.6450   43.9550    6.4400 O.2   269  VAL269     -0.2867
    145  CB         1.3420   41.9630    5.4230 C.3   269  VAL269      0.0252
    146  CG1        0.6100   40.7750    6.1820 C.3   269  VAL269      0.0019
    147  CG2        2.4980   41.4120    4.5630 C.3   269  VAL269      0.0019
    148  N         -1.9010   30.8940    9.7560 N.3   276  ARG276     -0.1245
    149  CA        -1.4520   30.8020    8.3760 C.3   276  ARG276      0.1563
    150  C          0.0900   30.8260    8.2450 C.2   276  ARG276      0.2260
    151  O          0.8090   31.0060    9.2480 O.2   276  ARG276     -0.2867
    152  CB        -2.0720   31.9090    7.5410 C.3   276  ARG276      0.0307
    153  CG        -1.5420   33.3610    7.8930 C.3   276  ARG276      0.0489
    154  CD        -2.4930   34.4620    7.1970 C.3   276  ARG276      0.2205
    155  NE        -1.9520   35.8190    7.4420 N.pl3 276  ARG276     -0.0865
    156  CZ        -0.8890   36.3670    6.8050 C.cat 276  ARG276      0.5346
    157  NH1       -0.2160   35.7180    5.8150 N.pl3 276  ARG276      0.1354
    158  NH2       -0.4710   37.5990    7.1310 N.pl3 276  ARG276      0.1354
    159  N          3.5880   32.1200    5.8180 N.3   278  SER278     -0.1217
    160  CA         4.2060   32.9310    4.7240 C.3   278  SER278      0.1889
    161  C          5.6920   32.4580    4.6050 C.2   278  SER278      0.2288
    162  O          6.4400   32.5800    5.5800 O.2   278  SER278     -0.2866
    163  CB         4.1000   34.4690    4.9830 C.3   278  SER278      0.2089
    164  OG         4.7750   35.1960    3.9210 O.3   278  SER278     -0.2183
    165  N          8.7370   32.7510    2.2880 N.3   280  PRO280     -0.2116
    166  CA         9.5700   33.2900    1.1980 C.3   280  PRO280      0.1372
    167  C         10.9660   32.6720    1.0210 C.2   280  PRO280      0.2244
    168  O         11.6250   32.2630    1.9900 O.2   280  PRO280     -0.2868
    169  CB         9.7490   34.7920    1.6180 C.3   280  PRO280      0.0268
    170  CG         9.7080   34.7890    3.0920 C.3   280  PRO280      0.0207
    171  CD         8.5810   33.7660    3.3680 C.3   280  PRO280      0.0892
    172  N         14.2170   34.3330   -0.7060 N.3   282  PHE282     -0.1241
    173  CA        14.8190   35.5210   -1.2740 C.3   282  PHE282      0.1605
    174  C         16.0020   35.1460   -2.1540 C.2   282  PHE282      0.2264
    175  O         17.0580   34.7000   -1.6260 O.2   282  PHE282     -0.2867
    176  CB        15.2780   36.5060   -0.1660 C.3   282  PHE282      0.0534
    177  CG        14.0970   37.0430    0.6550 C.ar  282  PHE282     -0.0203
    178  CD1       13.1600   37.9260    0.0580 C.ar  282  PHE282     -0.0042
    179  CD2       13.8850   36.5960    1.9780 C.ar  282  PHE282     -0.0042
    180  CE1       12.0140   38.3870    0.8070 C.ar  282  PHE282     -0.0003
    181  CE2       12.7490   36.9980    2.7470 C.ar  282  PHE282     -0.0003
    182  CZ        11.7920   37.8740    2.1990 C.ar  282  PHE282     -0.0000
    183  N         19.0880   35.8870   -3.6920 N.3   284  ASN284     -0.1240
    184  CA        20.2450   36.7930   -3.5920 C.3   284  ASN284      0.1653
    185  C         21.4580   36.1490   -4.3520 C.2   284  ASN284      0.2266
    186  O         21.5220   34.8890   -4.4510 O.2   284  ASN284     -0.2867
    187  CB        20.6380   36.9330   -2.0980 C.3   284  ASN284      0.1155
    188  CG        19.5510   37.6170   -1.2570 C.2   284  ASN284      0.2627
    189  OD1       18.9290   38.5630   -1.7510 O.2   284  ASN284     -0.2716
    190  ND2       19.3940   37.2210    0.0430 N.am  284  ASN284     -0.0877
    191  N         23.0360   44.1360   -0.0610 N.3   314  LEU314     -0.1245
    192  CA        22.2460   43.2760    0.8780 C.3   314  LEU314      0.1561
    193  C         22.4210   43.7930    2.3320 C.2   314  LEU314      0.2260
    194  O         21.4200   43.9800    3.0590 O.2   314  LEU314     -0.2867
    195  CB        22.6370   41.8010    0.7170 C.3   314  LEU314      0.0270
    196  CG        21.9100   40.7930    1.6770 C.3   314  LEU314      0.0019
    197  CD1       20.4310   40.7510    1.2260 C.3   314  LEU314      0.0001
    198  CD2       22.5920   39.3790    1.6280 C.3   314  LEU314      0.0001
    199  N         19.1220   45.2780    4.3300 N.3   318  LEU318     -0.1245
    200  CA        18.4700   44.6030    5.4980 C.3   318  LEU318      0.1561
    201  C         18.4190   45.5540    6.7250 C.2   318  LEU318      0.2260
    202  O         17.4210   45.5500    7.4560 O.2   318  LEU318     -0.2867
    203  CB        19.1040   43.2030    5.8590 C.3   318  LEU318      0.0270
    204  CG        18.9780   42.1620    4.6870 C.3   318  LEU318      0.0019
    205  CD1       19.5580   40.8010    5.0060 C.3   318  LEU318      0.0001
    206  CD2       17.4990   41.8630    4.2250 C.3   318  LEU318      0.0001
    207  N         15.6150   48.2630    6.1950 N.3   321  LEU321     -0.1245
    208  CA        14.2740   47.6950    6.2860 C.3   321  LEU321      0.1561
    209  C         13.8600   47.5040    7.7750 C.2   321  LEU321      0.2260
    210  O         12.6870   47.7020    8.0920 O.2   321  LEU321     -0.2867
    211  CB        14.2310   46.3620    5.5150 C.3   321  LEU321      0.0270
    212  CG        12.9560   45.7130    4.9260 C.3   321  LEU321      0.0019
    213  CD1       12.7720   44.2160    5.1380 C.3   321  LEU321      0.0001
    214  CD2       11.6440   46.5940    4.8860 C.3   321  LEU321      0.0001
    215  N         11.5940   42.2250   13.0590 N.3   328  THR328     -0.1218
    216  CA        10.5870   41.1350   12.9640 C.3   328  THR328      0.1862
    217  C         10.9130   39.9470   13.9240 C.2   328  THR328      0.2287
    218  O         10.1510   38.9790   13.9110 O.2   328  THR328     -0.2866
    219  CB        10.5030   40.5560   11.5350 C.3   328  THR328      0.1770
    220  OG1       11.7690   39.9970   11.1770 O.3   328  THR328     -0.2211
    221  CG2       10.0970   41.6140   10.4950 C.3   328  THR328      0.0375
@<TRIPOS>BOND
     1   102   101    2
     2    99   100    1
     3   101   100    1
     4   186   185    2
     5   100   103    1
     6   185   184    1
     7   183   184    1
     8   184   187    1
     9   103   104    1
    10   103   105    1
    11   106   107    1
    12   109   108    2
    13    87    86    2
    14   137   139   ar
    15   137   136   ar
    16   108   107    1
    17   107   110    1
    18   174   175    2
    19   174   173    1
    20   187   188    1
    21    91    89   ar
    22   110   111    1
    23    88    89    1
    24    88    85    1
    25   135   136    1
    26   135   132    1
    27   189   188    2
    28    84    85    1
    29   139   140   ar
    30   131   132    1
    31   136   138   ar
    32    89    90   ar
    33    86    85    1
    34    86    92   am
    35   173   172    1
    36   173   176    1
    37   188   190   am
    38   132   133    1
    39    94    93    1
    40    94    95    2
    41   126   125    2
    42   129   128    1
    43   140   138   ar
    44   113   111    1
    45   111   112    1
    46    77    76    2
    47    93    92    1
    48    93    96    1
    49   127   128    1
    50   127   124    1
    51   125   124    1
    52   176   177    1
    53   191   192    1
    54    76    75    1
    55   178   177   ar
    56   178   180   ar
    57   114   115    1
    58   128   130    1
    59   133   134    2
    60   117   116    2
    61   124   123    1
    62    97    96    1
    63   177   179   ar
    64   195   192    1
    65   195   196    1
    66    96    98    1
    67   180   182   ar
    68   192   193    1
    69   167   166    1
    70   167   168    2
    71   119   118    1
    72   119   120    1
    73    30    31    1
    74   118   115    1
    75   166   169    1
    76   166   165    1
    77   197   196    1
    78   115   116    1
    79   121   120    2
    80    33    32    2
    81    75    74    1
    82    75    78    1
    83   169   170    1
    84   198   196    1
    85   120   122   am
    86    81    83   ar
    87    81    79   ar
    88    83    82   ar
    89   179   181   ar
    90   182   181   ar
    91   165   171    1
    92    32    31    1
    93    79    78    1
    94    79    80   ar
    95   193   194    2
    96    31    34    1
    97    82    80   ar
    98   170   171    1
    99    35    34    1
   100    11     9    1
   101   164   163    1
   102   141   142    1
   103    10     9    1
   104   206   204    1
   105   199   200    1
   106     9     8    2
   107   142   143    1
   108   142   145    1
   109   147   145    1
   110   161   160    1
   111   161   162    2
   112   204   205    1
   113   204   203    1
   114   160   163    1
   115   160   159    1
   116    36    37    1
   117   214   212    1
   118   212   213    1
   119   212   211    1
   120   143   144    2
   121    39    38    2
   122   145   146    1
   123   200   203    1
   124   200   201    1
   125   211   208    1
   126     8     7    1
   127   157   156    1
   128    72    70   ar
   129    72    73   ar
   130    42    40    1
   131    70    68   ar
   132    37    38    1
   133    37    40    1
   134    66    65    2
   135   207   208    1
   136    40    41    1
   137   208   209    1
   138     7     6    1
   139    50    48    1
   140   201   202    2
   141   156   158    1
   142   156   155    2
   143    73    71   ar
   144    65    64    1
   145   154   155    1
   146   154   153    1
   147    68    67    1
   148    68    69   ar
   149    67    64    1
   150   152   153    1
   151   152   149    1
   152    29    28    1
   153    48    47    1
   154   209   210    2
   155     6     5    1
   156    60    58   ar
   157    60    61   ar
   158    64    63    1
   159    62    61    1
   160    43    44    1
   161   150   149    1
   162   150   151    2
   163    71    69   ar
   164    47    44    1
   165    47    49    1
   166   149   148    1
   167    58    56   ar
   168     5     2    1
   169    61    59   ar
   170    46    45    2
   171    26    25    1
   172    26    27    2
   173    28    25    1
   174    25    24    1
   175    44    45    1
   176    56    57   ar
   177    56    55    1
   178    59    57   ar
   179     2     3    1
   180     2     1    1
   181    55    52    1
   182     4     3    2
   183   221   219    1
   184    23    22    1
   185    51    52    1
   186   220   219    1
   187    22    21   ar
   188    22    20   ar
   189    52    53    1
   190   219   216    1
   191    54    53    2
   192    21    19   ar
   193    20    18   ar
   194    19    17   ar
   195   216   215    1
   196   216   217    1
   197    18    17   ar
   198    17    16    1
   199   218   217    2
   200    16    13    1
   201    12    13    1
   202    13    14    1
   203    15    14    2
