@<TRIPOS>MOLECULE
tmp/2y6gA00.pdb
 125 117 0 0 0
SMALL
GASTEIGER

@<TRIPOS>ATOM
      1  N          3.7280    0.4880   -2.3940 N.3    29  ASP29      -0.1239
      2  CA         2.5080    1.0540   -2.8980 C.3    29  ASP29       0.1674
      3  C          2.2750    0.4490   -4.2790 C.2    29  ASP29       0.2266
      4  O          3.1180    0.6130   -5.1510 O.2    29  ASP29      -0.2867
      5  CB         2.6030    2.5680   -3.0120 C.3    29  ASP29       0.1410
      6  CG         1.3800    3.1240   -3.7150 C.2    29  ASP29       0.3668
      7  OD1        0.2920    3.0740   -3.0970 O.co2  29  ASP29      -0.2456
      8  OD2        1.5350    3.5620   -4.8640 O.co2  29  ASP29      -0.2456
      9  N         -0.1560    0.2070   -7.7260 N.3    31  ASN31      -0.1240
     10  CA        -1.0520    1.0510   -8.4760 C.3    31  ASN31       0.1653
     11  C         -1.5140    0.4260   -9.7870 C.2    31  ASN31       0.2266
     12  O         -0.6780   -0.0930  -10.4930 O.2    31  ASN31      -0.2867
     13  CB        -0.3560    2.3680   -8.8290 C.3    31  ASN31       0.1155
     14  CG        -1.1780    3.2250   -9.7780 C.2    31  ASN31       0.2627
     15  OD1       -2.2660    3.6270   -9.3900 O.2    31  ASN31      -0.2716
     16  ND2       -0.6710    3.5010  -10.9870 N.am   31  ASN31      -0.0877
     17  N          3.5350    3.1310  -16.5490 N.3    69  PHE69      -0.1241
     18  CA         3.3850    3.3770  -15.1110 C.3    69  PHE69       0.1605
     19  C          1.9430    3.1510  -14.6940 C.2    69  PHE69       0.2264
     20  O          1.6590    3.2850  -13.5100 O.2    69  PHE69      -0.2867
     21  CB         3.8810    4.7610  -14.7220 C.3    69  PHE69       0.0534
     22  CG         3.4130    5.8900  -15.6090 C.ar   69  PHE69      -0.0203
     23  CD1        2.1340    6.4020  -15.5230 C.ar   69  PHE69      -0.0042
     24  CD2        4.2740    6.4370  -16.5640 C.ar   69  PHE69      -0.0042
     25  CE1        1.7180    7.4430  -16.3460 C.ar   69  PHE69      -0.0003
     26  CE2        3.8670    7.4750  -17.4080 C.ar   69  PHE69      -0.0003
     27  CZ         2.5910    7.9590  -17.2770 C.ar   69  PHE69      -0.0000
     28  N          2.1140   -0.4360  -11.5900 N.3    72  GLN72      -0.1245
     29  CA         3.3540   -0.2050  -10.8820 C.3    72  GLN72       0.1566
     30  C          3.3680   -0.8450   -9.5070 C.2    72  GLN72       0.2260
     31  O          2.3130   -0.9520   -8.8860 O.2    72  GLN72      -0.2867
     32  CB         3.6800    1.2590  -10.5500 C.3    72  GLN72       0.0367
     33  CG         3.5360    2.2850  -11.6110 C.3    72  GLN72       0.0905
     34  CD         3.9700    3.6010  -10.9380 C.2    72  GLN72       0.2608
     35  OE1        5.1300    3.9320  -11.0820 O.2    72  GLN72      -0.2717
     36  NE2        3.0420    4.2510  -10.2720 N.am   72  GLN72      -0.0878
     37  N          5.7100    0.2550   -6.2950 N.3    74  THR74      -0.1218
     38  CA         6.6400    1.2870   -5.8720 C.3    74  THR74       0.1862
     39  C          7.0610    1.0600   -4.4300 C.2    74  THR74       0.2287
     40  O          6.2060    1.0320   -3.5150 O.2    74  THR74      -0.2866
     41  CB         5.9420    2.6730   -6.0320 C.3    74  THR74       0.1770
     42  OG1        5.5980    2.8700   -7.3970 O.3    74  THR74      -0.2211
     43  CG2        6.9130    3.7270   -5.5810 C.3    74  THR74       0.0375
     44  N          8.1140    2.2780   -1.0140 N.3    76  LEU76      -0.1245
     45  CA         8.0220    3.5450   -0.2890 C.3    76  LEU76       0.1561
     46  C          7.5700    3.2350    1.1380 C.2    76  LEU76       0.2260
     47  O          6.7610    2.3300    1.3840 O.2    76  LEU76      -0.2867
     48  CB         7.1500    4.5390   -1.0060 C.3    76  LEU76       0.0270
     49  CG         5.6620    4.5170   -0.9280 C.3    76  LEU76       0.0019
     50  CD1        5.1950    5.3460    0.2580 C.3    76  LEU76       0.0001
     51  CD2        5.0750    5.1250   -2.2110 C.3    76  LEU76       0.0001
     52  N         12.8720    1.9890  -11.4900 N.3   104  THR104     -0.1218
     53  CA        13.2040    3.4030  -11.3900 C.3   104  THR104      0.1862
     54  C         13.2620    3.8580   -9.9420 C.2   104  THR104      0.2287
     55  O         12.7710    3.1560   -9.0550 O.2   104  THR104     -0.2866
     56  CB        12.1780    4.3120  -12.1110 C.3   104  THR104      0.1770
     57  OG1       11.0430    4.5510  -11.2830 O.3   104  THR104     -0.2211
     58  CG2       11.6800    3.7290  -13.4280 C.3   104  THR104      0.0375
     59  N          8.0510   13.2180   -7.8260 N.3   110  PHE110     -0.1227
     60  CA         8.1160   12.3800   -9.0240 C.3   110  PHE110      0.1736
     61  C          9.2910   12.7300   -9.9080 C.2   110  PHE110      0.2595
     62  O          9.4110   12.2160  -11.0420 O.2   110  PHE110     -0.2718
     63  CB         6.7840   12.4340   -9.7740 C.3   110  PHE110      0.0547
     64  CG         5.6120   12.0680   -8.8960 C.ar  110  PHE110     -0.0202
     65  CD1        5.5680   10.8510   -8.2620 C.ar  110  PHE110     -0.0042
     66  CD2        4.5520   12.9600   -8.7000 C.ar  110  PHE110     -0.0042
     67  CE1        4.5380   10.4690   -7.4520 C.ar  110  PHE110     -0.0003
     68  CE2        3.5300   12.5520   -7.8710 C.ar  110  PHE110     -0.0003
     69  CZ         3.4850   11.3440   -7.2420 C.ar  110  PHE110     -0.0000
     70  N         10.2520   13.5260   -9.4150 N.am  111  ASP111     -0.1960
     71  CA        11.4670   13.6910  -10.2010 C.3   111  ASP111      0.1840
     72  C         12.2880   12.4080  -10.1240 C.2   111  ASP111      0.2621
     73  O         12.5450   11.8500   -9.0370 O.2   111  ASP111     -0.2715
     74  CB        12.3400   14.7960   -9.6430 C.3   111  ASP111      0.1450
     75  CG        11.6790   16.1320   -9.4280 C.2   111  ASP111      0.3671
     76  OD1       11.0620   16.6020  -10.4120 O.co2 111  ASP111     -0.2456
     77  OD2       11.7900   16.6970   -8.3110 O.co2 111  ASP111     -0.2456
     78  N         12.7210   11.9460  -11.2790 N.am  112  GLU112     -0.1977
     79  CA        13.4370   10.6490  -11.3530 C.3   112  GLU112      0.1602
     80  C         14.9360   10.8420  -11.2070 C.2   112  GLU112      0.2287
     81  O         15.5200   11.6450  -11.9500 O.2   112  GLU112     -0.2864
     82  CB        12.9950    9.9840  -12.6630 C.3   112  GLU112      0.0415
     83  CG        13.4790    8.5500  -12.7860 C.3   112  GLU112      0.1163
     84  CD        12.9750    7.8760  -14.0400 C.2   112  GLU112      0.3649
     85  OE1       11.7770    7.5080  -14.0830 O.co2 112  GLU112     -0.2457
     86  OE2       13.7680    7.6930  -14.9920 O.co2 112  GLU112     -0.2457
     87  N         17.1870    5.1580  -13.5890 N.3   115  ARG115     -0.1245
     88  CA        16.4330    3.9720  -13.9080 C.3   115  ARG115      0.1563
     89  C         17.3000    2.9730  -14.7020 C.2   115  ARG115      0.2260
     90  O         18.3110    3.3200  -15.3310 O.2   115  ARG115     -0.2867
     91  CB        15.1730    4.2610  -14.7160 C.3   115  ARG115      0.0307
     92  CG        15.4620    4.7840  -16.1210 C.3   115  ARG115      0.0489
     93  CD        14.2720    4.6220  -17.0420 C.3   115  ARG115      0.2205
     94  NE        13.1160    5.3700  -16.5600 N.pl3 115  ARG115     -0.0865
     95  CZ        11.8650    5.1770  -16.9030 C.cat 115  ARG115      0.5346
     96  NH1       11.3050    4.3180  -17.7160 N.pl3 115  ARG115      0.1354
     97  NH2       10.9920    5.9750  -16.3150 N.pl3 115  ARG115      0.1354
     98  N         11.2010    7.1920   -3.3240 N.3   142  ARG142     -0.1245
     99  CA        10.4220    6.0310   -3.7280 C.3   142  ARG142      0.1563
    100  C         11.0680    5.3460   -4.9340 C.2   142  ARG142      0.2260
    101  O         11.9680    5.9040   -5.5810 O.2   142  ARG142     -0.2867
    102  CB         8.9940    6.4080   -4.1000 C.3   142  ARG142      0.0307
    103  CG         8.1660    7.0600   -3.0320 C.3   142  ARG142      0.0489
    104  CD         7.4850    8.3030   -3.5920 C.3   142  ARG142      0.2205
    105  NE         6.5340    8.7690   -2.6050 N.pl3 142  ARG142     -0.0865
    106  CZ         5.2450    8.9460   -2.6860 C.cat 142  ARG142      0.5346
    107  NH1        4.5580    8.6970   -3.7830 N.pl3 142  ARG142      0.1354
    108  NH2        4.6440    9.3890   -1.5930 N.pl3 142  ARG142      0.1354
    109  N          9.6690    3.3620   -8.0190 N.3   144  PRO144     -0.2116
    110  CA         8.6320    2.7950   -8.8930 C.3   144  PRO144      0.1372
    111  C          9.1520    1.7940   -9.9260 C.2   144  PRO144      0.2244
    112  O         10.0890    2.0720  -10.7030 O.2   144  PRO144     -0.2868
    113  CB         8.0340    4.0510   -9.5380 C.3   144  PRO144      0.0268
    114  CG         8.5260    5.2300   -8.7430 C.3   144  PRO144      0.0207
    115  CD         9.8760    4.7870   -8.2470 C.3   144  PRO144      0.0892
    116  N          7.8570   -0.2070  -13.1930 N.3   146  HIS146     -0.1241
    117  CA         6.7790   -0.1150  -14.1930 C.3   146  HIS146      0.1621
    118  C          6.5820   -1.4460  -14.9120 C.2   146  HIS146      0.2264
    119  O          7.5610   -1.9810  -15.4420 O.2   146  HIS146     -0.2867
    120  CB         7.1040    0.9560  -15.2310 C.3   146  HIS146      0.0745
    121  CG         7.2540    2.3200  -14.6660 C.ar  146  HIS146      0.0817
    122  ND1        7.7900    3.3200  -15.4090 N.ar  146  HIS146     -0.2268
    123  CD2        6.9540    2.8330  -13.4510 C.ar  146  HIS146      0.1154
    124  CE1        7.8090    4.4200  -14.6490 C.ar  146  HIS146      0.1986
    125  NE2        7.3150    4.1550  -13.4620 N.ar  146  HIS146     -0.2212
@<TRIPOS>BOND
     1    96    95    1
     2    26    27   ar
     3    26    24   ar
     4    27    25   ar
     5    93    94    1
     6    93    92    1
     7    95    94    2
     8    95    97    1
     9    24    22   ar
    10    17    18    1
    11    25    23   ar
    12    92    91    1
    13    22    23   ar
    14    22    21    1
    15   119   118    2
    16   122   121   ar
    17   122   124   ar
    18    90    89    2
    19   120   121    1
    20   120   117    1
    21    18    21    1
    22    18    19    1
    23    86    84   ar
    24   118   117    1
    25    91    88    1
    26    89    88    1
    27    19    20    2
    28   121   123   ar
    29   124   125   ar
    30   117   116    1
    31    85    84   ar
    32    84    83    1
    33    88    87    1
    34   125   123   ar
    35    58    56    1
    36    83    82    1
    37    82    79    1
    38    56    53    1
    39    56    57    1
    40    81    80    2
    41    33    34    1
    42    33    32    1
    43    28    29    1
    44    52    53    1
    45    53    54    1
    46    79    78    1
    47    79    80    1
    48    78    72   am
    49    35    34    2
    50    62    61    2
    51    16    14   am
    52    34    36   am
    53    29    32    1
    54    29    30    1
    55   112   111    2
    56    12    11    2
    57    76    75   ar
    58    71    72    1
    59    71    74    1
    60    71    70    1
    61    72    73    2
    62    54    55    2
    63   111   110    1
    64    61    70   am
    65    61    60    1
    66    11    10    1
    67    14    15    2
    68    14    13    1
    69    63    60    1
    70    63    64    1
    71    74    75    1
    72   113   110    1
    73   113   114    1
    74    30    31    2
    75    75    77   ar
    76    60    59    1
    77    64    66   ar
    78    64    65   ar
    79   110   109    1
    80    13    10    1
    81   114   115    1
    82    66    68   ar
    83    10     9    1
    84    65    67   ar
    85   115   109    1
    86    68    69   ar
    87    67    69   ar
    88    42    41    1
    89    37    38    1
    90    41    38    1
    91    41    43    1
    92    38    39    1
    93   101   100    2
    94     4     3    2
    95   100    99    1
    96     8     6   ar
    97    39    40    2
    98     3     2    1
    99   102    99    1
   100   102   103    1
   101   107   106    1
   102    99    98    1
   103     6     7   ar
   104     6     5    1
   105   104   103    1
   106   104   105    1
   107     5     2    1
   108     2     1    1
   109   106   105    2
   110   106   108    1
   111    51    49    1
   112    44    45    1
   113    48    49    1
   114    48    45    1
   115    49    50    1
   116    45    46    1
   117    46    47    2
