@<TRIPOS>MOLECULE
tmp/2y6iA04.pdb
 96 91 0 0 0
SMALL
GASTEIGER

@<TRIPOS>ATOM
      1  N         30.5260   27.1700   36.2710 N.3   248  GLU248     -0.1245
      2  CA        30.8780   26.1770   37.2720 C.3   248  GLU248      0.1567
      3  C         29.6530   25.7600   38.0690 C.2   248  GLU248      0.2260
      4  O         29.5040   24.5800   38.4100 O.2   248  GLU248     -0.2867
      5  CB        31.9600   26.7230   38.1970 C.3   248  GLU248      0.0388
      6  CG        33.3080   26.8840   37.5200 C.3   248  GLU248      0.1160
      7  CD        34.2890   27.6720   38.3520 C.2   248  GLU248      0.3649
      8  OE1       33.8470   28.5000   39.1770 O.co2 248  GLU248     -0.2457
      9  OE2       35.5090   27.4650   38.1790 O.co2 248  GLU248     -0.2457
     10  N         27.5890   23.3860   36.0740 N.3   251  VAL251     -0.1231
     11  CA        28.1150   22.0310   36.2170 C.3   251  VAL251      0.1692
     12  C         27.4840   21.3930   37.4490 C.2   251  VAL251      0.2592
     13  O         26.8920   20.3200   37.3540 O.2   251  VAL251     -0.2718
     14  CB        29.6660   22.0020   36.3360 C.3   251  VAL251      0.0266
     15  CG1       30.1750   20.5750   36.5160 C.3   251  VAL251      0.0020
     16  CG2       30.3150   22.6370   35.1200 C.3   251  VAL251      0.0020
     17  N         27.5920   22.0830   38.5860 N.am  252  ASP252     -0.1974
     18  CA        27.0940   21.5900   39.8720 C.3   252  ASP252      0.1709
     19  C         25.5720   21.4300   39.9420 C.2   252  ASP252      0.2293
     20  O         25.0760   20.5660   40.6670 O.2   252  ASP252     -0.2864
     21  CB        27.5740   22.4920   41.0160 C.3   252  ASP252      0.1436
     22  CG        29.0400   22.2710   41.3750 C.2   252  ASP252      0.3671
     23  OD1       29.5740   21.1720   41.1110 O.co2 252  ASP252     -0.2456
     24  OD2       29.6570   23.2010   41.9400 O.co2 252  ASP252     -0.2456
     25  N         24.7940   18.2170   37.5560 N.3   255  LYS255     -0.1231
     26  CA        25.9620   17.3340   37.5640 C.3   255  LYS255      0.1693
     27  C         25.6680   15.9930   36.9070 C.2   255  LYS255      0.2592
     28  O         24.7190   15.2900   37.2760 O.2   255  LYS255     -0.2718
     29  CB        26.4930   17.1400   38.9890 C.3   255  LYS255      0.0285
     30  CG        27.9200   16.6430   39.0600 C.3   255  LYS255      0.0035
     31  CD        28.3510   16.4300   40.5070 C.3   255  LYS255      0.0206
     32  CE        28.3240   17.7350   41.2830 C.3   255  LYS255      0.1093
     33  NZ        29.3650   18.6800   40.7790 N.3   255  LYS255     -0.1314
     34  N         26.4890   15.6790   35.9060 N.am  256  TYR256     -0.1976
     35  CA        26.4080   14.4460   35.0930 C.3   256  TYR256      0.1639
     36  C         25.1510   14.3320   34.2110 C.2   256  TYR256      0.2290
     37  O         24.7800   13.2420   33.7790 O.2   256  TYR256     -0.2864
     38  CB        26.7000   13.1890   35.9390 C.3   256  TYR256      0.0560
     39  CG        27.8740   13.4060   36.8710 C.ar  256  TYR256     -0.0198
     40  CD1       29.0670   13.9590   36.3980 C.ar  256  TYR256     -0.0009
     41  CD2       27.7830   13.0970   38.2250 C.ar  256  TYR256     -0.0009
     42  CE1       30.1430   14.1900   37.2440 C.ar  256  TYR256      0.0417
     43  CE2       28.8620   13.3180   39.0860 C.ar  256  TYR256      0.0417
     44  CZ        30.0390   13.8670   38.5850 C.ar  256  TYR256      0.1957
     45  OH        31.1140   14.0960   39.4160 O.3   256  TYR256     -0.2866
     46  N         31.2360   22.3840   30.9860 N.3   264  MET264     -0.1245
     47  CA        32.6520   22.0230   31.0840 C.3   264  MET264      0.1570
     48  C         33.3960   22.2170   29.7710 C.2   264  MET264      0.2261
     49  O         34.5650   22.6080   29.7680 O.2   264  MET264     -0.2867
     50  CB        32.8310   20.5850   31.5640 C.3   264  MET264      0.0387
     51  CG        33.0550   20.4400   33.0660 C.3   264  MET264      0.0595
     52  SD        34.5830   21.1380   33.7590 S.3   264  MET264     -0.1393
     53  CE        35.8380   20.5660   32.6200 C.3   264  MET264      0.0692
     54  N         41.1790   23.7450   35.7000 N.3   281  VAL281     -0.1231
     55  CA        40.2300   22.6870   36.0660 C.3   281  VAL281      0.1692
     56  C         40.6140   21.3640   35.4130 C.2   281  VAL281      0.2592
     57  O         41.1140   21.3380   34.2880 O.2   281  VAL281     -0.2718
     58  CB        38.7450   23.0390   35.7400 C.3   281  VAL281      0.0266
     59  CG1       38.2180   24.0940   36.7050 C.3   281  VAL281      0.0020
     60  CG2       38.5620   23.4650   34.2810 C.3   281  VAL281      0.0020
     61  N         40.3840   20.2690   36.1310 N.am  282  ASP282     -0.1974
     62  CA        40.7190   18.9410   35.6370 C.3   282  ASP282      0.1709
     63  C         39.5690   18.3830   34.7990 C.2   282  ASP282      0.2293
     64  O         38.6060   17.8300   35.3340 O.2   282  ASP282     -0.2864
     65  CB        41.0690   18.0060   36.8020 C.3   282  ASP282      0.1436
     66  CG        42.0980   16.9450   36.4260 C.2   282  ASP282      0.3671
     67  OD1       42.2870   16.6700   35.2200 O.co2 282  ASP282     -0.2456
     68  OD2       42.7200   16.3800   37.3490 O.co2 282  ASP282     -0.2456
     69  N         39.5140   14.4470   35.1610 N.3   285  LYS285     -0.1231
     70  CA        38.9350   13.9890   36.4260 C.3   285  LYS285      0.1693
     71  C         37.4110   14.0780   36.4030 C.2   285  LYS285      0.2592
     72  O         36.7280   13.2100   36.9440 O.2   285  LYS285     -0.2718
     73  CB        39.4940   14.7890   37.6090 C.3   285  LYS285      0.0285
     74  CG        39.1280   14.1960   38.9380 C.3   285  LYS285      0.0035
     75  CD        39.5470   15.1100   40.0840 C.3   285  LYS285      0.0206
     76  CE        38.7020   16.3870   40.1560 C.3   285  LYS285      0.1093
     77  NZ        38.7670   17.2360   38.9460 N.3   285  LYS285     -0.1314
     78  N         36.8870   15.1280   35.7750 N.am  286  PHE286     -0.1976
     79  CA        35.4440   15.3090   35.6430 C.3   286  PHE286      0.1639
     80  C         34.8190   14.1680   34.8450 C.2   286  PHE286      0.2290
     81  O         33.8290   13.5680   35.2740 O.2   286  PHE286     -0.2864
     82  CB        35.1150   16.6630   34.9980 C.3   286  PHE286      0.0560
     83  CG        33.6640   16.8280   34.6380 C.ar  286  PHE286     -0.0200
     84  CD1       32.6990   16.9680   35.6280 C.ar  286  PHE286     -0.0042
     85  CD2       33.2630   16.8370   33.3080 C.ar  286  PHE286     -0.0042
     86  CE1       31.3590   17.1130   35.3000 C.ar  286  PHE286     -0.0003
     87  CE2       31.9230   16.9840   32.9670 C.ar  286  PHE286     -0.0003
     88  CZ        30.9690   17.1230   33.9660 C.ar  286  PHE286     -0.0000
     89  N         34.9330   11.0810   36.9080 N.3   289  ASP289     -0.1239
     90  CA        33.8840   11.1100   37.9210 C.3   289  ASP289      0.1674
     91  C         32.5180   10.8720   37.2950 C.2   289  ASP289      0.2266
     92  O         31.6350   10.2800   37.9140 O.2   289  ASP289     -0.2867
     93  CB        33.8900   12.4490   38.6660 C.3   289  ASP289      0.1410
     94  CG        34.9590   12.5220   39.7490 C.2   289  ASP289      0.3668
     95  OD1       35.5700   11.4810   40.0750 O.co2 289  ASP289     -0.2456
     96  OD2       35.1820   13.6280   40.2820 O.co2 289  ASP289     -0.2456
@<TRIPOS>BOND
     1    49    48    2
     2    48    47    1
     3    46    47    1
     4    47    50    1
     5    50    51    1
     6    53    52    1
     7    87    85   ar
     8    87    88   ar
     9    51    52    1
    10    85    83   ar
    11    37    36    2
    12    88    86   ar
    13    36    35    1
    14    60    58    1
    15    57    56    2
    16    83    82    1
    17    83    84   ar
    18    63    64    2
    19    63    62    1
    20    80    81    2
    21    80    79    1
    22    82    79    1
    23    35    34    1
    24    35    38    1
    25    16    14    1
    26    69    70    1
    27    67    66   ar
    28    86    84   ar
    29    56    55    1
    30    56    61   am
    31    62    61    1
    32    62    65    1
    33    79    78    1
    34    54    55    1
    35    58    55    1
    36    58    59    1
    37    78    71   am
    38    34    27   am
    39    38    39    1
    40    10    11    1
    41    11    14    1
    42    11    12    1
    43     1     2    1
    44    14    15    1
    45    40    39   ar
    46    40    42   ar
    47    71    70    1
    48    71    72    2
    49    66    65    1
    50    66    68   ar
    51    70    73    1
    52    39    41   ar
    53    27    28    2
    54    27    26    1
    55    89    90    1
    56    42    44   ar
    57     2     3    1
    58     2     5    1
    59    91    92    2
    60    91    90    1
    61    13    12    2
    62    12    17   am
    63     6     5    1
    64     6     7    1
    65    25    26    1
    66    26    29    1
    67    73    74    1
    68    90    93    1
    69     3     4    2
    70     9     7   ar
    71    41    43   ar
    72     7     8   ar
    73    44    43   ar
    74    44    45    1
    75    17    18    1
    76    93    94    1
    77    74    75    1
    78    77    76    1
    79    29    30    1
    80    30    31    1
    81    94    95   ar
    82    94    96   ar
    83    18    19    1
    84    18    21    1
    85    19    20    2
    86    75    76    1
    87    31    32    1
    88    33    32    1
    89    21    22    1
    90    23    22   ar
    91    22    24   ar
