@<TRIPOS>MOLECULE
tmp/2y6iA06.pdb
 121 118 0 0 0
SMALL
GASTEIGER

@<TRIPOS>ATOM
      1  N          9.0630   26.8030   25.7300 N.3   161  ALA161     -0.1231
      2  CA        10.1820   25.9640   25.2770 C.3   161  ALA161      0.1679
      3  C          9.7770   24.6950   24.5090 C.2   161  ALA161      0.2434
      4  O         10.4020   24.3790   23.4960 O.2   161  ALA161     -0.2733
      5  CB        11.1190   25.6250   26.4380 C.3   161  ALA161      0.0304
      6  N          8.7360   23.9670   24.9760 N.am  162  PRO162     -0.2718
      7  CA         8.3260   22.7780   24.2190 C.3   162  PRO162      0.1535
      8  C          7.7290   23.1030   22.8510 C.2   162  PRO162      0.2599
      9  O          7.7320   22.2460   21.9630 O.2   162  PRO162     -0.2715
     10  CB         7.2590   22.1350   25.1160 C.3   162  PRO162      0.0310
     11  CG         7.5000   22.6960   26.4720 C.3   162  PRO162      0.0237
     12  CD         7.9770   24.0880   26.2350 C.3   162  PRO162      0.0939
     13  N          7.2160   24.3230   22.6890 N.am  163  ASP163     -0.1958
     14  CA         6.6710   24.7520   21.4050 C.3   163  ASP163      0.1840
     15  C          7.8100   24.9730   20.4240 C.2   163  ASP163      0.2622
     16  O          8.8120   25.6160   20.7510 O.2   163  ASP163     -0.2715
     17  CB         5.8180   26.0220   21.5430 C.3   163  ASP163      0.1450
     18  CG         4.8710   26.2360   20.3560 C.2   163  ASP163      0.3671
     19  OD1        5.2590   25.9660   19.1960 O.co2 163  ASP163     -0.2456
     20  OD2        3.7290   26.6880   20.5860 O.co2 163  ASP163     -0.2456
     21  N          7.6490   24.4150   19.2290 N.am  164  TYR164     -0.1974
     22  CA         8.6310   24.5430   18.1670 C.3   164  TYR164      0.1639
     23  C          8.7940   26.0010   17.7500 C.2   164  TYR164      0.2290
     24  O          9.9090   26.5220   17.7250 O.2   164  TYR164     -0.2864
     25  CB         8.2140   23.6920   16.9670 C.3   164  TYR164      0.0560
     26  CG         9.2400   23.6440   15.8580 C.ar  164  TYR164     -0.0198
     27  CD1        9.2630   24.6180   14.8590 C.ar  164  TYR164     -0.0009
     28  CD2       10.1860   22.6190   15.8040 C.ar  164  TYR164     -0.0009
     29  CE1       10.2040   24.5800   13.8360 C.ar  164  TYR164      0.0417
     30  CE2       11.1310   22.5680   14.7840 C.ar  164  TYR164      0.0417
     31  CZ        11.1340   23.5530   13.8030 C.ar  164  TYR164      0.1957
     32  OH        12.0630   23.5140   12.7870 O.3   164  TYR164     -0.2866
     33  N         12.0720   28.0350   18.5390 N.3   168  THR168     -0.1218
     34  CA        12.9260   28.3950   17.4090 C.3   168  THR168      0.1862
     35  C         13.1410   29.9100   17.3350 C.2   168  THR168      0.2287
     36  O         14.2480   30.3720   17.0610 O.2   168  THR168     -0.2866
     37  CB        12.3590   27.8610   16.0740 C.3   168  THR168      0.1770
     38  OG1       11.9810   26.4880   16.2290 O.3   168  THR168     -0.2211
     39  CG2       13.4000   27.9520   14.9730 C.3   168  THR168      0.0375
     40  N         15.7740   30.9700   19.9100 N.3   171  ASN171     -0.1240
     41  CA        17.0130   30.3570   19.4550 C.3   171  ASN171      0.1653
     42  C         17.6310   31.1510   18.3060 C.2   171  ASN171      0.2266
     43  O         18.7690   31.6050   18.4060 O.2   171  ASN171     -0.2867
     44  CB        16.7700   28.8970   19.0520 C.3   171  ASN171      0.1155
     45  CG        17.9890   28.2460   18.4150 C.2   171  ASN171      0.2627
     46  OD1       19.0820   28.2330   18.9870 O.2   171  ASN171     -0.2716
     47  ND2       17.8000   27.6930   17.2220 N.am  171  ASN171     -0.0877
     48  N         11.4220   18.4520   28.3920 N.3   218  ALA218     -0.1245
     49  CA        10.9410   19.3400   27.3380 C.3   218  ALA218      0.1562
     50  C         11.6540   20.6900   27.3060 C.2   218  ALA218      0.2260
     51  O         11.6270   21.3780   26.2830 O.2   218  ALA218     -0.2867
     52  CB         9.4280   19.5340   27.4610 C.3   218  ALA218      0.0290
     53  N         16.9770   21.7590   26.6600 N.3   221  TRP221     -0.1241
     54  CA        17.6850   22.4090   25.5650 C.3   221  TRP221      0.1605
     55  C         17.6970   23.9290   25.7230 C.2   221  TRP221      0.2264
     56  O         18.6910   24.5750   25.4210 O.2   221  TRP221     -0.2867
     57  CB        17.0670   22.0190   24.2200 C.3   221  TRP221      0.0550
     58  CG        15.7000   22.6010   24.0030 C.ar  221  TRP221      0.0003
     59  CD1       14.5040   22.0280   24.3260 C.ar  221  TRP221      0.0946
     60  CD2       15.3920   23.8800   23.4310 C.ar  221  TRP221      0.0152
     61  NE1       13.4690   22.8690   23.9870 N.ar  221  TRP221     -0.2442
     62  CE2       13.9870   24.0130   23.4390 C.ar  221  TRP221      0.0810
     63  CE3       16.1700   24.9300   22.9170 C.ar  221  TRP221      0.0012
     64  CZ2       13.3400   25.1510   22.9470 C.ar  221  TRP221      0.0191
     65  CZ3       15.5260   26.0620   22.4300 C.ar  221  TRP221      0.0001
     66  CH2       14.1250   26.1610   22.4450 C.ar  221  TRP221      0.0015
     67  N         20.0940   24.7790   28.1300 N.3   224  ASP224     -0.1225
     68  CA        21.3500   24.3940   27.4900 C.3   224  ASP224      0.1805
     69  C         21.8590   25.5290   26.6040 C.2   224  ASP224      0.2597
     70  O         23.0100   25.9560   26.7240 O.2   224  ASP224     -0.2718
     71  CB        21.1470   23.1060   26.6790 C.3   224  ASP224      0.1424
     72  CG        22.3990   22.6590   25.9260 C.2   224  ASP224      0.3668
     73  OD1       23.5270   23.0330   26.3180 O.co2 224  ASP224     -0.2456
     74  OD2       22.2530   21.9100   24.9350 O.co2 224  ASP224     -0.2456
     75  N         20.9850   26.0140   25.7250 N.am  225  VAL225     -0.1980
     76  CA        21.2390   27.2010   24.9060 C.3   225  VAL225      0.1595
     77  C         21.7800   28.3390   25.7790 C.2   225  VAL225      0.2287
     78  O         22.8140   28.9430   25.4640 O.2   225  VAL225     -0.2864
     79  CB        19.9420   27.6530   24.1660 C.3   225  VAL225      0.0276
     80  CG1       20.0710   29.0710   23.6170 C.3   225  VAL225      0.0022
     81  CG2       19.5910   26.6780   23.0510 C.3   225  VAL225      0.0022
     82  N         25.4460   27.6290   26.9020 N.3   228  TYR228     -0.1227
     83  CA        26.3500   27.6820   25.7560 C.3   228  TYR228      0.1736
     84  C         26.5910   29.1290   25.3370 C.2   228  TYR228      0.2595
     85  O         27.7370   29.5720   25.2310 O.2   228  TYR228     -0.2718
     86  CB        25.7920   26.8720   24.5830 C.3   228  TYR228      0.0548
     87  CG        26.7250   26.7910   23.3900 C.ar  228  TYR228     -0.0200
     88  CD1       26.6770   27.7460   22.3710 C.ar  228  TYR228     -0.0009
     89  CD2       27.6510   25.7570   23.2750 C.ar  228  TYR228     -0.0009
     90  CE1       27.5310   27.6750   21.2730 C.ar  228  TYR228      0.0417
     91  CE2       28.5060   25.6760   22.1810 C.ar  228  TYR228      0.0417
     92  CZ        28.4390   26.6390   21.1880 C.ar  228  TYR228      0.1957
     93  OH        29.2840   26.5580   20.1130 O.3   228  TYR228     -0.2866
     94  N         25.5050   29.8640   25.1200 N.am  229  TYR229     -0.1976
     95  CA        25.5990   31.2510   24.6890 C.3   229  TYR229      0.1639
     96  C         26.0050   32.2180   25.8060 C.2   229  TYR229      0.2290
     97  O         26.4770   33.3180   25.5250 O.2   229  TYR229     -0.2864
     98  CB        24.3090   31.6810   23.9900 C.3   229  TYR229      0.0560
     99  CG        24.1270   30.9910   22.6580 C.ar  229  TYR229     -0.0198
    100  CD1       24.7540   31.4740   21.5110 C.ar  229  TYR229     -0.0009
    101  CD2       23.3490   29.8430   22.5450 C.ar  229  TYR229     -0.0009
    102  CE1       24.5980   30.8370   20.2820 C.ar  229  TYR229      0.0417
    103  CE2       23.1850   29.2000   21.3210 C.ar  229  TYR229      0.0417
    104  CZ        23.8130   29.7030   20.1970 C.ar  229  TYR229      0.1957
    105  OH        23.6570   29.0730   18.9870 O.3   229  TYR229     -0.2866
    106  N         23.3280   16.4450   30.6240 N.3   258  LYS258     -0.1245
    107  CA        23.8090   17.0490   29.3790 C.3   258  LYS258      0.1561
    108  C         24.5050   18.3950   29.6080 C.2   258  LYS258      0.2260
    109  O         25.6690   18.5650   29.2410 O.2   258  LYS258     -0.2867
    110  CB        22.6700   17.1830   28.3590 C.3   258  LYS258      0.0271
    111  CG        23.1640   17.5350   26.9780 C.3   258  LYS258      0.0035
    112  CD        22.0710   17.4790   25.9160 C.3   258  LYS258      0.0206
    113  CE        20.9090   18.4270   26.2060 C.3   258  LYS258      0.1093
    114  NZ        20.0120   18.5760   25.0150 N.3   258  LYS258     -0.1314
    115  N         28.3100   20.3510   28.6880 N.3   262  VAL262     -0.1245
    116  CA        28.3740   21.5420   27.8410 C.3   262  VAL262      0.1561
    117  C         29.1210   22.6460   28.5850 C.2   262  VAL262      0.2260
    118  O         30.0790   23.2190   28.0560 O.2   262  VAL262     -0.2867
    119  CB        26.9720   22.0380   27.3960 C.3   262  VAL262      0.0252
    120  CG1       27.0910   23.2800   26.5200 C.3   262  VAL262      0.0019
    121  CG2       26.2290   20.9510   26.6460 C.3   262  VAL262      0.0019
@<TRIPOS>BOND
     1    32    31    1
     2    31    29   ar
     3    31    30   ar
     4    29    27   ar
     5    30    28   ar
     6    27    26   ar
     7    39    37    1
     8    28    26   ar
     9    26    25    1
    10    37    38    1
    11    37    34    1
    12    25    22    1
    13    36    35    2
    14    47    45   am
    15    35    34    1
    16    34    33    1
    17    24    23    2
    18    23    22    1
    19    22    21    1
    20    42    43    2
    21    42    41    1
    22    45    46    2
    23    45    44    1
    24   105   104    1
    25    44    41    1
    26    19    18   ar
    27    21    15   am
    28    41    40    1
    29    93    92    1
    30   104   102   ar
    31   104   103   ar
    32   102   100   ar
    33    18    20   ar
    34    18    17    1
    35    15    16    2
    36    15    14    1
    37    92    90   ar
    38    92    91   ar
    39    90    88   ar
    40   103   101   ar
    41    14    17    1
    42    14    13    1
    43   100    99   ar
    44     9     8    2
    45    91    89   ar
    46    88    87   ar
    47    65    66   ar
    48    65    63   ar
    49    66    64   ar
    50   101    99   ar
    51    99    98    1
    52    13     8   am
    53     8     7    1
    54    63    60   ar
    55    64    62   ar
    56    81    79    1
    57    89    87   ar
    58    87    86    1
    59    60    62   ar
    60    60    58   ar
    61    62    61   ar
    62     4     3    2
    63    80    79    1
    64    61    59   ar
    65    98    95    1
    66    58    57    1
    67    58    59   ar
    68    79    76    1
    69     7     6    1
    70     7    10    1
    71    57    54    1
    72     3     6   am
    73     3     2    1
    74    86    83    1
    75    95    94    1
    76    95    96    1
    77    76    75    1
    78    76    77    1
    79    74    72   ar
    80     6    12    1
    81   114   113    1
    82    10    11    1
    83    94    84   am
    84    85    84    2
    85     2     1    1
    86     2     5    1
    87    84    83    1
    88    56    55    2
    89    78    77    2
    90    97    96    2
    91    54    55    1
    92    54    53    1
    93    75    69   am
    94    83    82    1
    95   112   113    1
    96   112   111    1
    97    72    73   ar
    98    72    71    1
    99    12    11    1
   100    51    50    2
   101   120   119    1
   102    69    70    2
   103    69    68    1
   104   121   119    1
   105    71    68    1
   106   111   110    1
   107    50    49    1
   108    49    52    1
   109    49    48    1
   110   119   116    1
   111    68    67    1
   112   116   117    1
   113   116   115    1
   114   118   117    2
   115   110   107    1
   116   109   108    2
   117   107   108    1
   118   107   106    1
