@<TRIPOS>MOLECULE
tmp/2y6iA00.pdb
 197 193 0 0 0
SMALL
GASTEIGER

@<TRIPOS>ATOM
      1  N         24.2370    3.5180   18.0040 N.3   376  ASN376     -0.1225
      2  CA        24.4370    2.0830   17.8430 C.3   376  ASN376      0.1785
      3  C         23.9300    1.3180   19.0620 C.2   376  ASN376      0.2598
      4  O         23.7300    1.9000   20.1320 O.2   376  ASN376     -0.2718
      5  CB        25.9230    1.7730   17.6040 C.3   376  ASN376      0.1169
      6  CG        26.8310    2.3130   18.7110 C.2   376  ASN376      0.2627
      7  OD1       26.9210    1.7400   19.8000 O.2   376  ASN376     -0.2716
      8  ND2       27.5220    3.4080   18.4220 N.am  376  ASN376     -0.0877
      9  N         23.7280    0.0140   18.8950 N.am  377  GLY377     -0.1942
     10  CA        23.3810   -0.8630   20.0120 C.3   377  GLY377      0.2014
     11  C         24.5710   -1.1750   20.9000 C.2   377  GLY377      0.2639
     12  O         24.4300   -1.3320   22.1110 O.2   377  GLY377     -0.2714
     13  N         25.7440   -1.2770   20.2900 N.am  378  GLY378     -0.1939
     14  CA        26.9820   -1.5250   21.0160 C.3   378  GLY378      0.2014
     15  C         28.1720   -1.1750   20.1520 C.2   378  GLY378      0.2639
     16  O         28.0170   -0.9360   18.9520 O.2   378  GLY378     -0.2714
     17  N         29.3600   -1.1470   20.7480 N.am  379  LEU379     -0.1963
     18  CA        30.5510   -0.7630   20.0010 C.3   379  LEU379      0.1728
     19  C         31.8400   -1.3040   20.6020 C.2   379  LEU379      0.2616
     20  O         32.1520   -1.0290   21.7580 O.2   379  LEU379     -0.2715
     21  CB        30.6250    0.7630   19.8790 C.3   379  LEU379      0.0311
     22  CG        31.6720    1.3940   18.9660 C.3   379  LEU379      0.0022
     23  CD1       31.5070    0.9380   17.5220 C.3   379  LEU379      0.0001
     24  CD2       31.5550    2.8940   19.0670 C.3   379  LEU379      0.0001
     25  N         32.5880   -2.0610   19.7990 N.am  380  TYR380     -0.1974
     26  CA        33.9090   -2.5450   20.1980 C.3   380  TYR380      0.1639
     27  C         35.0350   -1.7270   19.5780 C.2   380  TYR380      0.2290
     28  O         35.1820   -1.6570   18.3560 O.2   380  TYR380     -0.2864
     29  CB        34.0800   -4.0280   19.8640 C.3   380  TYR380      0.0560
     30  CG        35.4070   -4.6270   20.2930 C.ar  380  TYR380     -0.0198
     31  CD1       35.7660   -4.7150   21.6420 C.ar  380  TYR380     -0.0009
     32  CD2       36.2960   -5.1260   19.3500 C.ar  380  TYR380     -0.0009
     33  CE1       36.9880   -5.2770   22.0340 C.ar  380  TYR380      0.0417
     34  CE2       37.5140   -5.6870   19.7300 C.ar  380  TYR380      0.0417
     35  CZ        37.8540   -5.7640   21.0680 C.ar  380  TYR380      0.1957
     36  OH        39.0600   -6.3300   21.4170 O.3   380  TYR380     -0.2866
     37  N         24.3480   -1.1240   26.6450 N.3   390  TYR390     -0.1241
     38  CA        23.3830   -0.7360   27.6660 C.3   390  TYR390      0.1605
     39  C         22.3520   -1.8340   27.8570 C.2   390  TYR390      0.2264
     40  O         22.0200   -2.5470   26.9120 O.2   390  TYR390     -0.2867
     41  CB        22.6840    0.5710   27.2720 C.3   390  TYR390      0.0534
     42  CG        22.0970    0.5470   25.8740 C.ar  390  TYR390     -0.0201
     43  CD1       22.8780    0.8610   24.7640 C.ar  390  TYR390     -0.0009
     44  CD2       20.7660    0.1980   25.6600 C.ar  390  TYR390     -0.0009
     45  CE1       22.3520    0.8370   23.4830 C.ar  390  TYR390      0.0417
     46  CE2       20.2290    0.1670   24.3780 C.ar  390  TYR390      0.0417
     47  CZ        21.0280    0.4870   23.2950 C.ar  390  TYR390      0.1957
     48  OH        20.5030    0.4580   22.0210 O.3   390  TYR390     -0.2866
     49  N         18.5880   -3.1290   28.2380 N.3   392  ARG392     -0.1245
     50  CA        17.4170   -2.6990   27.4770 C.3   392  ARG392      0.1563
     51  C         16.1750   -3.5130   27.8220 C.2   392  ARG392      0.2260
     52  O         16.2650   -4.7010   28.1340 O.2   392  ARG392     -0.2867
     53  CB        17.7040   -2.8270   25.9820 C.3   392  ARG392      0.0307
     54  CG        18.1740   -4.2280   25.5790 C.3   392  ARG392      0.0489
     55  CD        18.6270   -4.3140   24.1340 C.3   392  ARG392      0.2205
     56  NE        19.7500   -3.4330   23.8390 N.pl3 392  ARG392     -0.0865
     57  CZ        20.9850   -3.6140   24.2890 C.cat 392  ARG392      0.5346
     58  NH1       21.2660   -4.6480   25.0680 N.pl3 392  ARG392      0.1354
     59  NH2       21.9380   -2.7490   23.9690 N.pl3 392  ARG392      0.1354
     60  N         12.4010   -1.4290   24.0360 N.3   396  GLN396     -0.1231
     61  CA        13.4530   -0.5510   23.5240 C.3   396  GLN396      0.1698
     62  C         14.1930   -1.1650   22.3290 C.2   396  GLN396      0.2593
     63  O         14.5090   -0.4600   21.3660 O.2   396  GLN396     -0.2718
     64  CB        14.4380   -0.1780   24.6380 C.3   396  GLN396      0.0381
     65  CG        13.9020    0.8530   25.6290 C.3   396  GLN396      0.0905
     66  CD        14.7130    0.9330   26.9140 C.2   396  GLN396      0.2608
     67  OE1       15.2080   -0.0750   27.4190 O.2   396  GLN396     -0.2717
     68  NE2       14.8390    2.1380   27.4560 N.am  396  GLN396     -0.0878
     69  N         14.4660   -2.4710   22.3980 N.am  397  SER397     -0.1938
     70  CA        15.1200   -3.2000   21.3040 C.3   397  SER397      0.2055
     71  C         14.6520   -4.6480   21.2180 C.2   397  SER397      0.2643
     72  O         14.3160   -5.2620   22.2320 O.2   397  SER397     -0.2714
     73  CB        16.6440   -3.1560   21.4540 C.3   397  SER397      0.2130
     74  OG        17.2840   -4.0080   20.5150 O.3   397  SER397     -0.2179
     75  N         14.6500   -5.1870   20.0000 N.am  398  ILE398     -0.1963
     76  CA        14.2970   -6.5940   19.7680 C.3   398  ILE398      0.1727
     77  C         15.3960   -7.5620   20.2210 C.2   398  ILE398      0.2616
     78  O         15.1340   -8.7460   20.4430 O.2   398  ILE398     -0.2715
     79  CB        13.9070   -6.8800   18.2840 C.3   398  ILE398      0.0290
     80  CG1       14.7650   -6.0800   17.2900 C.3   398  ILE398      0.0022
     81  CG2       12.4400   -6.6260   18.0490 C.3   398  ILE398      0.0023
     82  CD1       14.6390   -6.5280   15.8500 C.3   398  ILE398      0.0001
     83  N         16.6160   -7.0470   20.3590 N.am  399  PHE399     -0.1974
     84  CA        17.7590   -7.8450   20.7960 C.3   399  PHE399      0.1639
     85  C         18.0680   -7.6040   22.2700 C.2   399  PHE399      0.2290
     86  O         18.1930   -6.4600   22.6980 O.2   399  PHE399     -0.2864
     87  CB        18.9940   -7.5200   19.9530 C.3   399  PHE399      0.0560
     88  CG        18.7720   -7.6610   18.4740 C.ar  399  PHE399     -0.0200
     89  CD1       18.7880   -8.9150   17.8680 C.ar  399  PHE399     -0.0042
     90  CD2       18.5390   -6.5400   17.6850 C.ar  399  PHE399     -0.0042
     91  CE1       18.5770   -9.0460   16.5000 C.ar  399  PHE399     -0.0003
     92  CE2       18.3270   -6.6650   16.3110 C.ar  399  PHE399     -0.0003
     93  CZ        18.3480   -7.9190   15.7200 C.ar  399  PHE399     -0.0000
     94  N         23.2330   -9.0790   22.1270 N.3   404  LEU404     -0.1245
     95  CA        24.1070   -8.0560   21.5790 C.3   404  LEU404      0.1561
     96  C         25.5150   -8.1740   22.1450 C.2   404  LEU404      0.2260
     97  O         26.4940   -7.8760   21.4580 O.2   404  LEU404     -0.2867
     98  CB        23.5390   -6.6700   21.8330 C.3   404  LEU404      0.0270
     99  CG        24.0360   -5.6190   20.8480 C.3   404  LEU404      0.0019
    100  CD1       23.3370   -5.7570   19.5020 C.3   404  LEU404      0.0001
    101  CD2       23.7870   -4.2590   21.4320 C.3   404  LEU404      0.0001
    102  N         27.0820  -10.7990   19.8770 N.3   407  HIS407     -0.1226
    103  CA        27.4670  -10.2150   18.5930 C.3   407  HIS407      0.1752
    104  C         28.7760   -9.4480   18.7740 C.2   407  HIS407      0.2595
    105  O         29.7310   -9.6590   18.0280 O.2   407  HIS407     -0.2718
    106  CB        26.3510   -9.3010   18.0530 C.3   407  HIS407      0.0759
    107  CG        26.7050   -8.5640   16.7920 C.ar  407  HIS407      0.0818
    108  ND1       25.8630   -8.5050   15.7030 N.ar  407  HIS407     -0.2268
    109  CD2       27.8000   -7.8410   16.4560 C.ar  407  HIS407      0.1154
    110  CE1       26.4250   -7.7830   14.7510 C.ar  407  HIS407      0.1986
    111  NE2       27.6020   -7.3690   15.1830 N.ar  407  HIS407     -0.2212
    112  N         28.8260   -8.5700   19.7620 N.am  408  GLU408     -0.1979
    113  CA        30.0340   -7.7990   20.0130 C.3   408  GLU408      0.1602
    114  C         31.2470   -8.6360   20.4320 C.2   408  GLU408      0.2287
    115  O         32.3620   -8.3690   19.9980 O.2   408  GLU408     -0.2864
    116  CB        29.7600   -6.6880   21.0260 C.3   408  GLU408      0.0415
    117  CG        28.8020   -5.6310   20.5160 C.3   408  GLU408      0.1163
    118  CD        29.2670   -5.0200   19.2150 C.2   408  GLU408      0.3649
    119  OE1       30.4880   -4.8520   19.0460 O.co2 408  GLU408     -0.2457
    120  OE2       28.4180   -4.7040   18.3600 O.co2 408  GLU408     -0.2457
    121  N         33.4600   -9.7880   17.6730 N.3   411  HIS411     -0.1241
    122  CA        34.4200   -8.7930   17.1790 C.3   411  HIS411      0.1621
    123  C         35.7240   -8.7930   17.9630 C.2   411  HIS411      0.2264
    124  O         36.8040   -8.6820   17.3720 O.2   411  HIS411     -0.2867
    125  CB        33.8170   -7.3980   17.2000 C.3   411  HIS411      0.0745
    126  CG        32.7600   -7.1900   16.1690 C.ar  411  HIS411      0.0817
    127  ND1       32.9900   -7.3710   14.8230 N.ar  411  HIS411     -0.2268
    128  CD2       31.4690   -6.8100   16.2840 C.ar  411  HIS411      0.1154
    129  CE1       31.8830   -7.1160   14.1520 C.ar  411  HIS411      0.1986
    130  NE2       30.9450   -6.7720   15.0150 N.ar  411  HIS411     -0.2212
    131  N         42.1570   -3.5630   13.6290 N.3   423  TRP423     -0.1241
    132  CA        40.8710   -3.7630   12.9570 C.3   423  TRP423      0.1605
    133  C         40.5490   -2.5910   12.0450 C.2   423  TRP423      0.2264
    134  O         40.5760   -1.4350   12.4690 O.2   423  TRP423     -0.2867
    135  CB        39.7390   -3.9720   13.9750 C.3   423  TRP423      0.0550
    136  CG        38.3920   -4.2770   13.3540 C.ar  423  TRP423      0.0003
    137  CD1       37.8190   -5.5140   13.1890 C.ar  423  TRP423      0.0946
    138  CD2       37.4530   -3.3270   12.8160 C.ar  423  TRP423      0.0152
    139  NE1       36.5870   -5.3910   12.5840 N.ar  423  TRP423     -0.2442
    140  CE2       36.3370   -4.0640   12.3420 C.ar  423  TRP423      0.0810
    141  CE3       37.4470   -1.9260   12.6860 C.ar  423  TRP423      0.0012
    142  CZ2       35.2250   -3.4450   11.7470 C.ar  423  TRP423      0.0191
    143  CZ3       36.3420   -1.3110   12.0940 C.ar  423  TRP423      0.0001
    144  CH2       35.2450   -2.0740   11.6330 C.ar  423  TRP423      0.0015
    145  N         30.3990   -8.4270   10.1020 N.3   439  GLU439     -0.1245
    146  CA        29.0390   -8.3590   10.6180 C.3   439  GLU439      0.1567
    147  C         28.3020   -9.6990   10.4690 C.2   439  GLU439      0.2260
    148  O         27.5500  -10.1080   11.3530 O.2   439  GLU439     -0.2867
    149  CB        28.2550   -7.2330    9.9410 C.3   439  GLU439      0.0388
    150  CG        28.7550   -5.8430   10.2950 C.3   439  GLU439      0.1160
    151  CD        28.8440   -5.6200   11.7930 C.2   439  GLU439      0.3649
    152  OE1       29.5860   -6.3670   12.4640 O.co2 439  GLU439     -0.2457
    153  OE2       28.1710   -4.6990   12.3010 O.co2 439  GLU439     -0.2457
    154  N         26.7790  -11.8940   13.7330 N.3   443  GLU443     -0.1245
    155  CA        25.3910  -12.2790   13.9730 C.3   443  GLU443      0.1567
    156  C         25.2800  -13.8010   14.0730 C.2   443  GLU443      0.2260
    157  O         24.5140  -14.3190   14.8890 O.2   443  GLU443     -0.2867
    158  CB        24.4760  -11.7630   12.8610 C.3   443  GLU443      0.0388
    159  CG        24.4380  -10.2460   12.6950 C.3   443  GLU443      0.1160
    160  CD        23.3890   -9.5540   13.5650 C.2   443  GLU443      0.3649
    161  OE1       23.2390   -9.9190   14.7540 O.co2 443  GLU443     -0.2457
    162  OE2       22.7240   -8.6220   13.0540 O.co2 443  GLU443     -0.2457
    163  N         19.3240  -17.7830   14.7460 N.3   457  ARG457     -0.1245
    164  CA        18.6340  -16.9230   15.7020 C.3   457  ARG457      0.1563
    165  C         17.2590  -16.5390   15.1640 C.2   457  ARG457      0.2260
    166  O         17.1380  -16.0640   14.0310 O.2   457  ARG457     -0.2867
    167  CB        19.4570  -15.6650   15.9850 C.3   457  ARG457      0.0307
    168  CG        20.8490  -15.9350   16.5320 C.3   457  ARG457      0.0489
    169  CD        21.2930  -14.8070   17.4480 C.3   457  ARG457      0.2205
    170  NE        21.6750  -13.6100   16.7020 N.pl3 457  ARG457     -0.0865
    171  CZ        21.4190  -12.3660   17.0960 C.cat 457  ARG457      0.5346
    172  NH1       20.7570  -12.1380   18.2240 N.pl3 457  ARG457      0.1354
    173  NH2       21.8110  -11.3430   16.3500 N.pl3 457  ARG457      0.1354
    174  N         13.8460  -11.3190   10.3480 N.3   463  TYR463     -0.1241
    175  CA        14.1740  -10.3200    9.3310 C.3   463  TYR463      0.1605
    176  C         14.0910  -10.8640    7.9090 C.2   463  TYR463      0.2264
    177  O         13.6990  -10.1460    6.9850 O.2   463  TYR463     -0.2867
    178  CB        15.5750   -9.7570    9.5610 C.3   463  TYR463      0.0534
    179  CG        15.6390   -8.6080   10.5350 C.ar  463  TYR463     -0.0201
    180  CD1       15.0090   -7.3920   10.2570 C.ar  463  TYR463     -0.0009
    181  CD2       16.3480   -8.7270   11.7280 C.ar  463  TYR463     -0.0009
    182  CE1       15.0730   -6.3320   11.1520 C.ar  463  TYR463      0.0417
    183  CE2       16.4210   -7.6740   12.6270 C.ar  463  TYR463      0.0417
    184  CZ        15.7840   -6.4830   12.3330 C.ar  463  TYR463      0.1957
    185  OH        15.8610   -5.4460   13.2290 O.3   463  TYR463     -0.2866
    186  N         23.4810   -7.2090    7.0650 N.3   488  TYR488     -0.1241
    187  CA        23.8330   -8.0370    8.2180 C.3   488  TYR488      0.1605
    188  C         23.1410   -9.4020    8.1890 C.2   488  TYR488      0.2264
    189  O         23.7220  -10.4050    8.6080 O.2   488  TYR488     -0.2867
    190  CB        23.5110   -7.3040    9.5260 C.3   488  TYR488      0.0534
    191  CG        23.9710   -5.8580    9.5340 C.ar  488  TYR488     -0.0201
    192  CD1       25.2010   -5.5040    9.0100 C.ar  488  TYR488     -0.0009
    193  CD2       23.1360   -4.8990   10.0700 C.ar  488  TYR488     -0.0009
    194  CE1       25.5990   -4.1780    9.0220 C.ar  488  TYR488      0.0417
    195  CE2       23.5250   -3.5750   10.0820 C.ar  488  TYR488      0.0417
    196  CZ        24.7540   -3.2250    9.5570 C.ar  488  TYR488      0.1957
    197  OH        25.1340   -1.8960    9.5720 O.3   488  TYR488     -0.2866
@<TRIPOS>BOND
     1   177   176    2
     2   186   187    1
     3   176   175    1
     4   188   187    1
     5   188   189    2
     6   187   190    1
     7   192   194   ar
     8   192   191   ar
     9   194   196   ar
    10   175   178    1
    11   175   174    1
    12   190   191    1
    13   191   193   ar
    14   196   197    1
    15   196   195   ar
    16   178   179    1
    17   149   150    1
    18   149   146    1
    19   193   195   ar
    20   145   146    1
    21   180   179   ar
    22   180   182   ar
    23   150   151    1
    24   147   146    1
    25   147   148    2
    26   179   181   ar
    27   182   184   ar
    28   144   142   ar
    29   144   143   ar
    30   181   183   ar
    31   142   140   ar
    32   151   153   ar
    33   151   152   ar
    34   133   134    2
    35   133   132    1
    36   143   141   ar
    37   184   183   ar
    38   184   185    1
    39   140   139   ar
    40   140   138   ar
    41   139   137   ar
    42   141   138   ar
    43   159   158    1
    44   159   160    1
    45   138   136   ar
    46   158   155    1
    47   132   131    1
    48   132   135    1
    49   162   160   ar
    50   137   136   ar
    51   136   135    1
    52   160   161   ar
    53   154   155    1
    54   155   156    1
    55   166   165    2
    56   156   157    2
    57   129   127   ar
    58   129   130   ar
    59   163   164    1
    60   110   111   ar
    61   110   108   ar
    62   127   126   ar
    63   130   128   ar
    64   165   164    1
    65   111   109   ar
    66   164   167    1
    67   108   107   ar
    68    93    92   ar
    69    93    91   ar
    70    82    80    1
    71   167   168    1
    72   126   128   ar
    73   126   125    1
    74    92    90   ar
    75   173   171    1
    76   109   107   ar
    77    91    89   ar
    78   168   169    1
    79   170   171    2
    80   170   169    1
    81   107   106    1
    82   171   172    1
    83   122   125    1
    84   122   121    1
    85   122   123    1
    86    80    79    1
    87   124   123    2
    88    23    22    1
    89     5     2    1
    90     5     6    1
    91    90    88   ar
    92     2     1    1
    93     2     3    1
    94    89    88   ar
    95   105   104    2
    96    81    79    1
    97   106   103    1
    98    79    76    1
    99    28    27    2
   100   120   118   ar
   101     8     6   am
   102    88    87    1
   103   103   104    1
   104   103   102    1
   105     6     7    2
   106   104   112   am
   107     9     3   am
   108     9    10    1
   109    16    15    2
   110    22    24    1
   111    22    21    1
   112   119   118   ar
   113     3     4    2
   114   118   117    1
   115    32    34   ar
   116    32    30   ar
   117   100    99    1
   118    27    26    1
   119    34    35   ar
   120   112   113    1
   121    76    75    1
   122    76    77    1
   123    25    26    1
   124    25    19   am
   125    29    26    1
   126    29    30    1
   127    21    18    1
   128    87    84    1
   129   115   114    2
   130    75    71   am
   131    18    19    1
   132    18    17    1
   133    10    11    1
   134   113   114    1
   135   113   116    1
   136    15    17   am
   137    15    14    1
   138    77    83   am
   139    77    78    2
   140    13    11   am
   141    13    14    1
   142    30    31   ar
   143    83    84    1
   144    74    73    1
   145   117   116    1
   146    19    20    2
   147    84    85    1
   148    99   101    1
   149    99    98    1
   150    11    12    2
   151    35    36    1
   152    35    33   ar
   153    71    70    1
   154    71    72    2
   155    70    73    1
   156    70    69    1
   157    63    62    2
   158    97    96    2
   159    95    98    1
   160    95    94    1
   161    95    96    1
   162    31    33   ar
   163    48    47    1
   164    85    86    2
   165    62    69   am
   166    62    61    1
   167    47    45   ar
   168    47    46   ar
   169    45    43   ar
   170    61    60    1
   171    61    64    1
   172    56    55    1
   173    56    57    2
   174    59    57    1
   175    55    54    1
   176    57    58    1
   177    46    44   ar
   178    64    65    1
   179    43    42   ar
   180    54    53    1
   181    65    66    1
   182    44    42   ar
   183    42    41    1
   184    53    50    1
   185    37    38    1
   186    40    39    2
   187    66    67    2
   188    66    68   am
   189    41    38    1
   190    50    51    1
   191    50    49    1
   192    38    39    1
   193    51    52    2
