@<TRIPOS>MOLECULE
tmp/2y6kA00.pdb
 101 96 0 0 0
SMALL
GASTEIGER

@<TRIPOS>ATOM
      1  N          3.6800    3.1330  -16.4780 N.3    68  PHE68      -0.1241
      2  CA         3.4780    3.2110  -15.0510 C.3    68  PHE68       0.1605
      3  C          2.0160    3.0160  -14.6790 C.2    68  PHE68       0.2264
      4  O          1.6950    3.0390  -13.4760 O.2    68  PHE68      -0.2867
      5  CB         4.0310    4.4950  -14.4740 C.3    68  PHE68       0.0534
      6  CG         3.5230    5.7920  -15.0580 C.ar   68  PHE68      -0.0203
      7  CD1        2.2580    6.2800  -14.7660 C.ar   68  PHE68      -0.0042
      8  CD2        4.3680    6.5360  -15.8840 C.ar   68  PHE68      -0.0042
      9  CE1        1.8420    7.4890  -15.2780 C.ar   68  PHE68      -0.0003
     10  CE2        3.9440    7.7490  -16.4040 C.ar   68  PHE68      -0.0003
     11  CZ         2.6890    8.2290  -16.0770 C.ar   68  PHE68      -0.0000
     12  N          1.9690   -0.4160  -11.7100 N.3    71  GLN71      -0.1245
     13  CA         3.2600   -0.2080  -11.0490 C.3    71  GLN71       0.1566
     14  C          3.2230   -0.7080   -9.6210 C.2    71  GLN71       0.2260
     15  O          2.1620   -0.7670   -8.9770 O.2    71  GLN71      -0.2867
     16  CB         3.6490    1.2500  -11.1040 C.3    71  GLN71       0.0367
     17  CG         2.7220    2.1990  -10.4030 C.3    71  GLN71       0.0905
     18  CD         3.0980    3.6650  -10.5220 C.2    71  GLN71       0.2608
     19  OE1        4.3690    3.9370  -10.4800 O.2    71  GLN71      -0.2717
     20  NE2        2.2720    4.5730  -10.6480 N.am   71  GLN71      -0.0878
     21  N         12.7610    1.8500  -11.5780 N.3   103  THR103     -0.1218
     22  CA        13.1100    3.2450  -11.4560 C.3   103  THR103      0.1862
     23  C         13.1720    3.7220  -10.0170 C.2   103  THR103      0.2287
     24  O         12.6820    3.0700   -9.1170 O.2   103  THR103     -0.2866
     25  CB        12.0970    4.1720  -12.1890 C.3   103  THR103      0.1770
     26  OG1       10.9520    4.4180  -11.3230 O.3   103  THR103     -0.2211
     27  CG2       11.5730    3.6020  -13.4800 C.3   103  THR103      0.0375
     28  N          8.2250   13.3280   -8.3370 N.3   109  LEU109     -0.1231
     29  CA         8.1940   12.4810   -9.5220 C.3   109  LEU109      0.1693
     30  C          9.3950   12.6340  -10.4390 C.2   109  LEU109      0.2592
     31  O          9.4350   12.0790  -11.5520 O.2   109  LEU109     -0.2718
     32  CB         6.8960   12.6300  -10.3120 C.3   109  LEU109      0.0284
     33  CG         5.6360   12.5180   -9.4170 C.3   109  LEU109      0.0019
     34  CD1        4.3540   12.6970  -10.2220 C.3   109  LEU109      0.0001
     35  CD2        5.6340   11.2190   -8.6420 C.3   109  LEU109      0.0001
     36  N         10.3900   13.3540   -9.9470 N.am  110  ASP110     -0.1960
     37  CA        11.6730   13.4760  -10.6090 C.3   110  ASP110      0.1840
     38  C         12.4290   12.1410  -10.5090 C.2   110  ASP110      0.2621
     39  O         12.6570   11.6860   -9.3890 O.2   110  ASP110     -0.2715
     40  CB        12.5390   14.5940  -10.0300 C.3   110  ASP110      0.1450
     41  CG        12.1020   16.0070   -9.8250 C.2   110  ASP110      0.3671
     42  OD1       11.4360   16.5610  -10.7330 O.co2 110  ASP110     -0.2456
     43  OD2       12.4240   16.7010   -8.8010 O.co2 110  ASP110     -0.2456
     44  N         12.8760   11.5530  -11.6230 N.am  111  GLU111     -0.1977
     45  CA        13.6490   10.3090  -11.5230 C.3   111  GLU111      0.1602
     46  C         15.1400   10.5630  -11.3660 C.2   111  GLU111      0.2287
     47  O         15.7310   11.3460  -12.1080 O.2   111  GLU111     -0.2864
     48  CB        13.4460    9.5100  -12.7890 C.3   111  GLU111      0.0415
     49  CG        13.1170    8.0860  -12.7160 C.3   111  GLU111      0.1163
     50  CD        12.6660    7.5370  -14.0360 C.2   111  GLU111      0.3649
     51  OE1       13.4700    7.3780  -14.9500 O.co2 111  GLU111     -0.2457
     52  OE2       11.4740    7.2120  -14.2060 O.co2 111  GLU111     -0.2457
     53  N         17.1810    4.8700  -13.6900 N.3   114  ARG114     -0.1245
     54  CA        16.3890    3.7090  -13.9700 C.3   114  ARG114      0.1563
     55  C         17.2180    2.6800  -14.7710 C.2   114  ARG114      0.2260
     56  O         18.2260    2.9910  -15.3910 O.2   114  ARG114     -0.2867
     57  CB        15.1280    4.0050  -14.7800 C.3   114  ARG114      0.0307
     58  CG        15.3550    4.4540  -16.1980 C.3   114  ARG114      0.0489
     59  CD        14.1570    4.3290  -17.0700 C.3   114  ARG114      0.2205
     60  NE        13.0340    5.1180  -16.6050 N.pl3 114  ARG114     -0.0865
     61  CZ        11.7980    5.0000  -17.0300 C.cat 114  ARG114      0.5346
     62  NH1       11.4240    4.1370  -17.9330 N.pl3 114  ARG114      0.1354
     63  NH2       10.7920    5.7270  -16.5690 N.pl3 114  ARG114      0.1354
     64  N         15.9840    0.6790  -17.9170 N.3   116  HIS116     -0.1241
     65  CA        14.9750    0.9160  -18.9240 C.3   116  HIS116      0.1621
     66  C         14.7430   -0.2770  -19.8060 C.2   116  HIS116      0.2264
     67  O         15.6470   -0.8950  -20.3400 O.2   116  HIS116     -0.2867
     68  CB        15.5040    2.0420  -19.8230 C.3   116  HIS116      0.0745
     69  CG        14.6190    2.5590  -20.8560 C.ar  116  HIS116      0.0817
     70  ND1       13.5130    3.1900  -20.4580 N.ar  116  HIS116     -0.2268
     71  CD2       14.5220    2.6650  -22.1910 C.ar  116  HIS116      0.1154
     72  CE1       12.7090    3.6800  -21.4080 C.ar  116  HIS116      0.1986
     73  NE2       13.3730    3.3430  -22.4900 N.ar  116  HIS116     -0.2212
     74  N         11.1380    7.2470   -3.4350 N.3   141  ARG141     -0.1245
     75  CA        10.2850    6.1590   -3.8540 C.3   141  ARG141      0.1563
     76  C         10.9370    5.4050   -5.0040 C.2   141  ARG141      0.2260
     77  O         11.7620    5.9370   -5.7270 O.2   141  ARG141     -0.2867
     78  CB         8.9120    6.6770   -4.1590 C.3   141  ARG141      0.0307
     79  CG         8.7090    7.7060   -5.1680 C.3   141  ARG141      0.0489
     80  CD         7.4300    8.5430   -5.0880 C.3   141  ARG141      0.2205
     81  NE         6.2250    7.7610   -5.3660 N.pl3 141  ARG141     -0.0865
     82  CZ         5.8240    7.4220   -6.5870 C.cat 141  ARG141      0.5346
     83  NH1        6.5310    7.8020   -7.6500 N.pl3 141  ARG141      0.1354
     84  NH2        4.7180    6.7030   -6.7820 N.pl3 141  ARG141      0.1354
     85  N          9.4950    3.3410   -8.0610 N.3   143  PRO143     -0.2116
     86  CA         8.4760    2.7620   -8.9420 C.3   143  PRO143      0.1372
     87  C          9.0240    1.7310   -9.9290 C.2   143  PRO143      0.2244
     88  O          9.9210    1.9860  -10.7120 O.2   143  PRO143     -0.2868
     89  CB         7.9150    3.9750   -9.7040 C.3   143  PRO143      0.0268
     90  CG         8.3550    5.1570   -8.8850 C.3   143  PRO143      0.0207
     91  CD         9.7110    4.7690   -8.3550 C.3   143  PRO143      0.0892
     92  N          7.7440   -0.3430  -13.1960 N.3   145  HIS145     -0.1241
     93  CA         6.6720   -0.1950  -14.2040 C.3   145  HIS145      0.1621
     94  C          6.4650   -1.5050  -14.9470 C.2   145  HIS145      0.2264
     95  O          7.4290   -2.0360  -15.5270 O.2   145  HIS145     -0.2867
     96  CB         7.0140    0.9130  -15.1900 C.3   145  HIS145      0.0745
     97  CG         7.1700    2.2490  -14.5360 C.ar  145  HIS145      0.0817
     98  ND1        7.7320    3.3040  -15.2090 N.ar  145  HIS145     -0.2268
     99  CD2        6.8420    2.6950  -13.2940 C.ar  145  HIS145      0.1154
    100  CE1        7.7360    4.3500  -14.3980 C.ar  145  HIS145      0.1986
    101  NE2        7.2090    4.0130  -13.2370 N.ar  145  HIS145     -0.2212
@<TRIPOS>BOND
     1    73    71   ar
     2    73    72   ar
     3    71    69   ar
     4    72    70   ar
     5    69    70   ar
     6    69    68    1
     7    67    66    2
     8    68    65    1
     9    66    65    1
    10    65    64    1
    11    62    61    1
    12    59    60    1
    13    59    58    1
    14    61    60    2
    15    61    63    1
    16     1     2    1
    17    10    11   ar
    18    10     8   ar
    19    58    57    1
    20    11     9   ar
    21     8     6   ar
    22    95    94    2
    23    56    55    2
    24     9     7   ar
    25    98    97   ar
    26    98   100   ar
    27    96    97    1
    28    96    93    1
    29     6     7   ar
    30     6     5    1
    31     2     3    1
    32     2     5    1
    33    51    50   ar
    34    94    93    1
    35    57    54    1
    36    55    54    1
    37     3     4    2
    38    97    99   ar
    39   100   101   ar
    40    52    50   ar
    41    93    92    1
    42    50    49    1
    43    54    53    1
    44    27    25    1
    45    99   101   ar
    46    48    49    1
    47    48    45    1
    48    25    22    1
    49    25    26    1
    50    47    46    2
    51    12    13    1
    52    44    45    1
    53    44    38   am
    54    21    22    1
    55    31    30    2
    56    45    46    1
    57    22    23    1
    58    16    13    1
    59    16    17    1
    60    13    14    1
    61    42    41   ar
    62    88    87    2
    63    20    18   am
    64    37    38    1
    65    37    40    1
    66    37    36    1
    67    18    19    2
    68    18    17    1
    69    38    39    2
    70    30    36   am
    71    30    29    1
    72    32    29    1
    73    32    33    1
    74    34    33    1
    75    40    41    1
    76    23    24    2
    77    87    86    1
    78    41    43   ar
    79    89    86    1
    80    89    90    1
    81    14    15    2
    82    29    28    1
    83    33    35    1
    84    86    85    1
    85    90    91    1
    86    91    85    1
    87    83    82    1
    88    84    82    1
    89    82    81    2
    90    77    76    2
    91    81    80    1
    92    79    80    1
    93    79    78    1
    94    76    75    1
    95    78    75    1
    96    75    74    1
