@<TRIPOS>MOLECULE
tmp/2y6lA00.pdb
 109 103 0 0 0
SMALL
GASTEIGER

@<TRIPOS>ATOM
      1  N         -0.1820    0.1280   -7.6110 N.3    31  ASN31      -0.1240
      2  CA        -1.0720    1.0310   -8.3290 C.3    31  ASN31       0.1653
      3  C         -1.4610    0.4420   -9.6790 C.2    31  ASN31       0.2266
      4  O         -0.6690   -0.0910  -10.4240 O.2    31  ASN31      -0.2867
      5  CB        -0.3520    2.3680   -8.4410 C.3    31  ASN31       0.1155
      6  CG        -1.1860    3.6030   -8.6400 C.2    31  ASN31       0.2627
      7  OD1       -2.0680    3.5650   -9.4740 O.2    31  ASN31      -0.2716
      8  ND2       -0.9410    4.6750   -7.8990 N.am   31  ASN31      -0.0877
      9  N          3.4490    2.9400  -16.5910 N.3    69  PHE69      -0.1241
     10  CA         3.2540    3.1930  -15.1570 C.3    69  PHE69       0.1605
     11  C          1.8190    2.9720  -14.7080 C.2    69  PHE69       0.2264
     12  O          1.5260    3.0870  -13.5330 O.2    69  PHE69      -0.2867
     13  CB         3.7360    4.5910  -14.8250 C.3    69  PHE69       0.0534
     14  CG         3.3780    5.6870  -15.8080 C.ar   69  PHE69      -0.0203
     15  CD1        2.0840    6.1610  -15.9040 C.ar   69  PHE69      -0.0042
     16  CD2        4.3440    6.2140  -16.6350 C.ar   69  PHE69      -0.0042
     17  CE1        1.7660    7.1980  -16.7710 C.ar   69  PHE69      -0.0003
     18  CE2        4.0420    7.2440  -17.5240 C.ar   69  PHE69      -0.0003
     19  CZ         2.7530    7.7060  -17.6100 C.ar   69  PHE69      -0.0000
     20  N          1.9950   -0.5380  -11.4990 N.3    72  GLN72      -0.1245
     21  CA         3.3220   -0.3360  -10.8930 C.3    72  GLN72       0.1566
     22  C          3.3080   -0.8260   -9.4520 C.2    72  GLN72       0.2260
     23  O          2.2630   -0.8370   -8.7990 O.2    72  GLN72      -0.2867
     24  CB         3.7300    1.1290  -11.0150 C.3    72  GLN72       0.0367
     25  CG         2.7700    2.0730  -10.3200 C.3    72  GLN72       0.0905
     26  CD         3.2230    3.5190  -10.3510 C.2    72  GLN72       0.2608
     27  OE1        4.4190    3.7960  -10.4060 O.2    72  GLN72      -0.2717
     28  NE2        2.2820    4.4420  -10.3190 N.am   72  GLN72      -0.0878
     29  N         12.7000    2.0140  -11.4570 N.3   104  THR104     -0.1218
     30  CA        12.9780    3.4200  -11.3350 C.3   104  THR104      0.1862
     31  C         13.0670    3.8590   -9.8770 C.2   104  THR104      0.2287
     32  O         12.6180    3.1380   -8.9730 O.2   104  THR104     -0.2866
     33  CB        11.9420    4.3170  -12.0590 C.3   104  THR104      0.1770
     34  OG1       10.8430    4.5460  -11.1820 O.3   104  THR104     -0.2211
     35  CG2       11.4420    3.6660  -13.3530 C.3   104  THR104      0.0375
     36  N          7.7710   13.2920   -7.7250 N.3   110  LEU110     -0.1231
     37  CA         7.7660   12.4710   -8.9400 C.3   110  LEU110      0.1693
     38  C          8.9170   12.7620   -9.8600 C.2   110  LEU110      0.2592
     39  O          9.0110   12.2600  -10.9860 O.2   110  LEU110     -0.2718
     40  CB         6.4440   12.5480   -9.6890 C.3   110  LEU110      0.0284
     41  CG         5.2260   12.2540   -8.8050 C.3   110  LEU110      0.0019
     42  CD1        3.9600   12.2050   -9.6570 C.3   110  LEU110      0.0001
     43  CD2        5.3980   10.9760   -8.0280 C.3   110  LEU110      0.0001
     44  N          9.8800   13.5380   -9.3600 N.am  111  ASP111     -0.1960
     45  CA        11.1020   13.6520  -10.1330 C.3   111  ASP111      0.1840
     46  C         11.9000   12.3570  -10.0570 C.2   111  ASP111      0.2621
     47  O         12.1700   11.7930   -8.9930 O.2   111  ASP111     -0.2715
     48  CB        11.9560   14.7710   -9.5670 C.3   111  ASP111      0.1450
     49  CG        11.3780   16.1400   -9.4000 C.2   111  ASP111      0.3671
     50  OD1       10.7870   16.6120  -10.4110 O.co2 111  ASP111     -0.2456
     51  OD2       11.5480   16.7230   -8.2950 O.co2 111  ASP111     -0.2456
     52  N         12.3280   11.8820  -11.2100 N.am  112  GLU112     -0.1977
     53  CA        13.0270   10.6000  -11.3350 C.3   112  GLU112      0.1602
     54  C         14.5340   10.8110  -11.2360 C.2   112  GLU112      0.2287
     55  O         15.1370   11.5640  -11.9960 O.2   112  GLU112     -0.2864
     56  CB        12.5890    9.9450  -12.6310 C.3   112  GLU112      0.0415
     57  CG        13.0960    8.5380  -12.7730 C.3   112  GLU112      0.1163
     58  CD        12.5350    7.8210  -13.9950 C.2   112  GLU112      0.3649
     59  OE1       11.3360    7.4550  -14.0350 O.co2 112  GLU112     -0.2457
     60  OE2       13.3320    7.6070  -14.9440 O.co2 112  GLU112     -0.2457
     61  N         16.9180    5.1840  -13.5790 N.3   115  ARG115     -0.1245
     62  CA        16.2060    3.9630  -13.8320 C.3   115  ARG115      0.1563
     63  C         17.0590    2.9910  -14.6430 C.2   115  ARG115      0.2260
     64  O         18.0190    3.3560  -15.2790 O.2   115  ARG115     -0.2867
     65  CB        14.9090    4.1900  -14.6350 C.3   115  ARG115      0.0307
     66  CG        15.1180    4.7190  -16.0390 C.3   115  ARG115      0.0489
     67  CD        13.9040    4.5790  -16.9490 C.3   115  ARG115      0.2205
     68  NE        12.7490    5.3380  -16.4780 N.pl3 115  ARG115     -0.0865
     69  CZ        11.4980    5.1890  -16.8260 C.cat 115  ARG115      0.5346
     70  NH1       11.0710    4.2970  -17.6860 N.pl3 115  ARG115      0.1354
     71  NH2       10.5480    5.9220  -16.3220 N.pl3 115  ARG115      0.1354
     72  N         15.8670    0.9960  -17.8360 N.3   117  HIS117     -0.1241
     73  CA        14.8060    1.2090  -18.7920 C.3   117  HIS117      0.1621
     74  C         14.6530   -0.0060  -19.6630 C.2   117  HIS117      0.2264
     75  O         15.5310   -0.5570  -20.2730 O.2   117  HIS117     -0.2867
     76  CB        15.2510    2.3560  -19.6810 C.3   117  HIS117      0.0745
     77  CG        14.3100    2.8760  -20.6580 C.ar  117  HIS117      0.0817
     78  ND1       13.1900    3.4610  -20.2360 N.ar  117  HIS117     -0.2268
     79  CD2       14.2310    3.0150  -21.9920 C.ar  117  HIS117      0.1154
     80  CE1       12.4070    3.9360  -21.1890 C.ar  117  HIS117      0.1986
     81  NE2       13.0470    3.6490  -22.3210 N.ar  117  HIS117     -0.2212
     82  N         11.0880    7.1350   -3.2130 N.3   142  ARG142     -0.1245
     83  CA        10.2720    6.0310   -3.6360 C.3   142  ARG142      0.1563
     84  C         10.9130    5.3480   -4.8170 C.2   142  ARG142      0.2260
     85  O         11.7260    5.9500   -5.5440 O.2   142  ARG142     -0.2867
     86  CB         8.8650    6.4860   -3.9370 C.3   142  ARG142      0.0307
     87  CG         8.6830    7.5710   -4.9150 C.3   142  ARG142      0.0489
     88  CD         7.3830    8.3320   -4.7880 C.3   142  ARG142      0.2205
     89  NE         6.1460    7.6000   -5.0290 N.pl3 142  ARG142     -0.0865
     90  CZ         5.6600    7.2530   -6.1960 C.cat 142  ARG142      0.5346
     91  NH1        6.3200    7.5650   -7.3180 N.pl3 142  ARG142      0.1354
     92  NH2        4.5030    6.5750   -6.2930 N.pl3 142  ARG142      0.1354
     93  N          9.4960    3.3290   -7.8970 N.3   144  PRO144     -0.2116
     94  CA         8.4870    2.7390   -8.7960 C.3   144  PRO144      0.1372
     95  C          9.0180    1.7460   -9.8160 C.2   144  PRO144      0.2244
     96  O          9.9000    2.0770  -10.6120 O.2   144  PRO144     -0.2868
     97  CB         7.8810    3.9610   -9.5090 C.3   144  PRO144      0.0268
     98  CG         8.2740    5.1400   -8.6940 C.3   144  PRO144      0.0207
     99  CD         9.6510    4.7750   -8.1380 C.3   144  PRO144      0.0892
    100  N          7.6770   -0.2740  -13.0590 N.3   146  HIS146     -0.1241
    101  CA         6.6170   -0.1940  -14.0520 C.3   146  HIS146      0.1621
    102  C          6.4710   -1.5180  -14.8180 C.2   146  HIS146      0.2264
    103  O          7.4620   -1.9980  -15.3650 O.2   146  HIS146     -0.2867
    104  CB         6.9030    0.9140  -15.0710 C.3   146  HIS146      0.0745
    105  CG         7.0180    2.2680  -14.4210 C.ar  146  HIS146      0.0817
    106  ND1        7.5060    3.3330  -15.1500 N.ar  146  HIS146     -0.2268
    107  CD2        6.7340    2.7160  -13.1750 C.ar  146  HIS146      0.1154
    108  CE1        7.5210    4.4020  -14.3590 C.ar  146  HIS146      0.1986
    109  NE2        7.0460    4.0630  -13.1530 N.ar  146  HIS146     -0.2212
@<TRIPOS>BOND
     1    81    79   ar
     2    81    80   ar
     3    79    77   ar
     4    80    78   ar
     5    77    78   ar
     6    77    76    1
     7    75    74    2
     8    76    73    1
     9    74    73    1
    10    73    72    1
    11    70    69    1
    12    19    18   ar
    13    19    17   ar
    14    18    16   ar
    15    67    68    1
    16    67    66    1
    17    69    68    2
    18    69    71    1
    19    17    15   ar
    20    16    14   ar
    21     9    10    1
    22    66    65    1
    23    15    14   ar
    24    14    13    1
    25   103   102    2
    26    64    63    2
    27    10    13    1
    28    10    11    1
    29   106   105   ar
    30   106   108   ar
    31   104   105    1
    32   104   101    1
    33    60    58   ar
    34   102   101    1
    35    11    12    2
    36    63    62    1
    37    65    62    1
    38   105   107   ar
    39   108   109   ar
    40   101   100    1
    41    59    58   ar
    42    58    57    1
    43    62    61    1
    44    35    33    1
    45   107   109   ar
    46    57    56    1
    47    56    53    1
    48    33    30    1
    49    33    34    1
    50    55    54    2
    51    20    21    1
    52    29    30    1
    53    53    54    1
    54    53    52    1
    55    30    31    1
    56    52    46   am
    57    24    21    1
    58    24    25    1
    59    39    38    2
    60    21    22    1
    61    96    95    2
    62     4     3    2
    63    50    49   ar
    64    27    26    2
    65    26    25    1
    66    26    28   am
    67    45    46    1
    68    45    48    1
    69    45    44    1
    70    46    47    2
    71    31    32    2
    72    38    44   am
    73    38    37    1
    74    95    94    1
    75    40    37    1
    76    40    41    1
    77     3     2    1
    78    42    41    1
    79    48    49    1
    80    97    94    1
    81    97    98    1
    82     7     6    2
    83    22    23    2
    84    49    51   ar
    85    37    36    1
    86    41    43    1
    87    94    93    1
    88    98    99    1
    89     6     5    1
    90     6     8   am
    91     5     2    1
    92     2     1    1
    93    99    93    1
    94    91    90    1
    95    92    90    1
    96    90    89    2
    97    85    84    2
    98    89    88    1
    99    87    88    1
   100    87    86    1
   101    84    83    1
   102    86    83    1
   103    83    82    1
