@<TRIPOS>MOLECULE
tmp/2y6oA00.pdb
 188 178 0 0 0
SMALL
GASTEIGER

@<TRIPOS>ATOM
      1  N         21.5860   63.0600   39.3590 N.3    17  LYS17      -0.1245
      2  CA        20.4630   62.1650   39.1060 C.3    17  LYS17       0.1561
      3  C         20.8760   60.9220   38.3310 C.2    17  LYS17       0.2260
      4  O         21.9120   60.9070   37.6680 O.2    17  LYS17      -0.2867
      5  CB        19.3480   62.8950   38.3580 C.3    17  LYS17       0.0271
      6  CG        19.7340   63.3670   36.9700 C.3    17  LYS17       0.0035
      7  CD        18.5550   64.0280   36.2770 C.3    17  LYS17       0.0206
      8  CE        18.9280   64.5210   34.8890 C.3    17  LYS17       0.1093
      9  NZ        17.7550   65.1160   34.1900 N.3    17  LYS17      -0.1314
     10  N         20.5160   58.5510   35.2130 N.3    19  ILE19      -0.1231
     11  CA        20.1200   58.8040   33.8270 C.3    19  ILE19       0.1692
     12  C         20.0230   57.5390   32.9860 C.2    19  ILE19       0.2592
     13  O         19.5450   57.5720   31.8470 O.2    19  ILE19      -0.2718
     14  CB        21.0550   59.8250   33.1250 C.3    19  ILE19       0.0266
     15  CG1       22.4970   59.3060   33.0650 C.3    19  ILE19       0.0019
     16  CG2       20.9950   61.1740   33.8250 C.3    19  ILE19       0.0020
     17  CD1       23.4720   60.2900   32.4000 C.3    19  ILE19       0.0001
     18  N         20.4760   56.4200   33.5450 N.am   20  GLY20      -0.1957
     19  CA        20.3900   55.1440   32.8560 C.3    20  GLY20       0.1869
     20  C         20.6010   53.9800   33.8020 C.2    20  GLY20       0.2309
     21  O         21.3160   54.1050   34.7950 O.2    20  GLY20      -0.2863
     22  N         24.0950   54.4830   35.5070 N.3    27  VAL27      -0.1245
     23  CA        24.8420   55.6840   35.1450 C.3    27  VAL27       0.1561
     24  C         24.0950   56.9120   35.6300 C.2    27  VAL27       0.2260
     25  O         22.8730   56.9990   35.4950 O.2    27  VAL27      -0.2867
     26  CB        25.0570   55.7850   33.6250 C.3    27  VAL27       0.0252
     27  CG1       25.7360   57.1040   33.2750 C.3    27  VAL27       0.0019
     28  CG2       25.8750   54.6060   33.1270 C.3    27  VAL27       0.0019
     29  N         29.5410   62.1050   33.6360 N.3    43  ALA43      -0.1231
     30  CA        28.7600   60.8870   33.8080 C.3    43  ALA43       0.1694
     31  C         29.4700   59.9910   34.8120 C.2    43  ALA43       0.2592
     32  O         30.7090   59.9170   34.8210 O.2    43  ALA43      -0.2718
     33  CB        28.6010   60.1690   32.4860 C.3    43  ALA43       0.0304
     34  N         28.6880   59.3150   35.6500 N.am   44  ILE44      -0.1966
     35  CA        29.2500   58.4820   36.7110 C.3    44  ILE44       0.1727
     36  C         28.6510   57.0840   36.6210 C.2    44  ILE44       0.2616
     37  O         27.4420   56.9280   36.7500 O.2    44  ILE44      -0.2715
     38  CB        28.9520   59.0870   38.0950 C.3    44  ILE44       0.0290
     39  CG1       29.4880   60.5250   38.1610 C.3    44  ILE44       0.0022
     40  CG2       29.5510   58.2110   39.2040 C.3    44  ILE44       0.0023
     41  CD1       28.8120   61.3800   39.2040 C.3    44  ILE44       0.0001
     42  N         29.4890   56.0770   36.4010 N.am   45  LYS45      -0.1977
     43  CA        29.0010   54.6950   36.3220 C.3    45  LYS45       0.1596
     44  C         29.3460   53.9270   37.5880 C.2    45  LYS45       0.2287
     45  O         30.4480   54.0530   38.1250 O.2    45  LYS45      -0.2864
     46  CB        29.5730   53.9740   35.1040 C.3    45  LYS45       0.0298
     47  CG        29.1420   52.5080   35.0000 C.3    45  LYS45       0.0038
     48  CD        29.0420   52.0660   33.5550 C.3    45  LYS45       0.0206
     49  CE        30.2110   51.2030   33.1370 C.3    45  LYS45       0.1093
     50  NZ        29.9560   50.5970   31.7990 N.3    45  LYS45      -0.1314
     51  N         37.3000   48.0460   32.5570 N.3    62  GLU62      -0.1245
     52  CA        36.7450   48.9540   31.5610 C.3    62  GLU62       0.1567
     53  C         37.4150   50.3240   31.6880 C.2    62  GLU62       0.2260
     54  O         37.6370   51.0070   30.6890 O.2    62  GLU62      -0.2867
     55  CB        35.2250   49.1000   31.6970 C.3    62  GLU62       0.0388
     56  CG        34.6550   50.1420   30.7360 C.3    62  GLU62       0.1160
     57  CD        33.1580   50.0340   30.5460 C.2    62  GLU62       0.3649
     58  OE1       32.4620   49.6630   31.5130 O.co2  62  GLU62      -0.2457
     59  OE2       32.6810   50.3210   29.4230 O.co2  62  GLU62      -0.2457
     60  N         39.8920   52.1670   28.9030 N.3    66  MET66      -0.1245
     61  CA        39.5110   53.5030   28.4670 C.3    66  MET66       0.1570
     62  C         40.6260   54.5210   28.6960 C.2    66  MET66       0.2261
     63  O         40.7650   55.4810   27.9390 O.2    66  MET66      -0.2867
     64  CB        38.2440   53.9450   29.1930 C.3    66  MET66       0.0387
     65  CG        37.0510   53.0510   28.9300 C.3    66  MET66       0.0595
     66  SD        35.8330   53.2570   30.2360 S.3    66  MET66      -0.1393
     67  CE        35.5050   55.0170   30.1120 C.3    66  MET66       0.0692
     68  N         35.2190   58.5350   23.9310 N.3    75  ILE75      -0.1245
     69  CA        34.7550   59.0840   25.2010 C.3    75  ILE75       0.1561
     70  C         35.9370   59.3210   26.1460 C.2    75  ILE75       0.2260
     71  O         36.8010   58.4570   26.3060 O.2    75  ILE75      -0.2867
     72  CB        33.6960   58.1640   25.8500 C.3    75  ILE75       0.0252
     73  CG1       33.0980   58.8020   27.1110 C.3    75  ILE75       0.0019
     74  CG2       34.2830   56.8010   26.1490 C.3    75  ILE75       0.0019
     75  CD1       32.1130   59.9100   26.8280 C.3    75  ILE75       0.0001
     76  N         33.2820   54.8860   37.9690 N.3    89  ILE89      -0.1245
     77  CA        34.0370   55.3590   36.8040 C.3    89  ILE89       0.1561
     78  C         33.4250   56.6880   36.3740 C.2    89  ILE89       0.2260
     79  O         32.2000   56.7990   36.2750 O.2    89  ILE89      -0.2867
     80  CB        33.9970   54.3450   35.6350 C.3    89  ILE89       0.0252
     81  CG1       34.6440   53.0180   36.0640 C.3    89  ILE89       0.0019
     82  CG2       34.6950   54.9280   34.4020 C.3    89  ILE89       0.0019
     83  CD1       34.5360   51.8980   35.0270 C.3    89  ILE89       0.0001
     84  N         33.3500   59.8210   33.5400 N.3    91  THR91      -0.1203
     85  CA        33.7120   60.3280   32.2080 C.3    91  THR91       0.1994
     86  C         33.1210   61.7050   31.9690 C.2    91  THR91       0.2618
     87  O         32.2970   62.1900   32.7460 O.2    91  THR91      -0.2717
     88  CB        33.2210   59.4220   31.0420 C.3    91  THR91       0.1784
     89  OG1       31.7930   59.4940   30.9450 O.3    91  THR91      -0.2211
     90  CG2       33.6540   57.9750   31.2610 C.3    91  THR91       0.0376
     91  N         33.5260   62.3250   30.8670 N.am   92  GLU92      -0.1965
     92  CA        32.8200   63.5010   30.3930 C.3    92  GLU92       0.1733
     93  C         31.3330   63.1680   30.2240 C.2    92  GLU92       0.2616
     94  O         30.9640   62.0090   29.9830 O.2    92  GLU92      -0.2715
     95  CB        33.4160   63.9700   29.0580 C.3    92  GLU92       0.0429
     96  CG        33.1850   63.0100   27.9070 C.3    92  GLU92       0.1163
     97  CD        33.8240   63.4770   26.6160 C.2    92  GLU92       0.3649
     98  OE1       33.7450   64.6860   26.3100 O.co2  92  GLU92      -0.2457
     99  OE2       34.4160   62.6370   25.9170 O.co2  92  GLU92      -0.2457
    100  N         30.4840   64.1820   30.3680 N.am   93  TYR93      -0.1960
    101  CA        29.0520   64.0210   30.1730 C.3    93  TYR93       0.1771
    102  C         28.6670   64.4390   28.7600 C.2    93  TYR93       0.2619
    103  O         28.8800   65.5860   28.3680 O.2    93  TYR93      -0.2715
    104  CB        28.2630   64.8450   31.2020 C.3    93  TYR93       0.0574
    105  CG        26.7690   64.7920   30.9990 C.ar   93  TYR93      -0.0198
    106  CD1       26.0660   63.6160   31.1880 C.ar   93  TYR93      -0.0009
    107  CD2       26.0640   65.9250   30.6090 C.ar   93  TYR93      -0.0009
    108  CE1       24.6820   63.5700   30.9890 C.ar   93  TYR93       0.0417
    109  CE2       24.6950   65.8890   30.4240 C.ar   93  TYR93       0.0417
    110  CZ        24.0150   64.7150   30.6110 C.ar   93  TYR93       0.1957
    111  OH        22.6510   64.6840   30.4100 O.3    93  TYR93      -0.2866
    112  N         28.1210   63.4960   27.9970 N.am   94  MET94      -0.1963
    113  CA        27.6740   63.7740   26.6320 C.3    94  MET94       0.1736
    114  C         26.1980   64.1810   26.6790 C.2    94  MET94       0.2616
    115  O         25.3190   63.3740   26.9800 O.2    94  MET94      -0.2715
    116  CB        27.9070   62.5370   25.7650 C.3    94  MET94       0.0427
    117  CG        29.3730   62.0860   25.7740 C.3    94  MET94       0.0599
    118  SD        30.4620   63.2360   24.9300 S.3    94  MET94      -0.1393
    119  CE        30.0720   62.8150   23.2220 C.3    94  MET94       0.0692
    120  N         25.9440   65.4530   26.3930 N.am   95  GLU95      -0.1963
    121  CA        24.6450   66.0610   26.6480 C.3    95  GLU95       0.1733
    122  C         23.4880   65.4580   25.8590 C.2    95  GLU95       0.2616
    123  O         22.3540   65.4550   26.3330 O.2    95  GLU95      -0.2715
    124  CB        24.7130   67.5720   26.3890 C.3    95  GLU95       0.0429
    125  CG        25.6360   68.3210   27.3480 C.3    95  GLU95       0.1163
    126  CD        27.0640   68.4370   26.8330 C.2    95  GLU95       0.3649
    127  OE1       27.4260   67.7250   25.8670 O.co2  95  GLU95      -0.2457
    128  OE2       27.8290   69.2560   27.3930 O.co2  95  GLU95      -0.2457
    129  N         23.7650   64.9430   24.6630 N.am   96  ASN96      -0.1958
    130  CA        22.6950   64.4210   23.8160 C.3    96  ASN96       0.1819
    131  C         22.5240   62.9010   23.8420 C.2    96  ASN96       0.2622
    132  O         21.7150   62.3480   23.0960 O.2    96  ASN96      -0.2715
    133  CB        22.8530   64.9250   22.3790 C.3    96  ASN96       0.1195
    134  CG        22.3650   66.3600   22.2150 C.2    96  ASN96       0.2630
    135  OD1       21.3030   66.7170   22.7230 O.2    96  ASN96      -0.2716
    136  ND2       23.1460   67.1860   21.5320 N.am   96  ASN96      -0.0877
    137  N         23.2690   62.2240   24.7110 N.am   97  GLY97      -0.1940
    138  CA        23.0830   60.7970   24.8970 C.3    97  GLY97       0.2014
    139  C         23.4800   59.9570   23.6970 C.2    97  GLY97       0.2639
    140  O         24.3710   60.3350   22.9320 O.2    97  GLY97      -0.2714
    141  N         22.8110   58.8190   23.5260 N.am   98  SER98      -0.1949
    142  CA        23.1740   57.8680   22.4760 C.3    98  SER98       0.1924
    143  C         22.7110   58.3350   21.0950 C.2    98  SER98       0.2314
    144  O         21.6250   58.8920   20.9500 O.2    98  SER98      -0.2863
    145  CB        22.6120   56.4780   22.7910 C.3    98  SER98       0.2116
    146  OG        23.1840   55.9480   23.9790 O.3    98  SER98      -0.2180
    147  N         14.8020   61.1240   17.7330 N.3   105  LYS105     -0.1245
    148  CA        14.0780   62.2490   18.3280 C.3   105  LYS105      0.1561
    149  C         14.2060   63.5060   17.4800 C.2   105  LYS105      0.2260
    150  O         13.5580   64.5240   17.7530 O.2   105  LYS105     -0.2867
    151  CB        14.6410   62.5600   19.7190 C.3   105  LYS105      0.0271
    152  CG        14.5190   61.4440   20.7340 C.3   105  LYS105      0.0035
    153  CD        15.0220   61.9280   22.0890 C.3   105  LYS105      0.0206
    154  CE        15.0430   60.8120   23.1150 C.3   105  LYS105      0.1093
    155  NZ        15.5380   61.2970   24.4300 N.3   105  LYS105     -0.1314
    156  N         28.0900   58.1200   21.5470 N.3   145  LEU145     -0.1245
    157  CA        27.5140   59.2080   22.3300 C.3   145  LEU145      0.1561
    158  C         27.7040   60.5520   21.6370 C.2   145  LEU145      0.2260
    159  O         28.6470   60.7270   20.8700 O.2   145  LEU145     -0.2867
    160  CB        28.1220   59.2310   23.7370 C.3   145  LEU145      0.0270
    161  CG        27.7580   58.0340   24.6130 C.3   145  LEU145      0.0019
    162  CD1       28.6700   57.9730   25.8430 C.3   145  LEU145      0.0001
    163  CD2       26.3040   58.1030   25.0450 C.3   145  LEU145      0.0001
    164  N         31.8800   54.8350   22.3350 N.3   155  SER155     -0.1202
    165  CA        31.7740   54.3860   23.7190 C.3   155  SER155      0.2020
    166  C         31.6910   52.8560   23.7450 C.2   155  SER155      0.2619
    167  O         32.0290   52.1920   22.7650 O.2   155  SER155     -0.2717
    168  CB        30.5220   54.9900   24.3640 C.3   155  SER155      0.2103
    169  OG        30.2580   54.4340   25.6430 O.3   155  SER155     -0.2182
    170  N         31.2500   52.3040   24.8710 N.am  156  ASP156     -0.1959
    171  CA        31.0210   50.8590   25.0020 C.3   156  ASP156      0.1840
    172  C         32.3080   50.0450   24.9720 C.2   156  ASP156      0.2622
    173  O         32.5300   49.2550   24.0540 O.2   156  ASP156     -0.2715
    174  CB        30.0640   50.3670   23.9040 C.3   156  ASP156      0.1450
    175  CG        29.6790   48.9060   24.0670 C.2   156  ASP156      0.3671
    176  OD1       29.5660   48.4360   25.2200 O.co2 156  ASP156     -0.2456
    177  OD2       29.4860   48.2260   23.0370 O.co2 156  ASP156     -0.2456
    178  N         33.1430   50.2310   25.9890 N.am  157  PHE157     -0.1974
    179  CA        34.4050   49.5100   26.0970 C.3   157  PHE157      0.1639
    180  C         34.3810   48.5190   27.2510 C.2   157  PHE157      0.2290
    181  O         33.3320   47.9710   27.5830 O.2   157  PHE157     -0.2864
    182  CB        35.5620   50.4960   26.2740 C.3   157  PHE157      0.0560
    183  CG        35.7730   51.3860   25.0940 C.ar  157  PHE157     -0.0200
    184  CD1       36.3330   50.8880   23.9360 C.ar  157  PHE157     -0.0042
    185  CD2       35.4020   52.7160   25.1330 C.ar  157  PHE157     -0.0042
    186  CE1       36.5330   51.7100   22.8320 C.ar  157  PHE157     -0.0003
    187  CE2       35.6010   53.5370   24.0470 C.ar  157  PHE157     -0.0003
    188  CZ        36.1640   53.0340   22.8870 C.ar  157  PHE157     -0.0000
@<TRIPOS>BOND
     1   149   150    2
     2   149   148    1
     3   147   148    1
     4   148   151    1
     5   151   152    1
     6   152   153    1
     7   159   158    2
     8   144   143    2
     9   143   142    1
    10   136   134   am
    11   156   157    1
    12   158   157    1
    13   153   154    1
    14   134   133    1
    15   134   135    2
    16   157   160    1
    17   164   165    1
    18   133   130    1
    19   142   145    1
    20   142   141    1
    21   167   166    2
    22   145   146    1
    23   186   188   ar
    24   186   184   ar
    25   188   187   ar
    26   140   139    2
    27   177   175   ar
    28   132   131    2
    29   154   155    1
    30   119   118    1
    31   141   139   am
    32   139   138    1
    33   165   166    1
    34   165   168    1
    35   160   161    1
    36   166   170   am
    37   130   131    1
    38   130   129    1
    39   131   137   am
    40   174   175    1
    41   174   171    1
    42    68    69    1
    43   184   183   ar
    44   187   185   ar
    45   173   172    2
    46   175   176   ar
    47   168   169    1
    48   161   163    1
    49   161   162    1
    50   129   122   am
    51   137   138    1
    52   170   171    1
    53   118   117    1
    54   172   171    1
    55   172   178   am
    56   183   185   ar
    57   183   182    1
    58    69    72    1
    59    69    70    1
    60   116   117    1
    61   116   113    1
    62    72    74    1
    63    72    73    1
    64   122   123    2
    65   122   121    1
    66   127   126   ar
    67    99    97   ar
    68   178   179    1
    69   179   182    1
    70   179   180    1
    71    70    71    2
    72    98    97   ar
    73   124   121    1
    74   124   125    1
    75   120   121    1
    76   120   114   am
    77    97    96    1
    78   113   114    1
    79   113   112    1
    80   114   115    2
    81    75    73    1
    82   126   125    1
    83   126   128   ar
    84   180   181    2
    85    96    95    1
    86    63    62    2
    87   112   102   am
    88   103   102    2
    89    61    62    1
    90    61    60    1
    91    61    64    1
    92   102   101    1
    93    65    64    1
    94    65    66    1
    95    95    92    1
    96    59    57   ar
    97    94    93    2
    98    67    66    1
    99   101   100    1
   100   101   104    1
   101    93   100   am
   102    93    92    1
   103    92    91    1
   104   111   110    1
   105   109   107   ar
   106   109   110   ar
   107    57    56    1
   108    57    58   ar
   109   107   105   ar
   110   110   108   ar
   111    54    53    2
   112    56    55    1
   113    91    86   am
   114    89    88    1
   115   108   106   ar
   116   105   106   ar
   117   105   104    1
   118    88    90    1
   119    88    85    1
   120    52    53    1
   121    52    55    1
   122    52    51    1
   123    50    49    1
   124    13    12    2
   125    86    85    1
   126    86    87    2
   127    85    84    1
   128    17    15    1
   129    33    30    1
   130    19    18    1
   131    19    20    1
   132    12    18   am
   133    12    11    1
   134    15    14    1
   135    14    16    1
   136    14    11    1
   137    28    26    1
   138    49    48    1
   139    27    26    1
   140    48    47    1
   141    26    23    1
   142    29    30    1
   143    20    21    2
   144    30    31    1
   145    11    10    1
   146     9     8    1
   147    82    80    1
   148    31    32    2
   149    31    34   am
   150     8     7    1
   151    47    46    1
   152    83    81    1
   153    46    43    1
   154    23    22    1
   155    23    24    1
   156    25    24    2
   157    80    81    1
   158    80    77    1
   159    34    35    1
   160    79    78    2
   161     7     6    1
   162    43    42    1
   163    43    44    1
   164    78    77    1
   165    42    36   am
   166    36    35    1
   167    36    37    2
   168    35    38    1
   169    77    76    1
   170     6     5    1
   171    44    45    2
   172     4     3    2
   173    38    39    1
   174    38    40    1
   175    39    41    1
   176     3     2    1
   177     5     2    1
   178     2     1    1
