@<TRIPOS>MOLECULE
tmp/2y6pB00.pdb
 136 132 0 0 0
SMALL
GASTEIGER

@<TRIPOS>ATOM
      1  N         27.7440   28.3340   23.2230 N.3     7  PRO7       -0.2102
      2  CA        27.1940   29.0270   24.3850 C.3     7  PRO7        0.1504
      3  C         25.9790   29.8880   23.9820 C.2     7  PRO7        0.2576
      4  O         26.0690   30.7180   23.0640 O.2     7  PRO7       -0.2718
      5  CB        28.3680   29.9080   24.8390 C.3     7  PRO7        0.0282
      6  CG        29.0970   30.2670   23.5100 C.3     7  PRO7        0.0208
      7  CD        28.9000   29.0470   22.6160 C.3     7  PRO7        0.0893
      8  N         24.8570   29.7080   24.6670 N.am    8  ALA8       -0.1966
      9  CA        23.6560   30.4700   24.3390 C.3     8  ALA8        0.1728
     10  C         22.8260   30.6970   25.5720 C.2     8  ALA8        0.2616
     11  O         21.9380   29.9050   25.9040 O.2     8  ALA8       -0.2715
     12  CB        22.8370   29.7600   23.2480 C.3     8  ALA8        0.0334
     13  N         23.1170   31.7830   26.2650 N.am    9  ARG9       -0.1977
     14  CA        22.3360   32.1400   27.4430 C.3     9  ARG9        0.1597
     15  C         21.0580   32.8910   27.0240 C.2     9  ARG9        0.2287
     16  O         21.0200   33.5470   25.9870 O.2     9  ARG9       -0.2864
     17  CB        23.1690   32.9890   28.4050 C.3     9  ARG9        0.0334
     18  CG        23.6150   34.3030   27.8020 C.3     9  ARG9        0.0492
     19  CD        23.1670   35.4630   28.6450 C.3     9  ARG9        0.2205
     20  NE        23.7860   36.6780   28.1460 N.pl3   9  ARG9       -0.0865
     21  CZ        24.2500   37.6400   28.9290 C.cat   9  ARG9        0.5346
     22  NH1       24.1520   37.5240   30.2520 N.pl3   9  ARG9        0.1354
     23  NH2       24.8170   38.7120   28.3890 N.pl3   9  ARG9        0.1354
     24  N         20.1610   37.7680   26.8410 N.3    12  SER12      -0.1202
     25  CA        20.6720   38.8410   25.9770 C.3    12  SER12       0.2020
     26  C         19.9810   40.1790   26.2920 C.2    12  SER12       0.2619
     27  O         18.8070   40.2000   26.6600 O.2    12  SER12      -0.2717
     28  CB        20.4150   38.4930   24.5240 C.3    12  SER12       0.2103
     29  OG        19.0580   38.0950   24.3610 O.3    12  SER12      -0.2182
     30  N         20.6850   41.2950   26.1310 N.am   13  THR13      -0.1938
     31  CA        20.0850   42.6070   26.4640 C.3    13  THR13       0.2028
     32  C         19.7600   43.4820   25.2450 C.2    13  THR13       0.2642
     33  O         18.8220   44.2710   25.2900 O.2    13  THR13      -0.2714
     34  CB        20.9820   43.4350   27.4120 C.3    13  THR13       0.1808
     35  OG1       22.2580   43.6230   26.7890 O.3    13  THR13      -0.2208
     36  CG2       21.1630   42.7420   28.7780 C.3    13  THR13       0.0379
     37  N         20.5410   43.3670   24.1730 N.am   14  ARG14      -0.1963
     38  CA        20.3850   44.2710   23.0290 C.3    14  ARG14       0.1729
     39  C         19.2570   43.7960   22.1320 C.2    14  ARG14       0.2616
     40  O         18.7370   44.5370   21.2980 O.2    14  ARG14      -0.2715
     41  CB        21.6960   44.3840   22.2490 C.3    14  ARG14       0.0348
     42  CG        22.7550   45.2220   22.9570 C.3    14  ARG14       0.0492
     43  CD        24.0720   45.1670   22.1980 C.3    14  ARG14       0.2205
     44  NE        24.7580   43.8920   22.3960 N.pl3  14  ARG14      -0.0865
     45  CZ        25.8150   43.5050   21.6910 C.cat  14  ARG14       0.5346
     46  NH1       26.3050   44.2930   20.7400 N.pl3  14  ARG14       0.1354
     47  NH2       26.3950   42.3430   21.9460 N.pl3  14  ARG14       0.1354
     48  N         18.9060   42.5340   22.3240 N.am   15  LEU15      -0.1977
     49  CA        17.8110   41.8830   21.6580 C.3    15  LEU15       0.1596
     50  C         17.2940   40.8740   22.6920 C.2    15  LEU15       0.2287
     51  O         18.0890   40.1940   23.3500 O.2    15  LEU15      -0.2864
     52  CB        18.3210   41.1770   20.3970 C.3    15  LEU15       0.0297
     53  CG        17.3240   40.4710   19.4820 C.3    15  LEU15       0.0022
     54  CD1       16.2570   41.4380   18.9630 C.3    15  LEU15       0.0001
     55  CD2       18.0590   39.7810   18.3360 C.3    15  LEU15       0.0001
     56  N         17.3960   36.1480   22.6720 N.3    18  LYS18      -0.1231
     57  CA        17.7040   35.9760   21.2400 C.3    18  LYS18       0.1678
     58  C         17.8330   34.5370   20.7030 C.2    18  LYS18       0.2434
     59  O         17.5220   34.3130   19.5310 O.2    18  LYS18      -0.2733
     60  CB        18.8440   36.8790   20.7450 C.3    18  LYS18       0.0284
     61  CG        20.2200   36.5550   21.2770 C.3    18  LYS18       0.0035
     62  CD        21.2570   37.3580   20.5360 C.3    18  LYS18       0.0206
     63  CE        22.5420   37.4110   21.3640 C.3    18  LYS18       0.1093
     64  NZ        23.5560   38.3120   20.8160 N.3    18  LYS18      -0.1314
     65  N         18.2530   33.5610   21.5410 N.am   19  PRO19      -0.2729
     66  CA        18.2960   32.1910   21.0000 C.3    19  PRO19       0.1401
     67  C         16.9460   31.6890   20.5280 C.2    19  PRO19       0.2269
     68  O         16.8680   30.8330   19.6350 O.2    19  PRO19      -0.2865
     69  CB        18.7830   31.3560   22.1850 C.3    19  PRO19       0.0296
     70  CG        19.5200   32.3260   23.0580 C.3    19  PRO19       0.0237
     71  CD        18.7720   33.6170   22.9240 C.3    19  PRO19       0.0939
     72  N         27.5460   33.1760   34.6290 N.3    69  LEU69      -0.1231
     73  CA        28.8320   33.1170   33.9250 C.3    69  LEU69       0.1678
     74  C         28.9590   34.3730   33.0600 C.2    69  LEU69       0.2434
     75  O         27.9940   34.7570   32.3990 O.2    69  LEU69      -0.2733
     76  CB        28.9680   31.8380   33.0900 C.3    69  LEU69       0.0284
     77  CG        28.9990   30.5190   33.8790 C.3    69  LEU69       0.0019
     78  CD1       29.2900   29.3700   32.9620 C.3    69  LEU69       0.0001
     79  CD2       30.0160   30.5120   35.0430 C.3    69  LEU69       0.0001
     80  N         30.1350   35.0270   33.0810 N.am   70  PRO70      -0.2718
     81  CA        30.2320   36.4030   32.5340 C.3    70  PRO70       0.1535
     82  C         30.5700   36.5520   31.0450 C.2    70  PRO70       0.2599
     83  O         30.6440   37.6760   30.5440 O.2    70  PRO70      -0.2715
     84  CB        31.3170   37.0600   33.4070 C.3    70  PRO70       0.0310
     85  CG        31.6390   36.0140   34.5180 C.3    70  PRO70       0.0237
     86  CD        31.3330   34.6900   33.8690 C.3    70  PRO70       0.0939
     87  N         30.7680   35.4530   30.3340 N.am   71  SER71      -0.1936
     88  CA        30.9120   35.5310   28.8810 C.3    71  SER71       0.2055
     89  C         30.6850   34.1560   28.2920 C.2    71  SER71       0.2643
     90  O         30.6510   33.1640   29.0260 O.2    71  SER71      -0.2714
     91  CB        32.3060   36.0060   28.4980 C.3    71  SER71       0.2130
     92  OG        33.2130   34.9190   28.5810 O.3    71  SER71      -0.2179
     93  N         30.5560   34.1100   26.9700 N.am   72  GLY72      -0.1954
     94  CA        30.3270   32.8830   26.2420 C.3    72  GLY72       0.1869
     95  C         31.4840   31.9110   26.3500 C.2    72  GLY72       0.2309
     96  O         31.2720   30.6990   26.4930 O.2    72  GLY72      -0.2863
     97  N         31.3200   30.2140   29.5370 N.3    75  ARG75      -0.1245
     98  CA        30.2830   29.1770   29.5190 C.3    75  ARG75       0.1563
     99  C         30.8060   27.9280   28.8090 C.2    75  ARG75       0.2260
    100  O         30.5150   26.7930   29.2320 O.2    75  ARG75      -0.2867
    101  CB        28.9870   29.6890   28.8620 C.3    75  ARG75       0.0307
    102  CG        27.7350   28.8400   29.1680 C.3    75  ARG75       0.0489
    103  CD        26.4520   29.4910   28.6650 C.3    75  ARG75       0.2205
    104  NE        26.4050   30.8840   29.1040 N.pl3  75  ARG75      -0.0865
    105  CZ        25.9420   31.2730   30.2850 C.cat  75  ARG75       0.5346
    106  NH1       25.4400   30.3770   31.1370 N.pl3  75  ARG75       0.1354
    107  NH2       25.9770   32.5500   30.6100 N.pl3  75  ARG75       0.1354
    108  N         29.5120   30.7280   18.1950 N.3    92  GLN92      -0.1231
    109  CA        28.5520   31.6370   18.8270 C.3    92  GLN92       0.1698
    110  C         27.1040   31.2390   18.5820 C.2    92  GLN92       0.2593
    111  O         26.7090   30.8610   17.4680 O.2    92  GLN92      -0.2718
    112  CB        28.7960   33.1070   18.3990 C.3    92  GLN92       0.0381
    113  CG        30.2230   33.6550   18.6790 C.3    92  GLN92       0.0905
    114  CD        30.8470   33.2120   20.0240 C.2    92  GLN92       0.2608
    115  OE1       32.0160   32.7830   20.0760 O.2    92  GLN92      -0.2717
    116  NE2       30.0810   33.3100   21.1010 N.am   92  GLN92      -0.0878
    117  N         26.3080   31.3340   19.6320 N.am   93  GLY93      -0.1942
    118  CA        24.8980   30.9400   19.5460 C.3    93  GLY93       0.2014
    119  C         24.0600   31.8490   18.6760 C.2    93  GLY93       0.2638
    120  O         22.9060   31.5470   18.3910 O.2    93  GLY93      -0.2714
    121  N         24.6380   32.9800   18.2690 N.am   94  ASP94      -0.1971
    122  CA        23.8910   33.9790   17.5140 C.3    94  ASP94       0.1709
    123  C         24.4840   34.1400   16.1130 C.2    94  ASP94       0.2293
    124  O         24.3340   35.1900   15.4710 O.2    94  ASP94      -0.2864
    125  CB        23.8790   35.3130   18.2820 C.3    94  ASP94       0.1436
    126  CG        25.2830   35.8860   18.4760 C.2    94  ASP94       0.3671
    127  OD1       26.3030   35.2030   18.1710 O.co2  94  ASP94      -0.2456
    128  OD2       25.3840   37.0340   18.9280 O.co2  94  ASP94      -0.2456
    129  N         22.9970   40.4400   17.0390 N.3   218  ASP218     -0.1239
    130  CA        23.0250   41.1180   18.3340 C.3   218  ASP218      0.1674
    131  C         21.8760   42.0820   18.5370 C.2   218  ASP218      0.2266
    132  O         21.4800   42.3330   19.6780 O.2   218  ASP218     -0.2867
    133  CB        24.3430   41.8660   18.5110 C.3   218  ASP218      0.1410
    134  CG        25.5190   40.9250   18.5940 C.2   218  ASP218      0.3668
    135  OD1       25.4000   39.8700   19.2560 O.co2 218  ASP218     -0.2456
    136  OD2       26.5480   41.2050   17.9550 O.co2 218  ASP218     -0.2456
@<TRIPOS>BOND
     1   124   123    2
     2   123   122    1
     3   129   130    1
     4   111   110    2
     5   122   121    1
     6   122   125    1
     7   136   134   ar
     8   127   126   ar
     9   108   109    1
    10   121   119   am
    11   125   126    1
    12   130   133    1
    13   130   131    1
    14    55    53    1
    15   120   119    2
    16   112   113    1
    17   112   109    1
    18   126   128   ar
    19   133   134    1
    20   131   132    2
    21   110   109    1
    22   110   117   am
    23   134   135   ar
    24   119   118    1
    25   113   114    1
    26    54    53    1
    27    53    52    1
    28    59    58    2
    29   118   117    1
    30    68    67    2
    31   114   115    2
    32   114   116   am
    33    52    49    1
    34    67    66    1
    35    62    61    1
    36    62    63    1
    37    58    57    1
    38    58    65   am
    39    46    45    1
    40    60    57    1
    41    60    61    1
    42    64    63    1
    43    66    65    1
    44    66    69    1
    45    57    56    1
    46    40    39    2
    47    65    71    1
    48    49    48    1
    49    49    50    1
    50    45    47    1
    51    45    44    2
    52    39    48   am
    53    39    38    1
    54    69    70    1
    55    43    44    1
    56    43    42    1
    57    41    42    1
    58    41    38    1
    59     7     1    1
    60     7     6    1
    61    50    51    2
    62    71    70    1
    63    38    37    1
    64     4     3    2
    65     1     2    1
    66    12     9    1
    67     6     5    1
    68     3     2    1
    69     3     8   am
    70    37    32   am
    71     9     8    1
    72     9    10    1
    73    29    28    1
    74     2     5    1
    75    28    25    1
    76    32    33    2
    77    32    31    1
    78    10    11    2
    79    10    13   am
    80    25    26    1
    81    25    24    1
    82    16    15    2
    83    30    26   am
    84    30    31    1
    85    94    95    1
    86    94    93    1
    87    13    14    1
    88    26    27    2
    89    95    96    2
    90    31    34    1
    91    35    34    1
    92    93    89   am
    93    15    14    1
    94    34    36    1
    95    14    17    1
    96    18    17    1
    97    18    19    1
    98    20    19    1
    99    20    21    2
   100    89    88    1
   101    89    90    2
   102    23    21    1
   103    91    92    1
   104    91    88    1
   105   103   104    1
   106   103   102    1
   107    99   100    2
   108    99    98    1
   109   101   102    1
   110   101    98    1
   111    88    87    1
   112    21    22    1
   113   104   105    2
   114    98    97    1
   115   105   107    1
   116   105   106    1
   117    87    82   am
   118    83    82    2
   119    82    81    1
   120    75    74    2
   121    81    80    1
   122    81    84    1
   123    78    77    1
   124    74    80   am
   125    74    73    1
   126    80    86    1
   127    76    77    1
   128    76    73    1
   129    84    85    1
   130    86    85    1
   131    77    79    1
   132    73    72    1
