@<TRIPOS>MOLECULE
tmp/2y6qD01.pdb
 194 186 0 0 0
SMALL
GASTEIGER

@<TRIPOS>ATOM
      1  N          1.9080  -24.4360   11.1810 N.3    46  GLY46      -0.1210
      2  CA         1.9470  -24.5350   12.6370 C.3    46  GLY46       0.1956
      3  C          3.3480  -24.3720   13.2550 C.2    46  GLY46       0.2612
      4  O          4.3040  -23.8360   12.6040 O.2    46  GLY46      -0.2717
      5  N          3.4540  -24.7940   14.5240 N.am   47  THR47      -0.1952
      6  CA         4.6530  -24.5970   15.3270 C.3    47  THR47       0.1897
      7  C          5.5380  -25.8050   15.2110 C.2    47  THR47       0.2313
      8  O          5.0810  -26.8630   14.8140 O.2    47  THR47      -0.2863
      9  CB         4.3340  -24.3860   16.8560 C.3    47  THR47       0.1794
     10  OG1        3.4090  -25.3700   17.2650 O.3    47  THR47      -0.2208
     11  CG2        3.6890  -23.0290   17.1430 C.3    47  THR47       0.0378
     12  N          8.4810  -28.2070   17.4260 N.3    49  ASP49      -0.1239
     13  CA         8.9670  -28.4940   18.7560 C.3    49  ASP49       0.1674
     14  C         10.2900  -29.1990   18.5740 C.2    49  ASP49       0.2266
     15  O         10.3790  -30.0960   17.7710 O.2    49  ASP49      -0.2867
     16  CB         7.9520  -29.2870   19.5680 C.3    49  ASP49       0.1410
     17  CG         7.6900  -30.6390   19.0000 C.2    49  ASP49       0.3668
     18  OD1        6.9800  -30.7140   17.9840 O.co2  49  ASP49      -0.2456
     19  OD2        8.1720  -31.6440   19.5800 O.co2  49  ASP49      -0.2456
     20  N         13.3560  -31.5250   19.9880 N.3    51  HIS51      -0.1241
     21  CA        13.4820  -32.5840   21.0000 C.3    51  HIS51       0.1621
     22  C         14.8560  -32.5600   21.6660 C.2    51  HIS51       0.2264
     23  O         15.8650  -32.1740   21.0610 O.2    51  HIS51      -0.2867
     24  CB        13.1800  -33.9740   20.4160 C.3    51  HIS51       0.0745
     25  CG        11.8610  -34.0730   19.7040 C.ar   51  HIS51       0.0817
     26  ND1       11.5530  -35.1120   18.8500 N.ar   51  HIS51      -0.2268
     27  CD2       10.7880  -33.2450   19.6850 C.ar   51  HIS51       0.1154
     28  CE1       10.3420  -34.9260   18.3510 C.ar   51  HIS51       0.1986
     29  NE2        9.8570  -33.7960   18.8360 N.ar   51  HIS51      -0.2212
     30  N          6.7300  -25.6710   22.0130 N.3   102  GLU102     -0.1245
     31  CA         6.2570  -25.2170   20.7080 C.3   102  GLU102      0.1567
     32  C          6.7590  -23.8100   20.4270 C.2   102  GLU102      0.2260
     33  O          6.6310  -22.8890   21.2700 O.2   102  GLU102     -0.2867
     34  CB         4.7170  -25.2040   20.6460 C.3   102  GLU102      0.0388
     35  CG         4.0370  -26.5840   20.8570 C.3   102  GLU102      0.1160
     36  CD         4.3520  -27.6310   19.7630 C.2   102  GLU102      0.3649
     37  OE1        4.6640  -27.2710   18.6150 O.co2 102  GLU102     -0.2457
     38  OE2        4.2670  -28.8400   20.0900 O.co2 102  GLU102     -0.2457
     39  N         -3.5660  -33.1720    3.2690 N.3   178  ASN178     -0.1240
     40  CA        -3.7090  -32.2770    4.4000 C.3   178  ASN178      0.1653
     41  C         -4.2690  -30.9500    3.9760 C.2   178  ASN178      0.2266
     42  O         -3.8260  -30.4180    2.9390 O.2   178  ASN178     -0.2867
     43  CB        -2.3450  -32.0100    5.0230 C.3   178  ASN178      0.1155
     44  CG        -1.5450  -33.3070    5.2540 C.2   178  ASN178      0.2627
     45  OD1       -0.7020  -33.7150    4.4200 O.2   178  ASN178     -0.2716
     46  ND2       -1.8240  -33.9690    6.3760 N.am  178  ASN178     -0.0877
     47  N         -4.6370  -27.1880    5.7190 N.3   180  GLN180     -0.1245
     48  CA        -4.2530  -26.3350    6.8490 C.3   180  GLN180      0.1566
     49  C         -4.8390  -24.8930    6.7520 C.2   180  GLN180      0.2260
     50  O         -5.0010  -24.3680    5.6440 O.2   180  GLN180     -0.2867
     51  CB        -2.7410  -26.1830    6.8270 C.3   180  GLN180      0.0367
     52  CG        -1.9090  -27.4420    6.6970 C.3   180  GLN180      0.0905
     53  CD        -2.0080  -28.3750    7.8990 C.2   180  GLN180      0.2608
     54  OE1       -2.2880  -29.5770    7.7620 O.2   180  GLN180     -0.2717
     55  NE2       -1.7840  -27.8270    9.0870 N.am  180  GLN180     -0.0878
     56  N         -3.1310  -28.0350   22.8460 N.3   201  ARG201     -0.1245
     57  CA        -3.3240  -28.5650   21.5070 C.3   201  ARG201      0.1563
     58  C         -4.5120  -29.5020   21.5840 C.2   201  ARG201      0.2260
     59  O         -4.8630  -29.9640   22.6490 O.2   201  ARG201     -0.2867
     60  CB        -2.0710  -29.3200   21.0060 C.3   201  ARG201      0.0307
     61  CG        -0.8070  -28.4940   21.1690 C.3   201  ARG201      0.0489
     62  CD         0.2070  -28.7000   20.0920 C.3   201  ARG201      0.2205
     63  NE         1.0680  -29.8120   20.3890 N.pl3 201  ARG201     -0.0865
     64  CZ         1.3620  -30.8020   19.5520 C.cat 201  ARG201      0.5346
     65  NH1        0.8860  -30.8130   18.3070 N.pl3 201  ARG201      0.1354
     66  NH2        2.1660  -31.7930   19.9650 N.pl3 201  ARG201      0.1354
     67  N         -6.5180  -32.8770   19.4550 N.3   203  MET203     -0.1196
     68  CA        -6.5960  -33.8940   18.3790 C.3   203  MET203      0.1786
     69  C         -7.9010  -34.6810   18.4920 C.2   203  MET203      0.2306
     70  O         -8.3170  -35.1160   19.5780 O.2   203  MET203     -0.2863
     71  CB        -5.4100  -34.8750   18.4230 C.2   203  MET203      0.0070
     72  CG        -4.0560  -34.2460   18.6500 C.2   203  MET203      0.0282
     73  SD        -2.6670  -35.3980   18.9670 S.3   203  MET203     -0.1125
     74  CE        -1.3650  -34.1640   18.5590 C.3   203  MET203      0.0742
     75  N         -6.3420  -31.6590   13.9000 N.3   212  PHE212     -0.1227
     76  CA        -5.3430  -31.2460   14.8800 C.3   212  PHE212      0.1736
     77  C         -5.4010  -29.7310   14.9640 C.2   212  PHE212      0.2595
     78  O         -5.5840  -29.0930   13.9640 O.2   212  PHE212     -0.2718
     79  CB        -3.9290  -31.5470   14.4120 C.3   212  PHE212      0.0547
     80  CG        -3.7110  -32.9540   13.9620 C.ar  212  PHE212     -0.0202
     81  CD1       -3.8800  -33.2980   12.6250 C.ar  212  PHE212     -0.0042
     82  CD2       -3.2750  -33.9020   14.8300 C.ar  212  PHE212     -0.0042
     83  CE1       -3.6490  -34.5850   12.1920 C.ar  212  PHE212     -0.0003
     84  CE2       -3.0530  -35.1830   14.4030 C.ar  212  PHE212     -0.0003
     85  CZ        -3.2360  -35.5260   13.0830 C.ar  212  PHE212     -0.0000
     86  N         -5.2340  -29.1570   16.1380 N.am  213  ALA213     -0.1966
     87  CA        -5.2910  -27.7330   16.2430 C.3   213  ALA213      0.1728
     88  C         -4.3620  -27.2880   17.3410 C.2   213  ALA213      0.2616
     89  O         -4.0700  -28.0450   18.2390 O.2   213  ALA213     -0.2715
     90  CB        -6.7120  -27.2250   16.4530 C.3   213  ALA213      0.0334
     91  N         -3.8100  -26.1000   17.1700 N.am  214  ASN214     -0.1972
     92  CA        -2.9750  -25.4750   18.1560 C.3   214  ASN214      0.1688
     93  C         -3.5680  -24.0950   18.2730 C.2   214  ASN214      0.2292
     94  O         -3.5620  -23.2930   17.3180 O.2   214  ASN214     -0.2864
     95  CB        -1.5380  -25.3990   17.6950 C.3   214  ASN214      0.1181
     96  CG        -0.7080  -24.5670   18.6130 C.2   214  ASN214      0.2629
     97  OD1       -1.2570  -23.7650   19.4310 O.2   214  ASN214     -0.2716
     98  ND2        0.6250  -24.7150   18.4950 N.am  214  ASN214     -0.0877
     99  N         -3.9790  -22.4100   14.5910 N.3   222  HIS222     -0.1226
    100  CA        -3.5870  -23.1220   13.3800 C.3   222  HIS222      0.1752
    101  C         -4.2140  -24.4760   13.4270 C.2   222  HIS222      0.2596
    102  O         -3.9600  -25.2090   14.3940 O.2   222  HIS222     -0.2718
    103  CB        -2.0690  -23.3010   13.2580 C.3   222  HIS222      0.0759
    104  CG        -1.6330  -23.8280   11.9120 C.ar  222  HIS222      0.0818
    105  ND1       -1.2740  -25.1630   11.7070 N.ar  222  HIS222     -0.2268
    106  CD2       -1.5620  -23.2260   10.6970 C.ar  222  HIS222      0.1154
    107  CE1       -0.9650  -25.3340   10.4300 C.ar  222  HIS222      0.1986
    108  NE2       -1.1570  -24.1800    9.7950 N.ar  222  HIS222     -0.2212
    109  N         -5.0030  -24.8510   12.4140 N.am  223  PHE223     -0.1962
    110  CA        -5.5480  -26.2180   12.3990 C.3   223  PHE223      0.1771
    111  C         -5.3060  -27.0200   11.1240 C.2   223  PHE223      0.2620
    112  O         -5.1460  -26.4890   10.0380 O.2   223  PHE223     -0.2715
    113  CB        -7.0400  -26.2370   12.7460 C.3   223  PHE223      0.0574
    114  CG        -7.9380  -25.6890   11.6790 C.ar  223  PHE223     -0.0200
    115  CD1       -8.2220  -24.3300   11.6300 C.ar  223  PHE223     -0.0042
    116  CD2       -8.5340  -26.5460   10.7400 C.ar  223  PHE223     -0.0042
    117  CE1       -9.0570  -23.8070   10.6580 C.ar  223  PHE223     -0.0003
    118  CE2       -9.3830  -26.0470    9.7750 C.ar  223  PHE223     -0.0003
    119  CZ        -9.6450  -24.6560    9.7240 C.ar  223  PHE223     -0.0000
    120  N         -5.2420  -28.3390   11.2830 N.am  224  GLY224     -0.1954
    121  CA        -5.0510  -29.2190   10.1700 C.3   224  GLY224      0.1869
    122  C         -6.1060  -30.3060   10.1240 C.2   224  GLY224      0.2309
    123  O         -6.4810  -30.8570   11.1670 O.2   224  GLY224     -0.2863
    124  N         -6.6410  -33.9660    8.0360 N.3   226  SER226     -0.1217
    125  CA        -5.9720  -34.9270    7.2250 C.3   226  SER226      0.1889
    126  C         -6.8680  -36.1450    6.9480 C.2   226  SER226      0.2288
    127  O         -7.6770  -36.5430    7.7780 O.2   226  SER226     -0.2866
    128  CB        -4.6870  -35.3630    7.9200 C.3   226  SER226      0.2089
    129  OG        -3.9220  -34.2580    8.2540 O.3   226  SER226     -0.2183
    130  N          4.2690  -35.6230    8.1750 N.3   300  PRO300     -0.2102
    131  CA         4.3080  -34.9060    9.4160 C.3   300  PRO300      0.1504
    132  C          3.3300  -35.4480   10.4570 C.2   300  PRO300      0.2576
    133  O          2.5010  -34.6720   11.0280 O.2   300  PRO300     -0.2718
    134  CB         3.8330  -33.5390    8.9910 C.3   300  PRO300      0.0282
    135  CG         2.8520  -33.8190    7.9160 C.3   300  PRO300      0.0208
    136  CD         3.4170  -34.9350    7.1890 C.3   300  PRO300      0.0893
    137  N          3.4070  -36.7420   10.7130 N.am  301  PHE301     -0.1963
    138  CA         2.5490  -37.3220   11.7230 C.3   301  PHE301      0.1771
    139  C          3.3740  -37.8880   12.8700 C.2   301  PHE301      0.2619
    140  O          2.8190  -38.1680   13.9370 O.2   301  PHE301     -0.2715
    141  CB         1.6410  -38.3860   11.1000 C.3   301  PHE301      0.0574
    142  CG         0.8570  -37.8870    9.9270 C.ar  301  PHE301     -0.0200
    143  CD1       -0.2230  -37.0730   10.1230 C.ar  301  PHE301     -0.0042
    144  CD2        1.2190  -38.2330    8.6150 C.ar  301  PHE301     -0.0042
    145  CE1       -0.9540  -36.5900    9.0380 C.ar  301  PHE301     -0.0003
    146  CE2        0.5000  -37.7790    7.5290 C.ar  301  PHE301     -0.0003
    147  CZ        -0.5870  -36.9380    7.7350 C.ar  301  PHE301     -0.0000
    148  N          4.6930  -38.0350   12.6820 N.am  302  ALA302     -0.1963
    149  CA         5.5260  -38.6170   13.7730 C.3   302  ALA302      0.1728
    150  C          6.1590  -37.4730   14.5530 C.2   302  ALA302      0.2616
    151  O          7.1010  -37.6850   15.3320 O.2   302  ALA302     -0.2715
    152  CB         6.6240  -39.5960   13.2430 C.3   302  ALA302      0.0334
    153  N          5.6700  -36.2610   14.3150 N.am  303  GLY303     -0.1955
    154  CA         6.3120  -35.0980   14.8810 C.3   303  GLY303      0.1869
    155  C          7.6960  -34.8400   14.3070 C.2   303  GLY303      0.2309
    156  O          8.1330  -33.7090   14.2730 O.2   303  GLY303     -0.2863
    157  N          3.1360  -44.5760   11.4550 N.3   353  ASN353     -0.1240
    158  CA         2.1310  -43.7950   12.1590 C.3   353  ASN353      0.1653
    159  C          1.0380  -43.3130   11.2250 C.2   353  ASN353      0.2266
    160  O         -0.1460  -43.4070   11.5470 O.2   353  ASN353     -0.2867
    161  CB         2.7570  -42.6310   12.8940 C.3   353  ASN353      0.1155
    162  CG         3.3070  -43.0300   14.2440 C.2   353  ASN353      0.2627
    163  OD1        3.4030  -42.1950   15.1370 O.2   353  ASN353     -0.2716
    164  ND2        3.6540  -44.3080   14.4140 N.am  353  ASN353     -0.0877
    165  N         -2.7870  -44.3220   11.8700 N.3   357  MET357     -0.1245
    166  CA        -3.7700  -43.2900   12.1900 C.3   357  MET357      0.1570
    167  C         -4.9760  -43.2620   11.2710 C.2   357  MET357      0.2261
    168  O         -6.0870  -42.9380   11.7030 O.2   357  MET357     -0.2867
    169  CB        -3.1090  -41.9420   12.1720 C.3   357  MET357      0.0387
    170  CG        -2.5920  -41.5010   13.5270 C.3   357  MET357      0.0595
    171  SD        -1.6420  -39.9310   13.5440 S.3   357  MET357     -0.1393
    172  CE        -2.1800  -39.2450   11.9560 C.3   357  MET357      0.0692
    173  N         -9.0870  -46.0990   14.2160 N.3   362  PHE362     -0.1241
    174  CA        -8.0660  -45.4660   15.0630 C.3   362  PHE362      0.1605
    175  C         -8.6280  -44.5530   16.1770 C.2   362  PHE362      0.2264
    176  O         -9.5990  -43.8280   15.9750 O.2   362  PHE362     -0.2867
    177  CB        -7.0780  -44.6760   14.1910 C.3   362  PHE362      0.0534
    178  CG        -5.9540  -44.0510   14.9660 C.ar  362  PHE362     -0.0203
    179  CD1       -4.8980  -44.8290   15.4350 C.ar  362  PHE362     -0.0042
    180  CD2       -5.9550  -42.6930   15.2370 C.ar  362  PHE362     -0.0042
    181  CE1       -3.8520  -44.2640   16.1600 C.ar  362  PHE362     -0.0003
    182  CE2       -4.9180  -42.1170   15.9680 C.ar  362  PHE362     -0.0003
    183  CZ        -3.8590  -42.9050   16.4270 C.ar  362  PHE362     -0.0000
    184  N         -6.5540  -42.0830   19.3630 N.3   364  PHE364     -0.1241
    185  CA        -5.2320  -41.6040   19.8150 C.3   364  PHE364      0.1605
    186  C         -4.7340  -42.2340   21.1360 C.2   364  PHE364      0.2264
    187  O         -3.5440  -42.1700   21.4370 O.2   364  PHE364     -0.2867
    188  CB        -5.2300  -40.0740   19.9840 C.3   364  PHE364      0.0534
    189  CG        -5.2640  -39.2910   18.6960 C.ar  364  PHE364     -0.0203
    190  CD1       -4.0870  -38.9610   18.0280 C.ar  364  PHE364     -0.0042
    191  CD2       -6.4660  -38.8030   18.1940 C.ar  364  PHE364     -0.0042
    192  CE1       -4.1190  -38.2010   16.8570 C.ar  364  PHE364     -0.0003
    193  CE2       -6.4920  -38.0270   17.0250 C.ar  364  PHE364     -0.0003
    194  CZ        -5.3270  -37.7470   16.3610 C.ar  364  PHE364     -0.0000
@<TRIPOS>BOND
     1    42    41    2
     2    39    40    1
     3    41    40    1
     4    40    43    1
     5    45    44    2
     6    43    44    1
     7    44    46   am
     8    50    49    2
     9    47    48    1
    10    52    51    1
    11    52    53    1
    12    49    48    1
    13    51    48    1
    14   126   125    1
    15   126   127    2
    16   136   135    1
    17   136   130    1
    18   125   128    1
    19   125   124    1
    20   146   147   ar
    21   146   144   ar
    22   147   145   ar
    23    54    53    2
    24    53    55   am
    25   135   134    1
    26   128   129    1
    27   130   131    1
    28   144   142   ar
    29   134   131    1
    30   145   143   ar
    31   131   132    1
    32   119   118   ar
    33   119   117   ar
    34   118   116   ar
    35   108   107   ar
    36   108   106   ar
    37   142   143   ar
    38   142   141    1
    39   112   111    2
    40   122   121    1
    41   122   123    2
    42   121   120    1
    43   107   105   ar
    44   132   137   am
    45   132   133    2
    46   117   115   ar
    47   106   104   ar
    48   137   138    1
    49   116   114   ar
    50   141   138    1
    51   111   120   am
    52   111   110    1
    53     1     2    1
    54   159   160    2
    55   159   158    1
    56   167   168    2
    57   167   166    1
    58   157   158    1
    59   115   114   ar
    60   114   113    1
    61   105   104   ar
    62   138   139    1
    63   165   166    1
    64   104   103    1
    65   172   171    1
    66   158   161    1
    67   169   166    1
    68   169   170    1
    69    83    81   ar
    70    83    85   ar
    71   110   109    1
    72   110   113    1
    73   109   101   am
    74     4     3    2
    75    81    80   ar
    76     2     3    1
    77   148   139   am
    78   148   149    1
    79   139   140    2
    80   161   162    1
    81    85    84   ar
    82   152   149    1
    83     3     5   am
    84   103   100    1
    85   100   101    1
    86   100    99    1
    87   101   102    2
    88   170   171    1
    89   149   150    1
    90    75    76    1
    91    80    79    1
    92    80    82   ar
    93    78    77    2
    94   177   178    1
    95   177   174    1
    96   173   174    1
    97   162   164   am
    98   162   163    2
    99   156   155    2
   100   155   154    1
   101   153   150   am
   102   153   154    1
   103    84    82   ar
   104    79    76    1
   105     5     6    1
   106   150   151    2
   107     8     7    2
   108    76    77    1
   109    77    86   am
   110   178   180   ar
   111   178   179   ar
   112   174   175    1
   113     7     6    1
   114   180   182   ar
   115     6     9    1
   116   179   181   ar
   117   182   183   ar
   118   176   175    2
   119    86    87    1
   120   181   183   ar
   121    87    90    1
   122    87    88    1
   123   194   192   ar
   124   194   193   ar
   125     9    11    1
   126     9    10    1
   127   192   190   ar
   128   193   191   ar
   129    91    88   am
   130    91    92    1
   131    94    93    2
   132    88    89    2
   133    12    13    1
   134    95    92    1
   135    95    96    1
   136    15    14    2
   137    18    17   ar
   138   190   189   ar
   139    92    93    1
   140   191   189   ar
   141    65    64    1
   142    28    29   ar
   143    28    26   ar
   144    68    71    1
   145    68    69    1
   146    68    67    1
   147    71    72    2
   148    69    70    2
   149    98    96   am
   150    74    73    1
   151    14    13    1
   152    96    97    2
   153    37    36   ar
   154    72    73    1
   155   189   188    1
   156    13    16    1
   157    29    27   ar
   158    26    25   ar
   159    17    16    1
   160    17    19   ar
   161   184   185    1
   162    64    66    1
   163    64    63    2
   164    27    25   ar
   165    25    24    1
   166    36    38   ar
   167    36    35    1
   168   185   188    1
   169   185   186    1
   170    20    21    1
   171    62    63    1
   172    62    61    1
   173    24    21    1
   174    32    31    1
   175    32    33    2
   176    34    31    1
   177    34    35    1
   178    31    30    1
   179    21    22    1
   180    60    61    1
   181    60    57    1
   182    23    22    2
   183   186   187    2
   184    57    58    1
   185    57    56    1
   186    58    59    2
