@<TRIPOS>MOLECULE
tmp/2y6rA01.pdb
 172 162 0 0 0
SMALL
GASTEIGER

@<TRIPOS>ATOM
      1  N         -1.0010    1.7960   15.2980 N.3    44  GLY44      -0.1210
      2  CA        -0.8190    1.4020   16.6760 C.3    44  GLY44       0.1956
      3  C         -1.9760    0.5680   17.2260 C.2    44  GLY44       0.2612
      4  O         -2.6880   -0.1390   16.4840 O.2    44  GLY44      -0.2717
      5  N         -2.1400    0.6180   18.5400 N.am   45  THR45      -0.1952
      6  CA        -3.3260    0.0920   19.1170 C.3    45  THR45       0.1897
      7  C         -4.2860    1.2590   19.3750 C.2    45  THR45       0.2313
      8  O         -3.9190    2.4150   19.2980 O.2    45  THR45      -0.2863
      9  CB        -3.0220   -0.7260   20.3900 C.3    45  THR45       0.1794
     10  OG1       -3.0150    0.1240   21.5440 O.3    45  THR45      -0.2208
     11  CG2       -1.6980   -1.4010   20.2690 C.3    45  THR45       0.0378
     12  N         -7.4200    2.8400   22.0210 N.3    47  ASP47      -0.1239
     13  CA        -7.9440    2.7450   23.3670 C.3    47  ASP47       0.1674
     14  C         -9.2390    3.4610   23.3060 C.2    47  ASP47       0.2266
     15  O         -9.2960    4.5740   22.8060 O.2    47  ASP47      -0.2867
     16  CB        -6.9890    3.3640   24.4090 C.3    47  ASP47       0.1410
     17  CG        -6.6520    4.8550   24.1280 C.2    47  ASP47       0.3668
     18  OD1       -6.4130    5.2600   22.9280 O.co2  47  ASP47      -0.2456
     19  OD2       -6.6350    5.6190   25.1380 O.co2  47  ASP47      -0.2456
     20  N        -12.0140    5.3030   25.2780 N.3    49  HIS49      -0.1241
     21  CA       -12.3090    6.0260   26.5120 C.3    49  HIS49       0.1621
     22  C        -13.7130    5.7170   27.0230 C.2    49  HIS49       0.2264
     23  O        -14.6610    5.5780   26.2280 O.2    49  HIS49      -0.2867
     24  CB       -12.1420    7.5390   26.3430 C.3    49  HIS49       0.0745
     25  CG       -10.7990    7.9480   25.8300 C.ar   49  HIS49       0.0817
     26  ND1      -10.5760    9.1690   25.2270 N.ar   49  HIS49      -0.2268
     27  CD2       -9.6110    7.2940   25.8030 C.ar   49  HIS49       0.1154
     28  CE1       -9.3050    9.2580   24.8640 C.ar   49  HIS49       0.1986
     29  NE2       -8.6980    8.1300   25.1980 N.ar   49  HIS49      -0.2212
     30  N         -5.7660   -1.1090   25.6240 N.3   100  GLU100     -0.1245
     31  CA        -5.2220   -0.9840   24.2920 C.3   100  GLU100      0.1567
     32  C         -5.5460   -2.2240   23.4430 C.2   100  GLU100      0.2260
     33  O         -5.1340   -3.3550   23.7650 O.2   100  GLU100     -0.2867
     34  CB        -3.7110   -0.7350   24.3680 C.3   100  GLU100      0.0388
     35  CG        -3.2900    0.5720   25.1020 C.3   100  GLU100      0.1160
     36  CD        -3.5680    1.8820   24.3080 C.2   100  GLU100      0.3649
     37  OE1       -3.6550    1.8590   23.0480 O.co2 100  GLU100     -0.2457
     38  OE2       -3.6930    2.9470   24.9610 O.co2 100  GLU100     -0.2457
     39  N          5.3220   12.3120   11.1450 N.3   176  ASN176     -0.1240
     40  CA         5.4550   11.1120   11.9590 C.3   176  ASN176      0.1653
     41  C          6.0860   10.0020   11.1480 C.2   176  ASN176      0.2266
     42  O          5.7720    9.8430    9.9760 O.2   176  ASN176     -0.2867
     43  CB         4.0910   10.6390   12.4550 C.3   176  ASN176      0.1155
     44  CG         3.1870   11.7890   12.8690 C.2   176  ASN176      0.2627
     45  OD1        2.4290   12.3390   12.0430 O.2   176  ASN176     -0.2716
     46  ND2        3.2700   12.1750   14.1490 N.am  176  ASN176     -0.0877
     47  N          6.6250    5.8270   11.4680 N.3   178  GLN178     -0.1245
     48  CA         5.9410    4.7330   12.1810 C.3   178  GLN178      0.1566
     49  C          6.4380    3.3950   11.6770 C.2   178  GLN178      0.2260
     50  O          6.5490    3.1970   10.4870 O.2   178  GLN178     -0.2867
     51  CB         4.4350    4.7970   11.9040 C.3   178  GLN178      0.0367
     52  CG         3.7610    6.1250   12.2940 C.3   178  GLN178      0.0905
     53  CD         3.2520    6.1250   13.7350 C.2   178  GLN178      0.2608
     54  OE1        3.7610    6.8990   14.5800 O.2   178  GLN178     -0.2717
     55  NE2        2.2450    5.2450   14.0370 N.am  178  GLN178     -0.0878
     56  N          3.8860    1.0100   27.6680 N.3   199  ARG199     -0.1245
     57  CA         4.0940    1.9940   26.5970 C.3   199  ARG199      0.1563
     58  C          5.1940    2.9320   27.0170 C.2   199  ARG199      0.2260
     59  O          5.5370    3.0110   28.1900 O.2   199  ARG199     -0.2867
     60  CB         2.8230    2.7980   26.3020 C.3   199  ARG199      0.0307
     61  CG         1.6470    1.9580   25.8610 C.3   199  ARG199      0.0489
     62  CD         0.3790    2.7180   26.0250 C.3   199  ARG199      0.2205
     63  NE         0.2290    3.6690   24.9450 N.pl3 199  ARG199     -0.0865
     64  CZ        -0.4820    4.7880   25.0410 C.cat 199  ARG199      0.5346
     65  NH1       -1.1060    5.0860   26.1810 N.pl3 199  ARG199      0.1354
     66  NH2       -0.5600    5.6110   23.9990 N.pl3 199  ARG199      0.1354
     67  N          7.0530    6.8760   26.1900 N.3   201  MET201     -0.1245
     68  CA         7.1600    8.1550   25.5140 C.3   201  MET201      0.1570
     69  C          8.4110    8.8640   26.0140 C.2   201  MET201      0.2261
     70  O          8.6510    8.9280   27.2290 O.2   201  MET201     -0.2867
     71  CB         5.9270    9.0170   25.7960 C.3   201  MET201      0.0387
     72  CG         4.6060    8.2490   25.6920 C.3   201  MET201      0.0595
     73  SD         3.1770    9.1180   26.3910 S.3   201  MET201     -0.1393
     74  CE         3.8200    9.6150   28.0160 C.3   201  MET201      0.0692
     75  N          7.5420    7.5290   20.5920 N.3   210  PHE210     -0.1227
     76  CA         6.5140    6.8220   21.3570 C.3   210  PHE210      0.1736
     77  C          6.7190    5.3540   21.0450 C.2   210  PHE210      0.2595
     78  O          7.2090    5.0190   19.9590 O.2   210  PHE210     -0.2718
     79  CB         5.0880    7.2600   20.9580 C.3   210  PHE210      0.0547
     80  CG         4.8580    8.7710   21.0020 C.ar  210  PHE210     -0.0202
     81  CD1        5.2370    9.5910   19.9120 C.ar  210  PHE210     -0.0042
     82  CD2        4.2660    9.3740   22.1280 C.ar  210  PHE210     -0.0042
     83  CE1        5.0410   10.9760   19.9360 C.ar  210  PHE210     -0.0003
     84  CE2        4.0520   10.7530   22.1620 C.ar  210  PHE210     -0.0003
     85  CZ         4.4470   11.5690   21.0490 C.ar  210  PHE210     -0.0000
     86  N          6.3750    4.4660   21.9750 N.am  211  ALA211     -0.1966
     87  CA         6.3470    3.0480   21.6260 C.3   211  ALA211      0.1728
     88  C          5.3370    2.2530   22.3990 C.2   211  ALA211      0.2616
     89  O          5.1310    2.4820   23.5740 O.2   211  ALA211     -0.2715
     90  CB         7.7100    2.4470   21.7740 C.3   211  ALA211      0.0334
     91  N          4.6870    1.3330   21.7110 N.am  212  ASN212     -0.1972
     92  CA         3.9940    0.2580   22.3820 C.3   212  ASN212      0.1688
     93  C          4.8080   -1.0040   22.1790 C.2   212  ASN212      0.2292
     94  O          5.1250   -1.3430   21.0480 O.2   212  ASN212     -0.2864
     95  CB         2.5750    0.0840   21.8530 C.3   212  ASN212      0.1181
     96  CG         1.8330   -1.0540   22.5330 C.2   212  ASN212      0.2629
     97  OD1        2.4170   -2.0750   22.8830 O.2   212  ASN212     -0.2716
     98  ND2        0.5370   -0.8820   22.7140 N.am  212  ASN212     -0.0877
     99  N          5.3570   -1.4840   18.0670 N.3   220  HIS220     -0.1241
    100  CA         5.0560   -0.4140   17.1210 C.3   220  HIS220      0.1621
    101  C          5.5570    0.8770   17.7260 C.2   220  HIS220      0.2264
    102  O          5.1830    1.2090   18.8430 O.2   220  HIS220     -0.2867
    103  CB         3.5600   -0.3270   16.9190 C.3   220  HIS220      0.0745
    104  CG         3.1450    0.6670   15.8880 C.ar  220  HIS220      0.0817
    105  ND1        2.5320    1.8570   16.2150 N.ar  220  HIS220     -0.2268
    106  CD2        3.2290    0.6410   14.5400 C.ar  220  HIS220      0.1154
    107  CE1        2.2700    2.5320   15.1110 C.ar  220  HIS220      0.1986
    108  NE2        2.6850    1.8160   14.0820 N.ar  220  HIS220     -0.2212
    109  N          6.6230    5.2210   17.1290 N.3   222  GLY222     -0.1225
    110  CA         6.4710    6.4310   16.3430 C.3   222  GLY222      0.1811
    111  C          7.5460    7.4640   16.6670 C.2   222  GLY222      0.2280
    112  O          7.8530    7.6890   17.8340 O.2   222  GLY222     -0.2866
    113  N          8.5140   11.6340   16.0230 N.3   224  SER224     -0.1217
    114  CA         7.8030   12.8530   15.5870 C.3   224  SER224      0.1889
    115  C          8.6140   14.1260   15.7510 C.2   224  SER224      0.2288
    116  O          9.4380   14.2470   16.6560 O.2   224  SER224     -0.2866
    117  CB         6.4330   13.0000   16.2620 C.3   224  SER224      0.2089
    118  OG         5.5900   11.9850   15.8010 O.3   224  SER224     -0.2183
    119  N         -2.8920   12.8930   15.8330 N.3   301  PRO301     -0.2102
    120  CA        -2.9980   11.6940   16.6580 C.3   301  PRO301      0.1504
    121  C         -2.4450   11.8830   18.0610 C.2   301  PRO301      0.2576
    122  O         -2.2930   10.8950   18.7930 O.2   301  PRO301     -0.2718
    123  CB        -2.1100   10.7030   15.9140 C.3   301  PRO301      0.0282
    124  CG        -1.1070   11.5340   15.2340 C.3   301  PRO301      0.0208
    125  CD        -1.8490   12.7250   14.7950 C.3   301  PRO301      0.0893
    126  N         -2.1610   13.1300   18.4430 N.am  302  PHE302     -0.1963
    127  CA        -1.4570   13.4240   19.6990 C.3   302  PHE302      0.1771
    128  C         -2.3400   13.5290   20.9610 C.2   302  PHE302      0.2619
    129  O         -1.9190   14.1290   21.9800 O.2   302  PHE302     -0.2715
    130  CB        -0.6450   14.7060   19.5420 C.3   302  PHE302      0.0574
    131  CG         0.4000   14.6260   18.4720 C.ar  302  PHE302     -0.0200
    132  CD1        1.5870   13.9260   18.6950 C.ar  302  PHE302     -0.0042
    133  CD2        0.1990   15.2670   17.2430 C.ar  302  PHE302     -0.0042
    134  CE1        2.5540   13.8450   17.7070 C.ar  302  PHE302     -0.0003
    135  CE2        1.1490   15.2140   16.2570 C.ar  302  PHE302     -0.0003
    136  CZ         2.3390   14.4850   16.4830 C.ar  302  PHE302     -0.0000
    137  N         -3.5490   12.9500   20.9110 N.am  303  ALA303     -0.1963
    138  CA        -4.5070   13.0950   22.0290 C.3   303  ALA303      0.1728
    139  C         -5.4350   11.8920   22.2430 C.2   303  ALA303      0.2616
    140  O         -6.2560   11.9070   23.1810 O.2   303  ALA303     -0.2715
    141  CB        -5.3430   14.4230   21.8810 C.3   303  ALA303      0.0334
    142  N         -5.3250   10.8660   21.3910 N.am  304  GLY304     -0.1955
    143  CA        -6.2330    9.7170   21.4800 C.3   304  GLY304      0.1869
    144  C         -7.6880   10.0520   21.1910 C.2   304  GLY304      0.2309
    145  O         -8.5730    9.2110   21.2920 O.2   304  GLY304     -0.2863
    146  N         -2.2810   20.1590   22.0000 N.3   354  ASN354     -0.1240
    147  CA        -1.2770   19.2270   22.4710 C.3   354  ASN354      0.1653
    148  C         -0.1240   19.1340   21.5130 C.2   354  ASN354      0.2266
    149  O          1.0280   19.0520   21.9240 O.2   354  ASN354     -0.2867
    150  CB        -1.8680   17.8640   22.7040 C.3   354  ASN354      0.1155
    151  CG        -2.5260   17.7400   24.0710 C.2   354  ASN354      0.2627
    152  OD1       -2.5690   16.6440   24.6350 O.2   354  ASN354     -0.2716
    153  ND2       -3.0500   18.8550   24.6130 N.am  354  ASN354     -0.0877
    154  N          3.9830   19.8840   22.6990 N.3   358  MET358     -0.1245
    155  CA         4.9830   18.8090   22.6720 C.3   358  MET358      0.1570
    156  C          6.2730   19.1390   21.9060 C.2   358  MET358      0.2261
    157  O          7.3650   18.7060   22.2780 O.2   358  MET358     -0.2867
    158  CB         4.3590   17.5400   22.1070 C.3   358  MET358      0.0387
    159  CG         3.1980   17.0290   22.9200 C.3   358  MET358      0.0595
    160  SD         2.6710   15.3580   22.4810 S.3   358  MET358     -0.1393
    161  CE         1.4810   15.1060   23.7810 C.3   358  MET358      0.0692
    162  N          6.9620   15.3110   29.2190 N.3   365  PHE365     -0.1241
    163  CA         5.6630   14.7230   29.5320 C.3   365  PHE365      0.1605
    164  C          5.3580   14.8410   31.0330 C.2   365  PHE365      0.2264
    165  O          4.3000   14.4300   31.5040 O.2   365  PHE365     -0.2867
    166  CB         5.6180   13.2620   29.0830 C.3   365  PHE365      0.0534
    167  CG         5.7710   13.0640   27.5880 C.ar  365  PHE365     -0.0203
    168  CD1        4.6730   13.1650   26.7340 C.ar  365  PHE365     -0.0042
    169  CD2        7.0070   12.7460   27.0350 C.ar  365  PHE365     -0.0042
    170  CE1        4.8100   12.9690   25.3590 C.ar  365  PHE365     -0.0003
    171  CE2        7.1480   12.5450   25.6560 C.ar  365  PHE365     -0.0003
    172  CZ         6.0500   12.6630   24.8230 C.ar  365  PHE365     -0.0000
@<TRIPOS>BOND
     1    42    41    2
     2    50    49    2
     3    39    40    1
     4    41    40    1
     5    47    48    1
     6    49    48    1
     7    51    48    1
     8    51    52    1
     9    40    43    1
    10    45    44    2
    11    52    53    1
    12    43    44    1
    13    44    46   am
    14    53    55   am
    15    53    54    2
    16   108   106   ar
    17   108   107   ar
    18   106   104   ar
    19   125   124    1
    20   125   119    1
    21   107   105   ar
    22   124   123    1
    23     1     2    1
    24   114   115    1
    25   114   113    1
    26   114   117    1
    27   115   116    2
    28   118   117    1
    29   119   120    1
    30   104   105   ar
    31   104   103    1
    32   123   120    1
    33   135   136   ar
    34   135   133   ar
    35   110   111    1
    36   110   109    1
    37   136   134   ar
    38     4     3    2
    39   120   121    1
    40   111   112    2
    41     2     3    1
    42   103   100    1
    43   100   101    1
    44   100    99    1
    45     3     5   am
    46   133   131   ar
    47   134   132   ar
    48   101   102    2
    49   121   126   am
    50   121   122    2
    51   126   127    1
    52   131   132   ar
    53   131   130    1
    54     5     6    1
    55     6     7    1
    56     6     9    1
    57     8     7    2
    58   130   127    1
    59   127   128    1
    60    81    83   ar
    61    81    80   ar
    62    83    85   ar
    63    78    77    2
    64    11     9    1
    65     9    10    1
    66    75    76    1
    67   137   128   am
    68   137   138    1
    69    79    80    1
    70    79    76    1
    71   128   129    2
    72    80    82   ar
    73    77    76    1
    74    77    86   am
    75    94    93    2
    76    85    84   ar
    77   144   145    2
    78   144   143    1
    79   142   143    1
    80   142   139   am
    81   148   149    2
    82   148   147    1
    83    87    90    1
    84    87    86    1
    85    87    88    1
    86    91    92    1
    87    91    88   am
    88    95    92    1
    89    95    96    1
    90   141   138    1
    91   156   157    2
    92   156   155    1
    93   146   147    1
    94    12    13    1
    95   138   139    1
    96   158   155    1
    97   158   159    1
    98    82    84   ar
    99    93    92    1
   100   139   140    2
   101    88    89    2
   102   147   150    1
   103   160   159    1
   104   160   161    1
   105    96    98   am
   106    96    97    2
   107   155   154    1
   108   150   151    1
   109    15    14    2
   110    18    17   ar
   111    37    36   ar
   112    14    13    1
   113    13    16    1
   114    32    33    2
   115    32    31    1
   116    66    64    1
   117   151   153   am
   118   151   152    2
   119    17    16    1
   120    17    19   ar
   121    31    34    1
   122    31    30    1
   123    36    38   ar
   124    36    35    1
   125    34    35    1
   126   172   170   ar
   127   172   171   ar
   128    28    29   ar
   129    28    26   ar
   130    63    64    2
   131    63    62    1
   132    64    65    1
   133    29    27   ar
   134    26    25   ar
   135    20    21    1
   136   170   168   ar
   137    68    71    1
   138    68    69    1
   139    68    67    1
   140   171   169   ar
   141    72    71    1
   142    72    73    1
   143    27    25   ar
   144    25    24    1
   145    61    62    1
   146    61    60    1
   147    69    70    2
   148    23    22    2
   149    60    57    1
   150    24    21    1
   151    73    74    1
   152    21    22    1
   153    57    58    1
   154    57    56    1
   155   168   167   ar
   156    58    59    2
   157   169   167   ar
   158   167   166    1
   159   166   163    1
   160   162   163    1
   161   163   164    1
   162   164   165    2
