@<TRIPOS>MOLECULE
tmp/2y6zA00.pdb
 155 147 0 0 0
SMALL
GASTEIGER

@<TRIPOS>ATOM
      1  N         60.9510   -8.5480   -7.6770 N.3    22  ASN22      -0.1240
      2  CA        60.3130   -7.4460   -6.9740 C.3    22  ASN22       0.1653
      3  C         61.3150   -6.3440   -6.7050 C.2    22  ASN22       0.2266
      4  O         62.1810   -6.4900   -5.8460 O.2    22  ASN22      -0.2867
      5  CB        59.7020   -7.9110   -5.6550 C.3    22  ASN22       0.1155
      6  CG        58.7580   -6.8820   -5.0560 C.2    22  ASN22       0.2627
      7  OD1       57.9850   -6.2550   -5.7650 O.2    22  ASN22      -0.2716
      8  ND2       58.8180   -6.7090   -3.7480 N.am   22  ASN22      -0.0877
      9  N         60.9960   -3.4140   -5.2560 N.3    24  LYS24      -0.1245
     10  CA        60.4700   -2.4860   -4.2540 C.3    24  LYS24       0.1561
     11  C         61.5430   -1.5340   -3.7230 C.2    24  LYS24       0.2260
     12  O         61.2590   -0.3740   -3.4180 O.2    24  LYS24      -0.2867
     13  CB        59.8450   -3.2720   -3.0880 C.3    24  LYS24       0.0271
     14  CG        58.8480   -2.5040   -2.2110 C.3    24  LYS24       0.0035
     15  CD        57.3960   -2.7380   -2.6290 C.3    24  LYS24       0.0206
     16  CE        56.4390   -2.5620   -1.4520 C.3    24  LYS24       0.1093
     17  NZ        54.9830   -2.5850   -1.8180 N.3    24  LYS24      -0.1314
     18  N         52.8650   -3.5790   -7.6510 N.3    78  GLN78      -0.1231
     19  CA        53.1620   -3.9430   -6.2700 C.3    78  GLN78       0.1698
     20  C         51.9800   -3.5090   -5.4640 C.2    78  GLN78       0.2592
     21  O         51.5360   -2.3870   -5.6130 O.2    78  GLN78      -0.2718
     22  CB        54.3820   -3.1810   -5.7600 C.3    78  GLN78       0.0381
     23  CG        55.6780   -3.8900   -5.9710 C.3    78  GLN78       0.0905
     24  CD        56.8140   -2.9290   -6.0040 C.2    78  GLN78       0.2608
     25  OE1       56.6080   -1.7180   -5.9130 O.2    78  GLN78      -0.2717
     26  NE2       58.0280   -3.4460   -6.1350 N.am   78  GLN78      -0.0878
     27  N         51.4670   -4.3620   -4.6020 N.am   79  ASN79      -0.1974
     28  CA        50.2490   -4.0030   -3.8800 C.3    79  ASN79       0.1688
     29  C         49.2070   -3.4510   -4.8600 C.2    79  ASN79       0.2292
     30  O         49.4840   -3.3210   -6.0450 O.2    79  ASN79      -0.2864
     31  CB        50.5490   -2.9770   -2.7780 C.3    79  ASN79       0.1181
     32  CG        50.4510   -1.5300   -3.2690 C.2    79  ASN79       0.2629
     33  OD1       51.4700   -0.8390   -3.4250 O.2    79  ASN79      -0.2716
     34  ND2       49.2210   -1.0660   -3.5050 N.am   79  ASN79      -0.0877
     35  N         51.3680   -8.3300   -7.2700 N.3    98  VAL98      -0.1231
     36  CA        51.9710   -9.0410   -6.1420 C.3    98  VAL98       0.1692
     37  C         51.3550   -8.5990   -4.8150 C.2    98  VAL98       0.2592
     38  O         51.4330   -7.4330   -4.4550 O.2    98  VAL98      -0.2718
     39  CB        53.4880   -8.8000   -6.0730 C.3    98  VAL98       0.0266
     40  CG1       54.1310   -9.7940   -5.1180 C.3    98  VAL98       0.0020
     41  CG2       54.0940   -8.9180   -7.4510 C.3    98  VAL98       0.0020
     42  N         50.7390   -9.5260   -4.0930 N.am   99  LEU99      -0.1966
     43  CA        50.1700   -9.2170   -2.7830 C.3    99  LEU99       0.1731
     44  C         50.7240  -10.1640   -1.7280 C.2    99  LEU99       0.2656
     45  O         51.0740  -11.3020   -2.0240 O.2    99  LEU99      -0.2711
     46  CB        48.6430   -9.2990   -2.8070 C.3    99  LEU99       0.0311
     47  CG        47.8970   -8.5010   -3.8770 C.3    99  LEU99       0.0022
     48  CD1       46.4710   -9.0120   -4.0110 C.3    99  LEU99       0.0001
     49  CD2       47.9110   -7.0080   -3.5770 C.3    99  LEU99       0.0001
     50  N         50.8060   -9.6930   -0.4900 N.am  100  GLY100     -0.1716
     51  CA        51.3130  -10.5310    0.5750 C.2   100  GLY100      0.1480
     52  C         51.5900   -9.8340    1.8830 C.2   100  GLY100      0.2820
     53  O         50.6730   -9.3340    2.5410 O.2   100  GLY100     -0.2669
     54  N         52.8660   -9.8080    2.2580 N.am  101  HIS101     -0.1925
     55  CA        53.2620   -9.4830    3.6250 C.3   101  HIS101      0.1790
     56  C         52.9470   -8.0550    4.0500 C.2   101  HIS101      0.2621
     57  O         52.3030   -7.8440    5.0680 O.2   101  HIS101     -0.2715
     58  CB        54.7140   -9.8590    3.8700 C.3   101  HIS101      0.0785
     59  CG        54.9350  -11.3370    3.9600 C.ar  101  HIS101      0.0821
     60  ND1       54.2260  -12.1370    4.8300 N.ar  101  HIS101     -0.2267
     61  CD2       55.7720  -12.1620    3.2880 C.ar  101  HIS101      0.1154
     62  CE1       54.6190  -13.3900    4.6900 C.ar  101  HIS101      0.1986
     63  NE2       55.5520  -13.4350    3.7570 N.ar  101  HIS101     -0.2212
     64  N         53.3880   -7.0740    3.2780 N.am  102  SER102     -0.1936
     65  CA        52.8190   -5.7480    3.4140 C.3   102  SER102      0.2055
     66  C         51.3910   -5.9600    2.9860 C.2   102  SER102      0.2642
     67  O         51.1820   -6.3550    1.8500 O.2   102  SER102     -0.2714
     68  CB        53.5010   -4.7870    2.4500 C.3   102  SER102      0.2130
     69  OG        52.9270   -3.4980    2.5400 O.3   102  SER102     -0.2179
     70  N         50.4220   -5.7150    3.8700 N.am  103  GLU103     -0.1976
     71  CA        49.0000   -6.1070    3.6610 C.3   103  GLU103      0.1602
     72  C         48.5860   -7.0150    4.7890 C.2   103  GLU103      0.2287
     73  O         47.5480   -6.8240    5.4220 O.2   103  GLU103     -0.2864
     74  CB        48.7310   -6.9070    2.3760 C.3   103  GLU103      0.0415
     75  CG        48.1430   -6.1340    1.1840 C.3   103  GLU103      0.1163
     76  CD        49.1360   -5.9810    0.0240 C.2   103  GLU103      0.3649
     77  OE1       49.8640   -6.9470   -0.2460 O.co2 103  GLU103     -0.2457
     78  OE2       49.1980   -4.9090   -0.6210 O.co2 103  GLU103     -0.2457
     79  N         51.4590  -13.9550   -1.5300 N.3   132  CYS132     -0.1235
     80  CA        52.5210  -14.4670   -0.6830 C.3   132  CYS132      0.1677
     81  C         52.0210  -14.8420    0.6920 C.2   132  CYS132      0.2270
     82  O         51.1970  -14.1540    1.2880 O.2   132  CYS132     -0.2867
     83  CB        53.6710  -13.4740   -0.5730 C.3   132  CYS132      0.0956
     84  SG        54.1390  -12.8180   -2.1570 S.3   132  CYS132     -0.0801
     85  N         56.7960  -17.3990    0.8890 N.3   173  GLU173     -0.1245
     86  CA        58.0020  -16.7040    1.3070 C.3   173  GLU173      0.1567
     87  C         58.0210  -16.4170    2.7990 C.2   173  GLU173      0.2260
     88  O         57.4290  -15.4470    3.2760 O.2   173  GLU173     -0.2867
     89  CB        58.2690  -15.4390    0.4780 C.3   173  GLU173      0.0388
     90  CG        57.2370  -14.3670    0.5870 C.3   173  GLU173      0.1160
     91  CD        57.7800  -13.0300    0.1550 C.2   173  GLU173      0.3649
     92  OE1       58.9410  -12.9940   -0.3060 O.co2 173  GLU173     -0.2457
     93  OE2       57.0510  -12.0220    0.2760 O.co2 173  GLU173     -0.2457
     94  N         63.2290  -15.1370    5.7340 N.3   177  ALA177     -0.1231
     95  CA        64.1190  -15.3950    4.6170 C.3   177  ALA177      0.1694
     96  C         64.2380  -14.1470    3.7610 C.2   177  ALA177      0.2592
     97  O         65.0720  -14.0610    2.8690 O.2   177  ALA177     -0.2718
     98  CB        63.6100  -16.5720    3.8000 C.3   177  ALA177      0.0304
     99  N         63.3980  -13.1720    4.0630 N.am  178  ILE178     -0.1966
    100  CA        63.3100  -11.9470    3.2880 C.3   178  ILE178      0.1727
    101  C         64.3760  -10.9340    3.6820 C.2   178  ILE178      0.2616
    102  O         64.3460  -10.3810    4.7770 O.2   178  ILE178     -0.2715
    103  CB        61.9290  -11.2990    3.4680 C.3   178  ILE178      0.0290
    104  CG1       60.8230  -12.3220    3.1660 C.3   178  ILE178      0.0022
    105  CG2       61.8380  -10.0450    2.6250 C.3   178  ILE178      0.0023
    106  CD1       59.4300  -11.8540    3.4950 C.3   178  ILE178      0.0001
    107  N         65.3210  -10.7000    2.7800 N.am  179  GLY179     -0.1955
    108  CA        66.3950   -9.7530    3.0090 C.3   179  GLY179      0.1869
    109  C         67.3790  -10.1370    4.0960 C.2   179  GLY179      0.2309
    110  O         68.1620   -9.3050    4.5250 O.2   179  GLY179     -0.2863
    111  N         62.5300  -15.7280   -0.7360 N.3   218  GLY218     -0.1210
    112  CA        63.2790  -15.4520    0.4720 C.3   218  GLY218      0.1956
    113  C         64.7410  -15.8090    0.3130 C.2   218  GLY218      0.2613
    114  O         65.1340  -16.9510    0.5540 O.2   218  GLY218     -0.2717
    115  N         65.5390  -14.8380   -0.1120 N.am  219  SER219     -0.1938
    116  CA        66.9910  -14.9980   -0.2020 C.3   219  SER219      0.2055
    117  C         67.4160  -15.9440   -1.3030 C.2   219  SER219      0.2642
    118  O         68.4330  -16.6250   -1.1980 O.2   219  SER219     -0.2714
    119  CB        67.5820  -15.4490    1.1300 C.3   219  SER219      0.2130
    120  OG        67.5560  -14.3850    2.0620 O.3   219  SER219     -0.2179
    121  N         66.6190  -15.9740   -2.3590 N.am  220  VAL220     -0.1977
    122  CA        66.9530  -16.7180   -3.5580 C.3   220  VAL220      0.1596
    123  C         68.0420  -15.9650   -4.3130 C.2   220  VAL220      0.2287
    124  O         67.9880  -14.7490   -4.4650 O.2   220  VAL220     -0.2864
    125  CB        65.7130  -16.8460   -4.4590 C.3   220  VAL220      0.0276
    126  CG1       66.0690  -17.5010   -5.8100 C.3   220  VAL220      0.0022
    127  CG2       64.5800  -17.5860   -3.7070 C.3   220  VAL220      0.0022
    128  N         60.0040  -15.9900   -6.1730 N.3   238  LEU238     -0.1231
    129  CA        59.8290  -14.5690   -5.9800 C.3   238  LEU238      0.1693
    130  C         61.1440  -14.0090   -5.4530 C.2   238  LEU238      0.2592
    131  O         61.6130  -14.4010   -4.3930 O.2   238  LEU238     -0.2718
    132  CB        58.7070  -14.2920   -5.0010 C.3   238  LEU238      0.0284
    133  CG        58.4750  -12.8020   -4.7650 C.3   238  LEU238      0.0019
    134  CD1       58.3270  -12.0510   -6.0940 C.3   238  LEU238      0.0001
    135  CD2       57.2700  -12.5990   -3.8630 C.3   238  LEU238      0.0001
    136  N         61.7460  -13.0980   -6.2060 N.am  239  VAL239     -0.1966
    137  CA        63.0920  -12.6430   -5.8930 C.3   239  VAL239      0.1727
    138  C         63.1840  -11.1460   -5.7030 C.2   239  VAL239      0.2617
    139  O         62.8000  -10.3800   -6.5820 O.2   239  VAL239     -0.2715
    140  CB        64.0630  -13.0110   -6.9940 C.3   239  VAL239      0.0290
    141  CG1       65.4760  -12.6200   -6.5800 C.3   239  VAL239      0.0023
    142  CG2       63.9500  -14.4990   -7.2980 C.3   239  VAL239      0.0023
    143  N         63.7190  -10.7430   -4.5550 N.am  240  GLY240     -0.1940
    144  CA        63.9180   -9.3450   -4.2470 C.3   240  GLY240      0.2014
    145  C         65.3120   -8.8650   -4.6000 C.2   240  GLY240      0.2639
    146  O         65.5450   -8.3230   -5.6800 O.2   240  GLY240     -0.2714
    147  N         66.2470   -9.0830   -3.6900 N.am  241  GLY241     -0.1939
    148  CA        67.5760   -8.5270   -3.8140 C.3   241  GLY241      0.2014
    149  C         68.3340   -8.9360   -5.0560 C.2   241  GLY241      0.2638
    150  O         68.9440   -8.1080   -5.7380 O.2   241  GLY241     -0.2714
    151  N         68.3160  -10.2230   -5.3470 N.am  242  ALA242     -0.1977
    152  CA        69.1070  -10.7290   -6.4460 C.3   242  ALA242      0.1597
    153  C         68.4240  -10.4320   -7.7780 C.2   242  ALA242      0.2287
    154  O         69.0240  -10.5920   -8.8330 O.2   242  ALA242     -0.2864
    155  CB        69.3540  -12.2160   -6.2710 C.3   242  ALA242      0.0319
@<TRIPOS>BOND
     1   154   153    2
     2   153   152    1
     3     1     2    1
     4    18    19    1
     5    41    39    1
     6   142   140    1
     7    35    36    1
     8   140   141    1
     9   140   137    1
    10     2     3    1
    11     2     5    1
    12     3     4    2
    13   139   138    2
    14   152   155    1
    15   152   151    1
    16    19    22    1
    17    19    20    1
    18   136   137    1
    19   136   130   am
    20   128   129    1
    21    36    39    1
    22    36    37    1
    23    26    24   am
    24   134   133    1
    25    39    40    1
    26    30    29    2
    27    24    23    1
    28    24    25    2
    29   129   130    1
    30   129   132    1
    31    23    22    1
    32   137   138    1
    33   126   125    1
    34     7     6    2
    35   150   149    2
    36   138   143   am
    37   146   145    2
    38     5     6    1
    39    21    20    2
    40    20    27   am
    41   130   131    2
    42   151   149   am
    43     9    10    1
    44     6     8   am
    45   149   148    1
    46   132   133    1
    47    29    28    1
    48    37    38    2
    49    37    42   am
    50   133   135    1
    51    27    28    1
    52   145   144    1
    53   145   147   am
    54   143   144    1
    55   124   123    2
    56   125   127    1
    57   125   122    1
    58   123   122    1
    59    10    11    1
    60    10    13    1
    61    42    43    1
    62    48    47    1
    63    28    31    1
    64    47    49    1
    65    47    46    1
    66   148   147    1
    67    11    12    2
    68   122   121    1
    69    34    32   am
    70    33    32    2
    71    32    31    1
    72    13    14    1
    73    46    43    1
    74    43    44    1
    75    15    14    1
    76    15    16    1
    77   121   117   am
    78    84    83    1
    79    45    44    2
    80    17    16    1
    81    44    50    1
    82    79    80    1
    83   117   118    2
    84   117   116    1
    85   111   112    1
    86    80    83    1
    87    80    81    1
    88    78    76   ar
    89    50    51    2
    90    92    91   ar
    91    77    76   ar
    92   116   115    1
    93   116   119    1
    94   115   113   am
    95    76    75    1
    96    91    93   ar
    97    91    90    1
    98   113   112    1
    99   113   114    2
   100    89    90    1
   101    89    86    1
   102    51    52    1
   103    81    82    2
   104    85    86    1
   105   119   120    1
   106    75    74    1
   107    86    87    1
   108    67    66    2
   109    52    54   am
   110    52    53    2
   111    54    55    1
   112    74    71    1
   113    68    69    1
   114    68    65    1
   115   105   103    1
   116   107   108    1
   117   107   101   am
   118    87    88    2
   119    97    96    2
   120    66    65    1
   121    66    70   am
   122   108   109    1
   123   104   103    1
   124   104   106    1
   125    64    65    1
   126    64    56   am
   127   100   103    1
   128   100   101    1
   129   100    99    1
   130    61    63   ar
   131    61    59   ar
   132    55    58    1
   133    55    56    1
   134    71    70    1
   135    71    72    1
   136   101   102    2
   137    63    62   ar
   138    96    99   am
   139    96    95    1
   140    98    95    1
   141    58    59    1
   142    59    60   ar
   143    56    57    2
   144   109   110    2
   145    95    94    1
   146    62    60   ar
   147    72    73    2
