@<TRIPOS>MOLECULE
tmp/2y71A00.pdb
 137 131 0 0 0
SMALL
GASTEIGER

@<TRIPOS>ATOM
      1  N          7.1720  -21.5050  -47.5790 N.3     9  PRO9       -0.2102
      2  CA         7.5260  -21.9260  -48.9350 C.3     9  PRO9        0.1504
      3  C          7.1740  -23.3640  -49.2830 C.2     9  PRO9        0.2576
      4  O          7.2650  -24.2700  -48.4540 O.2     9  PRO9       -0.2718
      5  CB         9.0320  -21.7190  -48.9940 C.3     9  PRO9        0.0282
      6  CG         9.3230  -20.7480  -47.9780 C.3     9  PRO9        0.0208
      7  CD         8.2760  -20.7970  -46.9210 C.3     9  PRO9        0.0893
      8  N          6.7830  -23.5310  -50.5420 N.am   10  ASN10      -0.1961
      9  CA         6.4360  -24.7780  -51.1580 C.3    10  ASN10       0.1819
     10  C          5.0780  -25.3550  -50.7820 C.2    10  ASN10       0.2621
     11  O          4.5920  -26.2480  -51.4550 O.2    10  ASN10      -0.2715
     12  CB         7.5210  -25.8360  -50.9930 C.3    10  ASN10       0.1195
     13  CG         8.8590  -25.3830  -51.5390 C.2    10  ASN10       0.2630
     14  OD1        8.9520  -24.9700  -52.6920 O.2    10  ASN10      -0.2716
     15  ND2        9.8990  -25.4670  -50.7300 N.am   10  ASN10      -0.0877
     16  N          4.4470  -24.8200  -49.7380 N.am   11  LEU11      -0.1977
     17  CA         3.1760  -25.3510  -49.2920 C.3    11  LEU11       0.1596
     18  C          2.0350  -25.0730  -50.2570 C.2    11  LEU11       0.2287
     19  O          1.0140  -25.7450  -50.2040 O.2    11  LEU11      -0.2864
     20  CB         2.8850  -24.8700  -47.8750 C.3    11  LEU11       0.0297
     21  CG         3.7240  -25.6430  -46.8380 C.3    11  LEU11       0.0022
     22  CD1        3.9790  -24.8450  -45.5870 C.3    11  LEU11       0.0001
     23  CD2        3.0740  -27.0020  -46.4850 C.3    11  LEU11       0.0001
     24  N          2.2420  -26.0330  -53.1870 N.3    13  ARG13      -0.1231
     25  CA         2.4170  -27.1740  -54.0920 C.3    13  ARG13       0.1694
     26  C          1.7520  -28.4460  -53.5340 C.2    13  ARG13       0.2592
     27  O          1.7800  -29.4900  -54.1840 O.2    13  ARG13      -0.2718
     28  CB         3.9160  -27.4950  -54.3290 C.3    13  ARG13       0.0321
     29  CG         4.8590  -26.3530  -54.7240 C.3    13  ARG13       0.0489
     30  CD         4.7130  -26.0050  -56.1680 C.3    13  ARG13       0.2205
     31  NE         5.0720  -27.1430  -57.0170 N.pl3  13  ARG13      -0.0865
     32  CZ         4.7510  -27.2510  -58.3050 C.cat  13  ARG13       0.5346
     33  NH1        4.0590  -26.3090  -58.9190 N.pl3  13  ARG13       0.1354
     34  NH2        5.1010  -28.3250  -58.9670 N.pl3  13  ARG13       0.1354
     35  N          1.1730  -28.3790  -52.3320 N.am   14  LEU14      -0.1966
     36  CA         0.5430  -29.5570  -51.7300 C.3    14  LEU14       0.1728
     37  C         -0.4010  -30.2370  -52.6820 C.2    14  LEU14       0.2616
     38  O         -1.1530  -29.5870  -53.3920 O.2    14  LEU14      -0.2715
     39  CB        -0.2380  -29.1790  -50.4930 C.3    14  LEU14       0.0311
     40  CG         0.5450  -28.8770  -49.2380 C.3    14  LEU14       0.0022
     41  CD1       -0.3930  -28.3030  -48.1670 C.3    14  LEU14       0.0001
     42  CD2        1.2820  -30.1270  -48.7430 C.3    14  LEU14       0.0001
     43  N         -0.3650  -31.5610  -52.6660 N.am   15  GLY15      -0.1955
     44  CA        -1.3630  -32.3530  -53.3700 C.3    15  GLY15       0.1869
     45  C         -0.8370  -33.5440  -54.1290 C.2    15  GLY15       0.2309
     46  O         -1.4770  -33.9320  -55.1090 O.2    15  GLY15      -0.2863
     47  N          3.6910  -35.4630  -47.8190 N.3    19  TYR19      -0.1241
     48  CA         2.8270  -34.3980  -47.3250 C.3    19  TYR19       0.1605
     49  C          1.3400  -34.6460  -47.5290 C.2    19  TYR19       0.2264
     50  O          0.5340  -33.8160  -47.1250 O.2    19  TYR19      -0.2867
     51  CB         3.2450  -33.0430  -47.9220 C.3    19  TYR19       0.0534
     52  CG         4.6760  -32.6720  -47.6080 C.ar   19  TYR19      -0.0201
     53  CD1        5.0620  -32.3800  -46.3070 C.ar   19  TYR19      -0.0009
     54  CD2        5.6540  -32.6330  -48.6030 C.ar   19  TYR19      -0.0009
     55  CE1        6.3800  -32.0780  -46.0140 C.ar   19  TYR19       0.0417
     56  CE2        6.9630  -32.3140  -48.3120 C.ar   19  TYR19       0.0417
     57  CZ         7.3180  -32.0260  -47.0110 C.ar   19  TYR19       0.1957
     58  OH         8.6180  -31.7140  -46.7050 O.3    19  TYR19      -0.2866
     59  N          3.0830  -22.8600  -40.2900 N.3    70  ASN70      -0.1240
     60  CA         3.9070  -23.9070  -40.8760 C.3    70  ASN70       0.1653
     61  C          4.8680  -23.1820  -41.8080 C.2    70  ASN70       0.2266
     62  O          4.5070  -22.8540  -42.9370 O.2    70  ASN70      -0.2867
     63  CB         3.0810  -24.9120  -41.6520 C.3    70  ASN70       0.1155
     64  CG         3.9370  -26.0350  -42.2100 C.2    70  ASN70       0.2627
     65  OD1        5.1810  -25.9410  -42.1850 O.2    70  ASN70      -0.2716
     66  ND2        3.3040  -27.0970  -42.6970 N.am   70  ASN70      -0.0877
     67  N          7.4830  -24.1120  -43.3470 N.3    72  GLY72      -0.1210
     68  CA         8.2060  -24.8830  -44.3510 C.3    72  GLY72       0.1956
     69  C          9.6850  -24.8950  -44.0840 C.2    72  GLY72       0.2612
     70  O         10.0990  -24.9540  -42.9260 O.2    72  GLY72      -0.2717
     71  N         10.5110  -24.7630  -45.1120 N.am   73  GLY73      -0.1956
     72  CA        11.9480  -24.8980  -44.8820 C.3    73  GLY73       0.1869
     73  C         12.5300  -23.7870  -44.0330 C.2    73  GLY73       0.2309
     74  O         13.5940  -23.9510  -43.4140 O.2    73  GLY73      -0.2863
     75  N         13.7830  -24.1450  -40.2640 N.3    76  HIS76      -0.1241
     76  CA        15.0910  -24.6390  -39.9030 C.3    76  HIS76       0.1621
     77  C         16.1870  -23.6140  -40.1270 C.2    76  HIS76       0.2264
     78  O         17.3250  -23.8510  -39.7180 O.2    76  HIS76      -0.2867
     79  CB        15.4020  -25.9190  -40.6920 C.3    76  HIS76       0.0745
     80  CG        14.2470  -26.8560  -40.7750 C.ar   76  HIS76       0.0817
     81  ND1       13.7090  -27.4730  -39.6640 N.ar   76  HIS76      -0.2268
     82  CD2       13.4670  -27.2140  -41.8220 C.ar   76  HIS76       0.1154
     83  CE1       12.6620  -28.1970  -40.0390 C.ar   76  HIS76       0.1986
     84  NE2       12.4960  -28.0480  -41.3420 N.ar   76  HIS76      -0.2212
     85  N          3.8000  -28.8800  -38.3980 N.3    96  HIS96      -0.1226
     86  CA         4.4330  -29.5540  -39.5340 C.3    96  HIS96       0.1752
     87  C          3.5840  -30.7490  -39.9170 C.2    96  HIS96       0.2596
     88  O          3.1520  -31.5040  -39.0610 O.2    96  HIS96      -0.2718
     89  CB         5.8550  -29.9740  -39.2090 C.3    96  HIS96       0.0759
     90  CG         6.7030  -28.8150  -38.8490 C.ar   96  HIS96       0.0818
     91  ND1        7.0570  -27.8470  -39.7650 N.ar   96  HIS96      -0.2268
     92  CD2        7.1590  -28.3960  -37.6520 C.ar   96  HIS96       0.1154
     93  CE1        7.7750  -26.9220  -39.1490 C.ar   96  HIS96       0.1986
     94  NE2        7.8480  -27.2340  -37.8630 N.ar   96  HIS96      -0.2212
     95  N          3.3110  -30.8750  -41.1990 N.am   97  ILE97      -0.1966
     96  CA         2.4920  -31.9390  -41.7230 C.3    97  ILE97       0.1727
     97  C          3.1980  -33.2700  -41.5250 C.2    97  ILE97       0.2616
     98  O          2.5930  -34.2430  -41.0610 O.2    97  ILE97      -0.2715
     99  CB         2.1870  -31.6500  -43.2230 C.3    97  ILE97       0.0290
    100  CG1        1.3030  -30.4000  -43.3450 C.3    97  ILE97       0.0022
    101  CG2        1.5550  -32.8760  -43.8950 C.3    97  ILE97       0.0023
    102  CD1        1.2010  -29.8730  -44.7610 C.3    97  ILE97       0.0001
    103  N          4.4780  -33.3060  -41.8970 N.am   98  SER98      -0.1950
    104  CA         5.3060  -34.5010  -41.7710 C.3    98  SER98       0.1924
    105  C          5.9400  -34.5860  -40.3910 C.2    98  SER98       0.2314
    106  O          6.0330  -33.5930  -39.6620 O.2    98  SER98      -0.2863
    107  CB         6.3900  -34.4990  -42.8580 C.3    98  SER98       0.2116
    108  OG         7.4420  -33.5950  -42.5660 O.3    98  SER98      -0.2180
    109  N          8.8810  -34.3950  -38.7780 N.3   100  VAL100     -0.1245
    110  CA        10.2360  -33.9190  -39.0330 C.3   100  VAL100      0.1561
    111  C         11.2960  -34.6710  -38.2430 C.2   100  VAL100      0.2260
    112  O         12.4740  -34.6450  -38.6000 O.2   100  VAL100     -0.2867
    113  CB        10.3550  -32.4180  -38.8180 C.3   100  VAL100      0.0252
    114  CG1        9.5690  -31.6870  -39.9430 C.3   100  VAL100      0.0019
    115  CG2        9.9010  -32.0300  -37.4280 C.3   100  VAL100      0.0019
    116  N         12.9390  -37.6990  -40.2370 N.3   103  ARG103     -0.1245
    117  CA        13.5140  -37.3570  -41.5240 C.3   103  ARG103      0.1563
    118  C         14.9790  -36.9270  -41.3620 C.2   103  ARG103      0.2260
    119  O         15.6270  -37.3520  -40.4050 O.2   103  ARG103     -0.2867
    120  CB        12.6440  -36.2850  -42.1870 C.3   103  ARG103      0.0307
    121  CG        11.1940  -36.7660  -42.4210 C.3   103  ARG103      0.0489
    122  CD        10.3430  -35.6870  -43.0870 C.3   103  ARG103      0.2205
    123  NE        10.8290  -35.3920  -44.4260 N.pl3 103  ARG103     -0.0865
    124  CZ        10.4060  -34.3690  -45.1560 C.cat 103  ARG103      0.5346
    125  NH1        9.5100  -33.5260  -44.6670 N.pl3 103  ARG103      0.1354
    126  NH2       10.9050  -34.1780  -46.3620 N.pl3 103  ARG103      0.1354
    127  N         16.1920  -31.2840  -40.3000 N.3   107  ARG107     -0.1245
    128  CA        14.7830  -30.9630  -40.0590 C.3   107  ARG107      0.1563
    129  C         14.3870  -31.0760  -38.6010 C.2   107  ARG107      0.2260
    130  O         13.2840  -30.6690  -38.2370 O.2   107  ARG107     -0.2867
    131  CB        13.8520  -31.8620  -40.8530 C.3   107  ARG107      0.0307
    132  CG        13.9960  -31.7140  -42.3040 C.3   107  ARG107      0.0489
    133  CD        12.8530  -32.4030  -43.0660 C.3   107  ARG107      0.2205
    134  NE        13.3000  -32.6300  -44.4190 N.pl3 107  ARG107     -0.0865
    135  CZ        13.2300  -31.7480  -45.4020 C.cat 107  ARG107      0.5346
    136  NH1       12.6100  -30.5780  -45.2430 N.pl3 107  ARG107      0.1354
    137  NH2       13.7250  -32.0650  -46.5770 N.pl3 107  ARG107      0.1354
@<TRIPOS>BOND
     1    34    32    1
     2    33    32    1
     3    32    31    2
     4    31    30    1
     5    30    29    1
     6    46    45    2
     7    29    28    1
     8    28    25    1
     9    27    26    2
    10    45    44    1
    11    25    26    1
    12    25    24    1
    13    26    35   am
    14    38    37    2
    15    44    43    1
    16    14    13    2
    17    37    43   am
    18    37    36    1
    19    35    36    1
    20    36    39    1
    21    13    12    1
    22    13    15   am
    23    11    10    2
    24     9    12    1
    25     9    10    1
    26     9     8    1
    27    10    16   am
    28     8     3   am
    29    39    40    1
    30    18    19    2
    31    18    17    1
    32    16    17    1
    33    17    20    1
    34     3     2    1
    35     3     4    2
    36    40    42    1
    37    40    41    1
    38     5     2    1
    39     5     6    1
    40     2     1    1
    41    54    56   ar
    42    54    52   ar
    43    56    57   ar
    44     6     7    1
    45    51    52    1
    46    51    48    1
    47    20    21    1
    48    47    48    1
    49    52    53   ar
    50     1     7    1
    51    49    48    1
    52    49    50    2
    53    57    58    1
    54    57    55   ar
    55    21    23    1
    56    21    22    1
    57   137   135    1
    58   126   124    1
    59    53    55   ar
    60   135   136    1
    61   135   134    2
    62   124   125    1
    63   124   123    2
    64    71    72    1
    65    71    69   am
    66    72    73    1
    67   102   100    1
    68   123   122    1
    69   134   133    1
    70    68    69    1
    71    68    67    1
    72    69    70    2
    73    73    74    2
    74   101    99    1
    75   100    99    1
    76    99    96    1
    77   122   121    1
    78   133   132    1
    79    62    61    2
    80   107   108    1
    81   107   104    1
    82    66    64   am
    83   121   120    1
    84   132   131    1
    85    64    65    2
    86    64    63    1
    87   120   117    1
    88   103   104    1
    89   103    97   am
    90    82    84   ar
    91    82    80   ar
    92    61    60    1
    93   104   105    1
    94    96    97    1
    95    96    95    1
    96    63    60    1
    97    97    98    2
    98   117   118    1
    99   117   116    1
   100   118   119    2
   101    84    83   ar
   102    95    87   am
   103    60    59    1
   104   131   128    1
   105    80    79    1
   106    80    81   ar
   107    79    76    1
   108   105   106    2
   109   127   128    1
   110    75    76    1
   111    77    76    1
   112    77    78    2
   113   128   129    1
   114    83    81   ar
   115   114   113    1
   116    87    86    1
   117    87    88    2
   118    91    93   ar
   119    91    90   ar
   120    86    89    1
   121    86    85    1
   122    89    90    1
   123    93    94   ar
   124   110   113    1
   125   110   109    1
   126   110   111    1
   127    90    92   ar
   128   113   115    1
   129   129   130    2
   130   112   111    2
   131    94    92   ar
