@<TRIPOS>MOLECULE
tmp/2y73A00.pdb
 98 90 0 0 0
SMALL
GASTEIGER

@<TRIPOS>ATOM
      1  N        -99.0560  -78.2040   45.6960 N.3    24  ARG24      -0.1231
      2  CA       -98.2420  -78.3360   46.8820 C.3    24  ARG24       0.1694
      3  C        -97.8580  -77.0600   47.6500 C.2    24  ARG24       0.2591
      4  O        -97.1480  -77.1380   48.6670 O.2    24  ARG24      -0.2718
      5  CB       -96.9770  -79.0850   46.4950 C.3    24  ARG24       0.0321
      6  CG       -97.2690  -80.3960   45.8590 C.3    24  ARG24       0.0489
      7  CD       -96.0940  -81.3730   45.9980 C.3    24  ARG24       0.2205
      8  NE       -96.4620  -82.6980   45.4980 N.pl3  24  ARG24      -0.0865
      9  CZ       -97.3020  -82.9250   44.4770 C.cat  24  ARG24       0.5346
     10  NH1      -97.8680  -81.9380   43.7790 N.pl3  24  ARG24       0.1354
     11  NH2      -97.5590  -84.1670   44.1310 N.pl3  24  ARG24       0.1354
     12  N        -98.2850  -75.8940   47.1730 N.am   25  LEU25      -0.1980
     13  CA       -97.8870  -74.6460   47.8260 C.3    25  LEU25       0.1596
     14  C        -99.0440  -74.2510   48.7090 C.2    25  LEU25       0.2287
     15  O        -98.8820  -73.6620   49.7970 O.2    25  LEU25      -0.2864
     16  CB       -97.5950  -73.5750   46.7860 C.3    25  LEU25       0.0297
     17  CG       -96.1070  -73.2970   46.6890 C.3    25  LEU25       0.0022
     18  CD1      -95.3500  -74.3340   47.4930 C.3    25  LEU25       0.0001
     19  CD2      -95.6870  -73.2920   45.2390 C.3    25  LEU25       0.0001
     20  N        -93.2040  -65.7810   49.2180 N.3    76  PHE76      -0.1241
     21  CA       -94.0750  -66.1660   50.3240 C.3    76  PHE76       0.1605
     22  C        -94.4030  -64.9560   51.1960 C.2    76  PHE76       0.2264
     23  O        -93.7420  -64.7200   52.2280 O.2    76  PHE76      -0.2867
     24  CB       -93.3900  -67.2190   51.1840 C.3    76  PHE76       0.0534
     25  CG       -93.5040  -68.6130   50.6510 C.ar   76  PHE76      -0.0203
     26  CD1      -94.7300  -69.1080   50.2250 C.ar   76  PHE76      -0.0042
     27  CD2      -92.3890  -69.4330   50.5850 C.ar   76  PHE76      -0.0042
     28  CE1      -94.8490  -70.3930   49.7340 C.ar   76  PHE76      -0.0003
     29  CE2      -92.4960  -70.7150   50.0850 C.ar   76  PHE76      -0.0003
     30  CZ       -93.7300  -71.1980   49.6540 C.ar   76  PHE76      -0.0000
     31  N        -97.7660  -64.7230   55.5330 N.3    79  GLN79      -0.1245
     32  CA       -97.1780  -65.3080   56.7390 C.3    79  GLN79       0.1566
     33  C        -96.5600  -64.2120   57.6270 C.2    79  GLN79       0.2260
     34  O        -96.3120  -63.0920   57.1740 O.2    79  GLN79      -0.2867
     35  CB       -96.1120  -66.3690   56.4080 C.3    79  GLN79       0.0367
     36  CG       -95.1030  -65.9790   55.2900 C.3    79  GLN79       0.0905
     37  CD       -94.2180  -67.1480   54.8120 C.2    79  GLN79       0.2608
     38  OE1      -92.9890  -67.1190   54.9730 O.2    79  GLN79      -0.2717
     39  NE2      -94.8450  -68.1740   54.2170 N.am   79  GLN79      -0.0878
     40  N        -90.6400  -64.5890   53.0830 N.3    83  ASN83      -0.1240
     41  CA       -89.3520  -65.0210   52.5970 C.3    83  ASN83       0.1653
     42  C        -89.5560  -65.2110   51.1300 C.2    83  ASN83       0.2266
     43  O        -90.6940  -65.2650   50.6370 O.2    83  ASN83      -0.2867
     44  CB       -88.8620  -66.1860   53.4220 C.3    83  ASN83       0.1155
     45  CG       -89.4270  -67.6110   53.2430 C.2    83  ASN83       0.2627
     46  OD1      -89.8100  -67.9730   52.1290 O.2    83  ASN83      -0.2716
     47  ND2      -89.3050  -68.6120   54.3790 N.am   83  ASN83      -0.0877
     48  N        -88.3820  -68.0760   48.5390 N.3    85  SER85      -0.1217
     49  CA       -87.7120  -69.3650   48.5290 C.3    85  SER85       0.1889
     50  C        -87.4260  -69.8060   47.1070 C.2    85  SER85       0.2288
     51  O        -88.1310  -69.4220   46.1340 O.2    85  SER85      -0.2866
     52  CB       -88.5420  -70.4140   49.2420 C.3    85  SER85       0.2089
     53  OG       -88.6440  -70.1090   50.6150 O.3    85  SER85      -0.2183
     54  N        -87.1180  -73.2140   44.9520 N.3    87  LEU87      -0.1245
     55  CA       -87.4730  -74.6240   44.9870 C.3    87  LEU87       0.1561
     56  C        -87.0950  -75.3670   43.7040 C.2    87  LEU87       0.2260
     57  O        -87.4280  -74.9100   42.5910 O.2    87  LEU87      -0.2867
     58  CB       -88.9760  -74.7940   45.2320 C.3    87  LEU87       0.0270
     59  CG       -89.6310  -74.0160   46.3770 C.3    87  LEU87       0.0019
     60  CD1      -91.1240  -74.2630   46.3070 C.3    87  LEU87       0.0001
     61  CD2      -89.0250  -74.3820   47.7500 C.3    87  LEU87       0.0001
     62  N        -90.2590  -82.0100   45.0970 N.3    98  MET98      -0.1245
     63  CA       -89.8840  -80.6150   45.1350 C.3    98  MET98       0.1570
     64  C        -89.0140  -80.4750   46.3590 C.2    98  MET98       0.2261
     65  O        -89.2950  -81.1120   47.3640 O.2    98  MET98      -0.2867
     66  CB       -91.1220  -79.7180   45.1830 C.3    98  MET98       0.0387
     67  CG       -91.5260  -79.2930   46.5780 C.3    98  MET98       0.0595
     68  SD       -92.6560  -77.8600   46.6470 S.3    98  MET98      -0.1393
     69  CE       -93.8260  -78.3470   45.4200 C.3    98  MET98       0.0692
     70  N        -86.7150  -77.4460   48.7510 N.3   100  ASP100     -0.1239
     71  CA       -86.3840  -76.0620   49.0180 C.3   100  ASP100      0.1674
     72  C        -84.8720  -76.0840   49.1930 C.2   100  ASP100      0.2266
     73  O        -84.3540  -76.8210   50.0240 O.2   100  ASP100     -0.2867
     74  CB       -87.1640  -75.5780   50.2680 C.3   100  ASP100      0.1410
     75  CG       -86.6810  -74.2350   50.8260 C.2   100  ASP100      0.3668
     76  OD1      -85.9790  -73.4890   50.1160 O.co2 100  ASP100     -0.2456
     77  OD2      -87.0250  -73.9200   51.9900 O.co2 100  ASP100     -0.2456
     78  N        -83.1730  -73.0900   49.2700 N.3   102  THR102     -0.1203
     79  CA       -82.8330  -71.7520   49.7500 C.3   102  THR102      0.1994
     80  C        -81.6760  -71.7550   50.7520 C.2   102  THR102      0.2617
     81  O        -80.6200  -71.1750   50.4950 O.2   102  THR102     -0.2717
     82  CB       -84.0120  -71.0220   50.3970 C.3   102  THR102      0.1784
     83  OG1      -85.1730  -71.0390   49.5460 O.3   102  THR102     -0.2211
     84  CG2      -83.6090  -69.5820   50.6460 C.3   102  THR102      0.0376
     85  N        -81.8720  -72.4150   51.8880 N.am  103  VAL103     -0.1979
     86  CA       -80.8700  -72.4260   52.9600 C.3   103  VAL103      0.1595
     87  C        -79.5210  -73.0780   52.5750 C.2   103  VAL103      0.2287
     88  O        -78.4580  -72.7140   53.0920 O.2   103  VAL103     -0.2864
     89  CB       -81.4180  -73.1860   54.1940 C.3   103  VAL103      0.0276
     90  CG1      -80.5660  -72.9190   55.4070 C.3   103  VAL103      0.0022
     91  CG2      -82.8690  -72.8250   54.4450 C.3   103  VAL103      0.0022
     92  N        -82.7610  -67.8130   55.2390 N.3   109  PRO109     -0.2116
     93  CA       -83.8790  -67.4510   54.3630 C.3   109  PRO109      0.1372
     94  C        -83.4960  -66.2300   53.5300 C.2   109  PRO109      0.2244
     95  O        -82.5310  -65.5430   53.8950 O.2   109  PRO109     -0.2868
     96  CB       -84.9910  -67.0770   55.3500 C.3   109  PRO109      0.0268
     97  CG       -84.3510  -67.1330   56.7600 C.3   109  PRO109      0.0207
     98  CD       -82.8700  -67.1900   56.5650 C.3   109  PRO109      0.0892
@<TRIPOS>BOND
     1    57    56    2
     2    56    55    1
     3    10     9    1
     4    11     9    1
     5     9     8    2
     6    54    55    1
     7    55    58    1
     8    62    63    1
     9    63    66    1
    10    63    64    1
    11    66    67    1
    12    58    59    1
    13    19    17    1
    14    69    68    1
    15     8     7    1
    16     1     2    1
    17     6     7    1
    18     6     5    1
    19    51    50    2
    20    60    59    1
    21    64    65    2
    22    59    61    1
    23     5     2    1
    24    67    68    1
    25    17    16    1
    26    17    18    1
    27    16    13    1
    28     2     3    1
    29    50    49    1
    30    12     3   am
    31    12    13    1
    32     3     4    2
    33    13    14    1
    34    49    48    1
    35    49    52    1
    36    14    15    2
    37    70    71    1
    38    71    72    1
    39    71    74    1
    40    72    73    2
    41    20    21    1
    42    52    53    1
    43    78    79    1
    44    83    82    1
    45    30    28   ar
    46    30    29   ar
    47    28    26   ar
    48    79    82    1
    49    79    80    1
    50    29    27   ar
    51    76    75   ar
    52    26    25   ar
    53    74    75    1
    54    21    24    1
    55    21    22    1
    56    82    84    1
    57    81    80    2
    58    27    25   ar
    59    43    42    2
    60    25    24    1
    61    80    85   am
    62    75    77   ar
    63    42    41    1
    64    22    23    2
    65    85    86    1
    66    46    45    2
    67    87    86    1
    68    87    88    2
    69    41    40    1
    70    41    44    1
    71    86    89    1
    72    45    44    1
    73    45    47   am
    74    94    95    2
    75    94    93    1
    76    89    91    1
    77    89    90    1
    78    39    37   am
    79    93    92    1
    80    93    96    1
    81    37    38    2
    82    37    36    1
    83    92    98    1
    84    36    35    1
    85    96    97    1
    86    31    32    1
    87    35    32    1
    88    98    97    1
    89    32    33    1
    90    34    33    2
