@<TRIPOS>MOLECULE
tmp/2y76A00.pdb
 129 122 0 0 0
SMALL
GASTEIGER

@<TRIPOS>ATOM
      1  N          7.1610   15.6530   21.3140 N.3    10  PRO10      -0.2102
      2  CA         7.6120   14.3540   21.8060 C.3    10  PRO10       0.1504
      3  C          7.1820   14.0140   23.2190 C.2    10  PRO10       0.2576
      4  O          7.2200   14.8740   24.0880 O.2    10  PRO10      -0.2718
      5  CB         9.1350   14.4800   21.7520 C.3    10  PRO10       0.0282
      6  CG         9.3860   15.3750   20.6510 C.3    10  PRO10       0.0208
      7  CD         8.2420   16.3540   20.6050 C.3    10  PRO10       0.0893
      8  N          6.7600   12.7680   23.4200 N.am   11  ASN11      -0.1961
      9  CA         6.4080   12.2180   24.7470 C.3    11  ASN11       0.1819
     10  C          5.0530   12.6590   25.3580 C.2    11  ASN11       0.2621
     11  O          4.6430   12.1490   26.4200 O.2    11  ASN11      -0.2715
     12  CB         7.5100   12.5260   25.7640 C.3    11  ASN11       0.1195
     13  CG         8.8470   11.9090   25.4100 C.2    11  ASN11       0.2630
     14  OD1        8.9280   10.7160   25.1570 O.2    11  ASN11      -0.2716
     15  ND2        9.9090   12.7100   25.4470 N.am   11  ASN11      -0.0877
     16  N          4.3630   13.6010   24.7130 N.am   12  LEU12      -0.1977
     17  CA         3.0760   14.0510   25.2110 C.3    12  LEU12       0.1596
     18  C          1.9670   13.0220   25.0050 C.2    12  LEU12       0.2287
     19  O          0.9450   13.0860   25.6680 O.2    12  LEU12      -0.2864
     20  CB         2.7160   15.4120   24.6280 C.3    12  LEU12       0.0297
     21  CG         3.4660   16.4820   25.4530 C.3    12  LEU12       0.0022
     22  CD1        3.9390   17.6880   24.6160 C.3    12  LEU12       0.0001
     23  CD2        2.6140   16.8960   26.6720 C.3    12  LEU12       0.0001
     24  N          2.3670   10.1650   26.1120 N.3    14  ARG14      -0.1231
     25  CA         2.5060    9.3510   27.3280 C.3    14  ARG14       0.1694
     26  C          1.7670    9.9220   28.5390 C.2    14  ARG14       0.2592
     27  O          1.8750    9.3760   29.6360 O.2    14  ARG14      -0.2718
     28  CB         3.9800    9.1710   27.7030 C.3    14  ARG14       0.0321
     29  CG         4.8560    8.6800   26.5830 C.3    14  ARG14       0.0489
     30  CD         4.5390    7.2670   26.2220 C.3    14  ARG14       0.2205
     31  NE         4.8780    6.3640   27.3110 N.pl3  14  ARG14      -0.0865
     32  CZ         4.5060    5.0920   27.3650 C.cat  14  ARG14       0.5346
     33  NH1        3.7890    4.5500   26.3780 N.pl3  14  ARG14       0.1354
     34  NH2        4.8590    4.3480   28.4080 N.pl3  14  ARG14       0.1354
     35  N          1.0440   11.0260   28.3550 N.am   15  LEU15      -0.1966
     36  CA         0.2280   11.5820   29.4220 C.3    15  LEU15       0.1728
     37  C         -0.6030   10.4980   30.0960 C.2    15  LEU15       0.2616
     38  O         -1.2670    9.7070   29.4230 O.2    15  LEU15      -0.2715
     39  CB        -0.7090   12.6630   28.8880 C.3    15  LEU15       0.0311
     40  CG        -0.1560   14.0800   28.7800 C.3    15  LEU15       0.0022
     41  CD1       -1.2550   15.0280   28.2840 C.3    15  LEU15       0.0001
     42  CD2        0.4160   14.5430   30.1190 C.3    15  LEU15       0.0001
     43  N         -0.5210   10.4550   31.4250 N.am   16  GLY16      -0.1955
     44  CA        -1.3870    9.6260   32.2410 C.3    16  GLY16       0.1869
     45  C         -1.0950    8.1360   32.2470 C.2    16  GLY16       0.2309
     46  O         -2.0080    7.3450   32.0550 O.2    16  GLY16      -0.2863
     47  N         -0.0040   12.7380   36.6120 N.3    18  GLY18      -0.1225
     48  CA        -1.4790   12.6940   36.5840 C.3    18  GLY18       0.1811
     49  C         -2.0450   11.4150   35.9720 C.2    18  GLY18       0.2280
     50  O         -1.3000   10.4960   35.5810 O.2    18  GLY18      -0.2866
     51  N          3.0740   22.9490   22.7200 N.3    68  ASN68      -0.1240
     52  CA         3.8930   22.3730   23.7710 C.3    68  ASN68       0.1653
     53  C          4.8620   21.4280   23.1000 C.2    68  ASN68       0.2266
     54  O          4.5410   20.2810   22.8230 O.2    68  ASN68      -0.2867
     55  CB         3.0170   21.6540   24.8050 C.3    68  ASN68       0.1155
     56  CG         3.8150   21.0850   25.9510 C.2    68  ASN68       0.2627
     57  OD1        5.0680   21.0700   25.9230 O.2    68  ASN68      -0.2716
     58  ND2        3.0980   20.6130   26.9870 N.am   68  ASN68      -0.0877
     59  N          7.4320   19.8670   24.0400 N.3    70  GLY70      -0.1210
     60  CA         8.1440   18.9190   24.8910 C.3    70  GLY70       0.1956
     61  C          9.6310   19.2010   24.8580 C.2    70  GLY70       0.2612
     62  O         10.0280   20.3420   24.9040 O.2    70  GLY70      -0.2717
     63  N         10.4440   18.1570   24.7380 N.am   71  GLY71      -0.1956
     64  CA        11.8820   18.2930   24.7760 C.3    71  GLY71       0.1869
     65  C         12.4440   19.2380   23.7300 C.2    71  GLY71       0.2309
     66  O         13.4350   19.9230   23.9880 O.2    71  GLY71      -0.2863
     67  N         13.6900   23.0350   24.1190 N.3    74  HIS74      -0.1241
     68  CA        14.9860   23.4580   24.6380 C.3    74  HIS74       0.1621
     69  C         16.0960   23.2290   23.6200 C.2    74  HIS74       0.2264
     70  O         17.2290   23.6630   23.8420 O.2    74  HIS74      -0.2867
     71  CB        15.3090   22.6760   25.9280 C.3    74  HIS74       0.0745
     72  CG        14.1270   22.5080   26.8180 C.ar   74  HIS74       0.0817
     73  ND1       13.5370   23.5670   27.4750 N.ar   74  HIS74      -0.2268
     74  CD2       13.3730   21.4210   27.1030 C.ar   74  HIS74       0.1154
     75  CE1       12.4870   23.1320   28.1490 C.ar   74  HIS74       0.1986
     76  NE2       12.3620   21.8340   27.9390 N.ar   74  HIS74      -0.2212
     77  N          3.6030   24.8380   28.8180 N.3    94  HIS94      -0.1226
     78  CA         4.2210   23.6960   29.4720 C.3    94  HIS94       0.1752
     79  C          3.3830   23.2900   30.6920 C.2    94  HIS94       0.2596
     80  O          2.9380   24.1150   31.4800 O.2    94  HIS94      -0.2718
     81  CB         5.6750   23.9960   29.8450 C.3    94  HIS94       0.0759
     82  CG         6.5280   24.3060   28.6580 C.ar   94  HIS94       0.0818
     83  ND1        6.7390   23.3930   27.6480 N.ar   94  HIS94      -0.2268
     84  CD2        7.1570   25.4420   28.2760 C.ar   94  HIS94       0.1154
     85  CE1        7.4850   23.9440   26.7070 C.ar   94  HIS94       0.1986
     86  NE2        7.7530   25.1880   27.0630 N.ar   94  HIS94      -0.2212
     87  N          3.1410   21.9960   30.8090 N.am   95  ILE95      -0.1966
     88  CA         2.3360   21.4680   31.8740 C.3    95  ILE95       0.1727
     89  C          3.0780   21.7120   33.1930 C.2    95  ILE95       0.2616
     90  O          2.5150   22.3020   34.1290 O.2    95  ILE95      -0.2715
     91  CB         1.9990   19.9540   31.6140 C.3    95  ILE95       0.0290
     92  CG1        1.0760   19.8240   30.3970 C.3    95  ILE95       0.0022
     93  CG2        1.3580   19.2960   32.8470 C.3    95  ILE95       0.0023
     94  CD1        0.8330   18.3700   29.9410 C.3    95  ILE95       0.0001
     95  N          4.3380   21.2950   33.2500 N.am   96  SER96      -0.1950
     96  CA         5.1440   21.4430   34.4590 C.3    96  SER96       0.1924
     97  C          5.7880   22.8350   34.5250 C.2    96  SER96       0.2314
     98  O          5.9000   23.5350   33.5120 O.2    96  SER96      -0.2863
     99  CB         6.2510   20.3810   34.5020 C.3    96  SER96       0.2116
    100  OG         7.2720   20.6510   33.5500 O.3    96  SER96      -0.2180
    101  N          8.7850   24.5140   34.2450 N.3    98  VAL98      -0.1245
    102  CA        10.1020   24.2260   33.6850 C.3    98  VAL98       0.1561
    103  C         11.2110   25.0480   34.3460 C.2    98  VAL98       0.2260
    104  O         12.3910   24.7670   34.1410 O.2    98  VAL98      -0.2867
    105  CB        10.1500   24.4440   32.1200 C.3    98  VAL98       0.0252
    106  CG1        9.2610   23.4280   31.3880 C.3    98  VAL98       0.0019
    107  CG2        9.7680   25.8780   31.7370 C.3    98  VAL98       0.0019
    108  N         12.9890   22.9450   37.6430 N.3   101  ARG101     -0.1245
    109  CA        13.6260   21.6480   37.3910 C.3   101  ARG101      0.1563
    110  C         15.0960   21.8480   36.9480 C.2   101  ARG101      0.2260
    111  O         15.7410   22.7910   37.4000 O.2   101  ARG101     -0.2867
    112  CB        12.7890   20.8860   36.3670 C.3   101  ARG101      0.0307
    113  CG        11.2710   20.8470   36.7090 C.3   101  ARG101      0.0489
    114  CD        10.4600   20.3160   35.5380 C.3   101  ARG101      0.2205
    115  NE        10.8020   18.9300   35.2940 N.pl3 101  ARG101     -0.0865
    116  CZ        10.2770   18.1810   34.3340 C.cat 101  ARG101      0.5346
    117  NH1        9.3820   18.6750   33.4820 N.pl3 101  ARG101      0.1354
    118  NH2       10.6690   16.9200   34.2300 N.pl3 101  ARG101      0.1354
    119  N         16.1360   22.9740   31.1950 N.3   105  ARG105     -0.1245
    120  CA        14.7180   23.2400   30.9210 C.3   105  ARG105      0.1563
    121  C         14.3240   24.7220   31.0390 C.2   105  ARG105      0.2260
    122  O         13.2030   25.0770   30.6940 O.2   105  ARG105     -0.2867
    123  CB        13.8240   22.4070   31.8340 C.3   105  ARG105      0.0307
    124  CG        13.8220   20.9530   31.4930 C.3   105  ARG105      0.0489
    125  CD        12.8150   20.2000   32.3230 C.3   105  ARG105      0.2205
    126  NE        13.2840   18.8430   32.5140 N.pl3 105  ARG105     -0.0865
    127  CZ        13.1960   17.8830   31.6030 C.cat 105  ARG105      0.5346
    128  NH1       12.6100   18.1100   30.4160 N.pl3 105  ARG105      0.1354
    129  NH2       13.6710   16.6780   31.8910 N.pl3 105  ARG105      0.1354
@<TRIPOS>BOND
     1     7     6    1
     2     7     1    1
     3     6     5    1
     4     1     2    1
     5     5     2    1
     6     2     3    1
     7    51    52    1
     8    54    53    2
     9    53    52    1
    10     3     8   am
    11     3     4    2
    12     8     9    1
    13    69    70    2
    14    69    68    1
    15    65    66    2
    16    65    64    1
    17    52    55    1
    18    59    60    1
    19    67    68    1
    20    22    21    1
    21    20    17    1
    22    20    21    1
    23    68    71    1
    24    16    17    1
    25    16    10   am
    26    63    64    1
    27    63    61   am
    28     9    10    1
    29     9    12    1
    30    55    56    1
    31    61    60    1
    32    61    62    2
    33    18    17    1
    34    18    19    2
    35    14    13    2
    36    10    11    2
    37    13    15   am
    38    13    12    1
    39    21    23    1
    40    57    56    2
    41    71    72    1
    42    56    58   am
    43    24    25    1
    44    30    29    1
    45    30    31    1
    46    33    32    1
    47    29    28    1
    48    85    86   ar
    49    85    83   ar
    50    72    74   ar
    51    72    73   ar
    52    86    84   ar
    53    74    76   ar
    54    31    32    2
    55    25    28    1
    56    25    26    1
    57    32    34    1
    58    73    75   ar
    59    83    82   ar
    60    76    75   ar
    61    84    82   ar
    62    41    40    1
    63    35    26   am
    64    35    36    1
    65    26    27    2
    66    82    81    1
    67    40    39    1
    68    40    42    1
    69    77    78    1
    70    39    36    1
    71    36    37    1
    72    38    37    2
    73    78    81    1
    74    78    79    1
    75    94    92    1
    76    37    43   am
    77    92    91    1
    78   128   127    1
    79    79    87   am
    80    79    80    2
    81   122   121    2
    82    87    88    1
    83   120   121    1
    84   120   119    1
    85   120   123    1
    86   106   105    1
    87    43    44    1
    88   124   123    1
    89   124   125    1
    90   127   129    1
    91   127   126    2
    92    91    88    1
    93    91    93    1
    94   107   105    1
    95    88    89    1
    96    46    45    2
    97   105   102    1
    98    44    45    1
    99   125   126    1
   100    89    95   am
   101    89    90    2
   102    95    96    1
   103   117   116    1
   104    98    97    2
   105   100    99    1
   106   102   101    1
   107   102   103    1
   108   104   103    2
   109   118   116    1
   110   116   115    2
   111    96    99    1
   112    96    97    1
   113   115   114    1
   114   114   113    1
   115    50    49    2
   116    49    48    1
   117   112   113    1
   118   112   109    1
   119    48    47    1
   120   110   109    1
   121   110   111    2
   122   109   108    1
