@<TRIPOS>MOLECULE
tmp/2y77A00.pdb
 76 72 0 0 0
SMALL
GASTEIGER

@<TRIPOS>ATOM
      1  N         10.1060   15.8580   24.3290 N.3     9  PRO9       -0.2102
      2  CA         9.6170   17.1590   23.9070 C.3     9  PRO9        0.1504
      3  C          8.1850   17.4670   24.2970 C.2     9  PRO9        0.2576
      4  O          7.3140   16.5910   24.2450 O.2     9  PRO9       -0.2718
      5  CB         9.7530   17.1180   22.3900 C.3     9  PRO9        0.0282
      6  CG        10.7420   16.1030   22.1070 C.3     9  PRO9        0.0208
      7  CD        10.8410   15.1660   23.2580 C.3     9  PRO9        0.0893
      8  N          7.9810   18.7180   24.7030 N.am   10  ASN10      -0.1961
      9  CA         6.6760   19.2700   25.0680 C.3    10  ASN10       0.1819
     10  C          6.1530   18.8750   26.4530 C.2    10  ASN10       0.2621
     11  O          5.2220   19.5010   26.9470 O.2    10  ASN10      -0.2715
     12  CB         5.6260   18.9860   23.9810 C.3    10  ASN10       0.1195
     13  CG         6.0340   19.5420   22.6140 C.2    10  ASN10       0.2630
     14  OD1        6.0380   18.8200   21.5910 O.2    10  ASN10      -0.2716
     15  ND2        6.3860   20.8090   22.5850 N.am   10  ASN10      -0.0877
     16  N          6.7740   17.9010   27.1100 N.am   11  LEU11      -0.1977
     17  CA         6.3060   17.4740   28.4270 C.3    11  LEU11       0.1596
     18  C          6.5090   18.5620   29.4860 C.2    11  LEU11       0.2287
     19  O          5.8050   18.5880   30.4760 O.2    11  LEU11      -0.2864
     20  CB         6.9690   16.1660   28.8660 C.3    11  LEU11       0.0297
     21  CG         6.3210   14.8460   28.4250 C.3    11  LEU11       0.0022
     22  CD1        4.9450   14.6420   29.0930 C.3    11  LEU11       0.0001
     23  CD2        6.2510   14.7060   26.9280 C.3    11  LEU11       0.0001
     24  N          5.5660   21.4400   29.1180 N.3    13  ARG13      -0.1231
     25  CA         4.3830   22.2930   28.9640 C.3    13  ARG13       0.1694
     26  C          3.1420   21.7410   29.6810 C.2    13  ARG13       0.2592
     27  O          2.0780   22.3440   29.6120 O.2    13  ARG13      -0.2718
     28  CB         4.0520   22.4740   27.4720 C.3    13  ARG13       0.0321
     29  CG         5.1940   22.9520   26.6000 C.3    13  ARG13       0.0489
     30  CD         5.5530   24.3780   26.8960 C.3    13  ARG13       0.2205
     31  NE         4.4040   25.2340   26.6150 N.pl3  13  ARG13      -0.0865
     32  CZ         4.2760   26.4910   27.0190 C.cat  13  ARG13       0.5346
     33  NH1        5.2480   27.0760   27.6950 N.pl3  13  ARG13       0.1354
     34  NH2        3.1800   27.1680   26.7090 N.pl3  13  ARG13       0.1354
     35  N          3.2620   20.6030   30.3620 N.am   14  LEU14      -0.1966
     36  CA         2.1460   20.0380   31.1140 C.3    14  LEU14       0.1728
     37  C          1.5300   21.0860   32.0240 C.2    14  LEU14       0.2616
     38  O          2.2460   21.8330   32.6850 O.2    14  LEU14      -0.2715
     39  CB         2.6340   18.8780   31.9720 C.3    14  LEU14       0.0311
     40  CG         2.7280   17.5050   31.3300 C.3    14  LEU14       0.0022
     41  CD1        3.5030   16.5980   32.2700 C.3    14  LEU14       0.0001
     42  CD2        1.3430   16.9290   31.0130 C.3    14  LEU14       0.0001
     43  N          0.2040   21.1570   32.0290 N.am   15  GLY15      -0.1955
     44  CA        -0.5190   22.0200   32.9650 C.3    15  GLY15       0.1869
     45  C         -0.5770   23.4900   32.6090 C.2    15  GLY15       0.2309
     46  O         -1.3720   24.2290   33.1950 O.2    15  GLY15      -0.2863
     47  N          7.4240   11.7260   24.0390 N.3    68  GLY68      -0.1210
     48  CA         6.6330   12.7160   23.3180 C.3    68  GLY68       0.1956
     49  C          6.6410   12.4120   21.8290 C.2    68  GLY68       0.2612
     50  O          6.5990   11.2490   21.4290 O.2    68  GLY68      -0.2717
     51  N          6.7440   13.4290   20.9860 N.am   69  GLY69      -0.1956
     52  CA         6.6680   13.2080   19.5430 C.3    69  GLY69       0.1869
     53  C          7.7550   12.3080   18.9910 C.2    69  GLY69       0.2309
     54  O          7.5760   11.6600   17.9480 O.2    69  GLY69      -0.2863
     55  N         -6.2880    8.7850   18.3240 N.3    99  ARG99      -0.1245
     56  CA        -6.3380    9.9640   17.4520 C.3    99  ARG99       0.1563
     57  C         -5.6290    9.7230   16.1250 C.2    99  ARG99       0.2260
     58  O         -6.0350    8.8050   15.4210 O.2    99  ARG99      -0.2867
     59  CB        -5.9470   11.2530   18.1620 C.3    99  ARG99       0.0307
     60  CG        -4.6890   11.2300   18.9530 C.3    99  ARG99       0.0489
     61  CD        -4.5620   12.6170   19.5870 C.3    99  ARG99       0.2205
     62  NE        -3.2960   12.8430   20.2580 N.pl3  99  ARG99      -0.0865
     63  CZ        -2.8350   12.0910   21.2460 C.cat  99  ARG99       0.5346
     64  NH1       -3.5270   11.0360   21.6570 N.pl3  99  ARG99       0.1354
     65  NH2       -1.6710   12.3870   21.8000 N.pl3  99  ARG99       0.1354
     66  N          0.2730    8.3950   15.2710 N.3   103  ARG103     -0.1245
     67  CA         0.5860    8.1870   16.7000 C.3   103  ARG103      0.1563
     68  C          0.5000    6.7430   17.1410 C.2   103  ARG103      0.2260
     69  O          0.9250    6.4000   18.2450 O.2   103  ARG103     -0.2867
     70  CB        -0.3330    8.9850   17.6100 C.3   103  ARG103      0.0307
     71  CG        -0.0640   10.4170   17.6040 C.3   103  ARG103      0.0489
     72  CD        -0.8220   11.1680   18.6710 C.3   103  ARG103      0.2205
     73  NE        -0.9960   12.5100   18.1740 N.pl3 103  ARG103     -0.0865
     74  CZ        -0.0620   13.4590   18.2090 C.cat 103  ARG103      0.5346
     75  NH1        1.1020   13.2710   18.8440 N.pl3 103  ARG103      0.1354
     76  NH2       -0.3210   14.6320   17.6600 N.pl3 103  ARG103      0.1354
@<TRIPOS>BOND
     1    66    67    1
     2    58    57    2
     3    57    56    1
     4    67    68    1
     5    67    70    1
     6    68    69    2
     7    56    59    1
     8    56    55    1
     9    71    70    1
    10    71    72    1
    11    76    74    1
    12    54    53    2
    13    59    60    1
    14    73    74    2
    15    73    72    1
    16    74    75    1
    17    60    61    1
    18    53    52    1
    19    52    51    1
    20    61    62    1
    21    62    63    2
    22    51    49   am
    23    63    64    1
    24    63    65    1
    25    50    49    2
    26    14    13    2
    27    49    48    1
    28     6     5    1
    29     6     7    1
    30     5     2    1
    31    15    13   am
    32    13    12    1
    33     7     1    1
    34    48    47    1
    35     2     3    1
    36     2     1    1
    37    12     9    1
    38     4     3    2
    39     3     8   am
    40     8     9    1
    41     9    10    1
    42    10    11    2
    43    10    16   am
    44    29    30    1
    45    29    28    1
    46    31    30    1
    47    31    32    2
    48    34    32    1
    49    23    21    1
    50    32    33    1
    51    16    17    1
    52    28    25    1
    53    21    20    1
    54    21    22    1
    55    17    20    1
    56    17    18    1
    57    25    24    1
    58    25    26    1
    59    18    19    2
    60    27    26    2
    61    26    35   am
    62    35    36    1
    63    42    40    1
    64    36    39    1
    65    36    37    1
    66    40    39    1
    67    40    41    1
    68    37    43   am
    69    37    38    2
    70    43    44    1
    71    45    44    1
    72    45    46    2
