@<TRIPOS>MOLECULE
tmp/2y7fC00.pdb
 135 125 0 0 0
SMALL
GASTEIGER

@<TRIPOS>ATOM
      1  N         -5.1860  -37.4680   56.5760 N.3    16  GLU16      -0.1245
      2  CA        -5.2100  -38.9290   56.6070 C.3    16  GLU16       0.1567
      3  C         -4.0170  -39.5500   57.3360 C.2    16  GLU16       0.2260
      4  O         -4.1850  -40.5410   58.0500 O.2    16  GLU16      -0.2867
      5  CB        -5.2530  -39.4720   55.1640 C.3    16  GLU16       0.0388
      6  CG        -6.5060  -39.1080   54.3580 C.3    16  GLU16       0.1160
      7  CD        -6.4690  -37.8020   53.5790 C.2    16  GLU16       0.3649
      8  OE1       -5.4070  -37.4810   52.9990 O.co2  16  GLU16      -0.2457
      9  OE2       -7.5030  -37.0960   53.5380 O.co2  16  GLU16      -0.2457
     10  N          1.4640  -26.0230   53.0020 N.3    48  HIS48      -0.1241
     11  CA         0.0720  -26.4250   52.7590 C.3    48  HIS48       0.1621
     12  C         -0.4090  -26.9600   54.0810 C.2    48  HIS48       0.2264
     13  O          0.1200  -27.9750   54.5680 O.2    48  HIS48      -0.2867
     14  CB        -0.0470  -27.4540   51.6110 C.3    48  HIS48       0.0745
     15  CG        -1.4270  -28.0450   51.5130 C.ar   48  HIS48       0.0817
     16  ND1       -2.4890  -27.3180   51.0130 N.ar   48  HIS48      -0.2268
     17  CD2       -1.8800  -29.2570   51.9240 C.ar   48  HIS48       0.1154
     18  CE1       -3.5410  -28.1180   51.0940 C.ar   48  HIS48       0.1986
     19  NE2       -3.2210  -29.3040   51.6240 N.ar   48  HIS48      -0.2212
     20  N         -3.0940  -28.3070   56.9710 N.3    50  HIS50      -0.1241
     21  CA        -4.2370  -28.9290   57.6350 C.3    50  HIS50       0.1621
     22  C         -3.9200  -28.8410   59.1000 C.2    50  HIS50       0.2264
     23  O         -2.7350  -28.8910   59.4660 O.2    50  HIS50      -0.2867
     24  CB        -4.4590  -30.4030   57.2410 C.3    50  HIS50       0.0745
     25  CG        -4.9630  -30.6370   55.8530 C.ar   50  HIS50       0.0817
     26  ND1       -6.2080  -31.2080   55.6200 N.ar   50  HIS50      -0.2268
     27  CD2       -4.3210  -30.4900   54.6740 C.ar   50  HIS50       0.1154
     28  CE1       -6.2960  -31.3430   54.3060 C.ar   50  HIS50       0.1986
     29  NE2       -5.1830  -30.9280   53.7000 N.ar   50  HIS50      -0.2212
     30  N         -5.8330  -25.4140   53.7730 N.3    84  SER84      -0.1217
     31  CA        -6.6280  -26.3580   52.9870 C.3    84  SER84       0.1889
     32  C         -8.1100  -26.0820   53.1470 C.2    84  SER84       0.2288
     33  O         -8.5640  -25.9630   54.2850 O.2    84  SER84      -0.2866
     34  CB        -6.3540  -27.7780   53.4650 C.3    84  SER84       0.2089
     35  OG        -7.3040  -28.6710   52.8900 O.3    84  SER84      -0.2183
     36  N         -9.9700  -28.3640   51.6020 N.3    86  GLY86      -0.1210
     37  CA       -10.3150  -29.7540   51.3090 C.3    86  GLY86       0.1956
     38  C        -10.6770  -30.4860   52.5850 C.2    86  GLY86       0.2612
     39  O        -11.7240  -31.1270   52.6690 O.2    86  GLY86      -0.2717
     40  N         -9.8110  -30.3580   53.5890 N.am   87  GLY87      -0.1956
     41  CA       -10.0130  -30.9990   54.8850 C.3    87  GLY87       0.1869
     42  C        -10.0680  -32.5140   54.7880 C.2    87  GLY87       0.2309
     43  O         -9.4910  -33.1130   53.8600 O.2    87  GLY87      -0.2863
     44  N        -12.0620  -36.0900   54.0980 N.3    89  VAL89      -0.1245
     45  CA       -13.1810  -36.5460   53.2420 C.3    89  VAL89       0.1561
     46  C        -14.4330  -36.6730   54.1110 C.2    89  VAL89       0.2260
     47  O        -14.3610  -37.1890   55.2280 O.2    89  VAL89      -0.2867
     48  CB       -12.8700  -37.8820   52.4920 C.3    89  VAL89       0.0252
     49  CG1      -14.0990  -38.4620   51.7740 C.3    89  VAL89       0.0019
     50  CG2      -11.7400  -37.6830   51.5070 C.3    89  VAL89       0.0019
     51  N         -6.4590  -23.6310   49.2140 N.3   108  THR108     -0.1218
     52  CA        -6.7690  -24.5450   48.1030 C.3   108  THR108      0.1862
     53  C         -8.2430  -24.4410   47.7380 C.2   108  THR108      0.2287
     54  O         -9.0840  -24.1430   48.5810 O.2   108  THR108     -0.2866
     55  CB        -6.3650  -25.9850   48.4240 C.3   108  THR108      0.1770
     56  OG1       -7.0940  -26.4240   49.5770 O.3   108  THR108     -0.2211
     57  CG2       -4.8440  -26.1330   48.6350 C.3   108  THR108      0.0375
     58  N        -10.7580  -26.9730   45.6060 N.3   110  ASN110     -0.1240
     59  CA       -10.9140  -28.2510   44.9020 C.3   110  ASN110      0.1653
     60  C        -11.9240  -28.0930   43.7760 C.2   110  ASN110      0.2266
     61  O        -13.0420  -27.6120   43.9930 O.2   110  ASN110     -0.2867
     62  CB       -11.2680  -29.3550   45.8770 C.3   110  ASN110      0.1155
     63  CG       -10.0560  -29.6620   46.7330 C.2   110  ASN110      0.2627
     64  OD1       -9.1690  -30.4280   46.3370 O.2   110  ASN110     -0.2716
     65  ND2       -9.9500  -28.9970   47.8770 N.am  110  ASN110     -0.0877
     66  N        -12.6100  -41.4330   46.1720 N.3   116  PHE116     -0.1241
     67  CA       -11.3480  -41.2030   46.8790 C.3   116  PHE116      0.1605
     68  C        -11.1840  -42.3550   47.8360 C.2   116  PHE116      0.2264
     69  O        -11.8580  -42.3960   48.8710 O.2   116  PHE116     -0.2867
     70  CB       -11.4650  -39.8370   47.6020 C.3   116  PHE116      0.0534
     71  CG       -10.1720  -39.1770   48.0270 C.ar  116  PHE116     -0.0203
     72  CD1       -9.4530  -39.6550   49.1170 C.ar  116  PHE116     -0.0042
     73  CD2       -9.7220  -38.0210   47.3940 C.ar  116  PHE116     -0.0042
     74  CE1       -8.2740  -39.0160   49.5440 C.ar  116  PHE116     -0.0003
     75  CE2       -8.5390  -37.3830   47.8190 C.ar  116  PHE116     -0.0003
     76  CZ        -7.8300  -37.8890   48.8970 C.ar  116  PHE116     -0.0000
     77  N        -14.8880  -37.9010   47.5890 N.3   121  PHE121     -0.1241
     78  CA       -14.5270  -36.5400   47.9670 C.3   121  PHE121      0.1605
     79  C        -15.4640  -35.6310   47.1790 C.2   121  PHE121      0.2264
     80  O        -15.2920  -35.4730   45.9740 O.2   121  PHE121     -0.2867
     81  CB       -13.0450  -36.2670   47.6720 C.3   121  PHE121      0.0534
     82  CG       -12.5870  -34.8420   47.8950 C.ar  121  PHE121     -0.0203
     83  CD1      -13.0210  -34.1120   49.0070 C.ar  121  PHE121     -0.0042
     84  CD2      -11.6680  -34.2530   47.0390 C.ar  121  PHE121     -0.0042
     85  CE1      -12.5610  -32.8190   49.2370 C.ar  121  PHE121     -0.0003
     86  CE2      -11.2070  -32.9590   47.2730 C.ar  121  PHE121     -0.0003
     87  CZ       -11.6500  -32.2490   48.3710 C.ar  121  PHE121     -0.0000
     88  N         -7.0650  -27.1280   42.8490 N.3   145  GLU145     -0.1245
     89  CA        -6.6810  -28.5520   42.8720 C.3   145  GLU145      0.1567
     90  C         -7.4140  -29.3350   41.8020 C.2   145  GLU145      0.2260
     91  O         -8.6400  -29.3850   41.8240 O.2   145  GLU145     -0.2867
     92  CB        -6.9600  -29.1940   44.2560 C.3   145  GLU145      0.0388
     93  CG        -6.4460  -28.3720   45.4350 C.3   145  GLU145      0.1160
     94  CD        -4.9570  -28.1220   45.3760 C.2   145  GLU145      0.3649
     95  OE1       -4.2190  -29.0600   45.0150 O.co2 145  GLU145     -0.2457
     96  OE2       -4.5360  -26.9700   45.6160 O.co2 145  GLU145     -0.2457
     97  N         -7.6450  -33.1260   39.8240 N.3   147  TYR147     -0.1241
     98  CA        -7.3300  -34.5520   39.9850 C.3   147  TYR147      0.1605
     99  C         -7.5280  -35.3180   38.6930 C.2   147  TYR147      0.2264
    100  O         -7.2010  -36.5010   38.6420 O.2   147  TYR147     -0.2867
    101  CB        -8.2730  -35.1560   41.0600 C.3   147  TYR147      0.0534
    102  CG        -8.1420  -34.5210   42.4260 C.ar  147  TYR147     -0.0201
    103  CD1       -8.7700  -33.3140   42.7180 C.ar  147  TYR147     -0.0009
    104  CD2       -7.4040  -35.1340   43.4300 C.ar  147  TYR147     -0.0009
    105  CE1       -8.6330  -32.7170   43.9670 C.ar  147  TYR147      0.0417
    106  CE2       -7.2890  -34.5610   44.6940 C.ar  147  TYR147      0.0417
    107  CZ        -7.8930  -33.3440   44.9520 C.ar  147  TYR147      0.1957
    108  OH        -7.7460  -32.7560   46.1820 O.3   147  TYR147     -0.2866
    109  N         -3.0460  -32.9100   41.2900 N.3   174  VAL174     -0.1245
    110  CA        -2.9550  -33.8360   42.4260 C.3   174  VAL174      0.1561
    111  C         -3.0670  -35.2110   41.8310 C.2   174  VAL174      0.2260
    112  O         -4.1590  -35.6300   41.4480 O.2   174  VAL174     -0.2867
    113  CB        -3.9920  -33.5530   43.5480 C.3   174  VAL174      0.0252
    114  CG1       -3.7620  -34.4720   44.7610 C.3   174  VAL174      0.0019
    115  CG2       -3.9310  -32.0880   43.9800 C.3   174  VAL174      0.0019
    116  N          5.0350  -29.9100   45.0770 N.3   228  ARG228     -0.1245
    117  CA         4.5810  -30.1220   46.4430 C.3   228  ARG228      0.1563
    118  C          5.1270  -31.4650   46.9530 C.2   228  ARG228      0.2260
    119  O          5.1540  -32.4570   46.2170 O.2   228  ARG228     -0.2867
    120  CB         3.0480  -30.0970   46.5210 C.3   228  ARG228      0.0307
    121  CG         2.5240  -30.2720   47.9340 C.3   228  ARG228      0.0489
    122  CD         1.0440  -30.0290   47.9750 C.3   228  ARG228      0.2205
    123  NE         0.3270  -31.2120   48.4610 N.pl3 228  ARG228     -0.0865
    124  CZ        -0.9710  -31.2180   48.7360 C.cat 228  ARG228      0.5346
    125  NH1       -1.6960  -30.1200   48.5670 N.pl3 228  ARG228      0.1354
    126  NH2       -1.5530  -32.3190   49.1930 N.pl3 228  ARG228      0.1354
    127  N          1.6300  -35.3900   54.1630 N.3   232  GLU232     -0.1245
    128  CA         0.2380  -35.4880   53.7640 C.3   232  GLU232      0.1567
    129  C          0.0890  -36.4220   52.5540 C.2   232  GLU232      0.2260
    130  O         -0.8590  -37.2200   52.4850 O.2   232  GLU232     -0.2867
    131  CB        -0.2750  -34.0960   53.3970 C.3   232  GLU232      0.0388
    132  CG        -1.6330  -34.1280   52.7160 C.3   232  GLU232      0.1160
    133  CD        -2.2880  -32.7650   52.6310 C.2   232  GLU232      0.3649
    134  OE1       -1.8250  -31.8280   53.3220 O.co2 232  GLU232     -0.2457
    135  OE2       -3.3040  -32.6570   51.9160 O.co2 232  GLU232     -0.2457
@<TRIPOS>BOND
     1   100    99    2
     2    99    98    1
     3    97    98    1
     4    98   101    1
     5   101   102    1
     6   109   110    1
     7   112   111    2
     8    90    91    2
     9    90    89    1
    10   111   110    1
    11   102   103   ar
    12   102   104   ar
    13   110   113    1
    14   103   105   ar
    15    88    89    1
    16    89    92    1
    17   104   106   ar
    18   113   115    1
    19   113   114    1
    20    60    61    2
    21    60    59    1
    22   105   107   ar
    23    92    93    1
    24   106   107   ar
    25    59    58    1
    26    59    62    1
    27   107   108    1
    28    95    94   ar
    29   116   117    1
    30    94    93    1
    31    94    96   ar
    32    62    63    1
    33    80    79    2
    34    66    67    1
    35   119   118    2
    36    64    63    2
    37   117   120    1
    38   117   118    1
    39   120   121    1
    40    63    65   am
    41    67    70    1
    42    67    68    1
    43    84    86   ar
    44    84    82   ar
    45    79    78    1
    46    86    87   ar
    47    73    75   ar
    48    73    71   ar
    49    77    78    1
    50    70    71    1
    51    81    82    1
    52    81    78    1
    53    53    52    1
    54    53    54    2
    55    75    76   ar
    56    68    69    2
    57    82    83   ar
    58   121   122    1
    59   122   123    1
    60    71    72   ar
    61    52    55    1
    62    52    51    1
    63    87    85   ar
    64    55    57    1
    65    55    56    1
    66   123   124    2
    67   125   124    1
    68   124   126    1
    69    76    74   ar
    70    83    85   ar
    71    72    74   ar
    72    16    18   ar
    73    16    15   ar
    74    18    19   ar
    75    37    36    1
    76    37    38    1
    77    50    48    1
    78    15    14    1
    79    15    17   ar
    80    14    11    1
    81    19    17   ar
    82    49    48    1
    83   135   133   ar
    84   130   129    2
    85    48    45    1
    86   129   128    1
    87    38    39    2
    88    38    40   am
    89   133   132    1
    90   133   134   ar
    91   132   131    1
    92    11    10    1
    93    11    12    1
    94    35    34    1
    95    31    32    1
    96    31    34    1
    97    31    30    1
    98     8     7   ar
    99    32    33    2
   100    45    44    1
   101    45    46    1
   102   131   128    1
   103     9     7   ar
   104     7     6    1
   105    40    41    1
   106    29    28   ar
   107    29    27   ar
   108   128   127    1
   109    43    42    2
   110    12    13    2
   111    46    47    2
   112    28    26   ar
   113     6     5    1
   114    27    25   ar
   115    42    41    1
   116     5     2    1
   117    26    25   ar
   118    25    24    1
   119     1     2    1
   120     2     3    1
   121    20    21    1
   122    24    21    1
   123     3     4    2
   124    21    22    1
   125    22    23    2
