@<TRIPOS>MOLECULE
tmp/2y7gB00.pdb
 104 96 0 0 0
SMALL
GASTEIGER

@<TRIPOS>ATOM
      1  N         26.8290    2.5290   36.9500 N.3    47  HIS47      -0.1241
      2  CA        26.6130    1.1310   36.5840 C.3    47  HIS47       0.1621
      3  C         27.9510    0.6380   36.0550 C.2    47  HIS47       0.2264
      4  O         28.4650    1.1730   35.0530 O.2    47  HIS47      -0.2867
      5  CB        25.4830    1.0030   35.5580 C.3    47  HIS47       0.0745
      6  CG        25.3900   -0.3720   34.9640 C.ar   47  HIS47       0.0817
      7  ND1       24.8320   -1.4300   35.6620 N.ar   47  HIS47      -0.2268
      8  CD2       25.8070   -0.8150   33.7580 C.ar   47  HIS47       0.1154
      9  CE1       24.9250   -2.4740   34.8410 C.ar   47  HIS47       0.1986
     10  NE2       25.4950   -2.1480   33.6880 N.ar   47  HIS47      -0.2212
     11  N         30.7790   -2.1240   34.8030 N.3    49  HIS49      -0.1241
     12  CA        31.4530   -3.2530   34.1850 C.3    49  HIS49       0.1621
     13  C         32.9270   -2.9810   34.2930 C.2    49  HIS49       0.2264
     14  O         33.3370   -1.8070   34.2290 O.2    49  HIS49      -0.2867
     15  CB        31.1140   -3.4260   32.7120 C.3    49  HIS49       0.0745
     16  CG        29.7100   -3.8800   32.4440 C.ar   49  HIS49       0.0817
     17  ND1       29.4520   -5.1160   31.8820 N.ar   49  HIS49      -0.2268
     18  CD2       28.5400   -3.2110   32.5920 C.ar   49  HIS49       0.1154
     19  CE1       28.1370   -5.1610   31.6930 C.ar   49  HIS49       0.1986
     20  NE2       27.5410   -4.0520   32.1210 N.ar   49  HIS49      -0.2212
     21  N         27.4590   -4.7790   37.5960 N.3    83  SER83      -0.1217
     22  CA        26.7490   -5.5840   36.6350 C.3    83  SER83       0.1889
     23  C         26.8940   -7.0400   36.9190 C.2    83  SER83       0.2288
     24  O         28.0190   -7.5320   37.0870 O.2    83  SER83      -0.2866
     25  CB        27.3170   -5.3150   35.2440 C.3    83  SER83       0.2089
     26  OG        26.7530   -6.2470   34.3200 O.3    83  SER83      -0.2183
     27  N         25.2880   -8.8620   34.5640 N.3    85  GLY85      -0.1225
     28  CA        25.0820   -9.2710   33.1830 C.3    85  GLY85       0.1811
     29  C         26.4110   -9.6100   32.5270 C.2    85  GLY85       0.2280
     30  O         26.5270  -10.6210   31.8290 O.2    85  GLY85      -0.2866
     31  N         22.8820   -5.3950   39.3760 N.3   107  THR107     -0.1218
     32  CA        21.8000   -5.6950   38.4480 C.3   107  THR107      0.1862
     33  C         21.3710   -7.1640   38.5510 C.2   107  THR107      0.2287
     34  O         22.1470   -8.0400   38.9720 O.2   107  THR107     -0.2866
     35  CB        22.2210   -5.3480   37.0210 C.3   107  THR107      0.1770
     36  OG1       23.3170   -6.1650   36.6440 O.3   107  THR107     -0.2211
     37  CG2       22.5790   -3.8930   36.8540 C.3   107  THR107      0.0375
     38  N         19.3200   -9.5280   35.9000 N.3   109  ASN109     -0.1240
     39  CA        18.6480   -9.6300   34.5930 C.3   109  ASN109      0.1653
     40  C         17.5110  -10.6480   34.6580 C.2   109  ASN109      0.2266
     41  O         17.6970  -11.7650   35.1240 O.2   109  ASN109     -0.2867
     42  CB        19.6620   -9.9480   33.5020 C.3   109  ASN109      0.1155
     43  CG        20.5520   -8.7640   33.2560 C.2   109  ASN109      0.2627
     44  OD1       20.1550   -7.8150   32.5590 O.2   109  ASN109     -0.2716
     45  ND2       21.7010   -8.7200   33.9140 N.am  109  ASN109     -0.0877
     46  N         21.5650  -13.4790   24.9590 N.3   120  PHE120     -0.1241
     47  CA        21.8910  -13.1320   26.3330 C.3   120  PHE120      0.1605
     48  C         21.0850  -14.1050   27.2070 C.2   120  PHE120      0.2264
     49  O         19.8750  -13.9630   27.3560 O.2   120  PHE120     -0.2867
     50  CB        21.5550  -11.6530   26.6110 C.3   120  PHE120      0.0534
     51  CG        21.7820  -11.1990   28.0280 C.ar  120  PHE120     -0.0203
     52  CD1       22.8650  -11.6700   28.7620 C.ar  120  PHE120     -0.0042
     53  CD2       20.9130  -10.2960   28.6300 C.ar  120  PHE120     -0.0042
     54  CE1       23.0750  -11.2420   30.0660 C.ar  120  PHE120     -0.0003
     55  CE2       21.1470   -9.8380   29.9230 C.ar  120  PHE120     -0.0003
     56  CZ        22.2140  -10.3370   30.6420 C.ar  120  PHE120     -0.0000
     57  N         16.5630   -5.8350   35.6830 N.3   144  GLU144     -0.1245
     58  CA        16.6120   -5.4120   34.2660 C.3   144  GLU144      0.1567
     59  C         15.5930   -6.1510   33.4590 C.2   144  GLU144      0.2260
     60  O         15.5870   -7.3880   33.4430 O.2   144  GLU144     -0.2867
     61  CB        17.9970   -5.6670   33.6670 C.3   144  GLU144      0.0388
     62  CG        19.1200   -5.2220   34.5720 C.3   144  GLU144      0.1160
     63  CD        19.1510   -3.7290   34.7840 C.2   144  GLU144      0.3649
     64  OE1       18.6820   -2.9810   33.9010 O.co2 144  GLU144     -0.2457
     65  OE2       19.6480   -3.3050   35.8490 O.co2 144  GLU144     -0.2457
     66  N         13.6650   -6.2860   29.6440 N.3   146  TYR146     -0.1241
     67  CA        13.8600   -5.9490   28.2150 C.3   146  TYR146      0.1605
     68  C         12.6130   -6.1650   27.4050 C.2   146  TYR146      0.2264
     69  O         12.5870   -5.8220   26.2200 O.2   146  TYR146     -0.2867
     70  CB        14.9590   -6.8680   27.6300 C.3   146  TYR146      0.0534
     71  CG        16.3050   -6.7490   28.3130 C.ar  146  TYR146     -0.0201
     72  CD1       16.5580   -7.4100   29.5180 C.ar  146  TYR146     -0.0009
     73  CD2       17.3370   -6.0080   27.7380 C.ar  146  TYR146     -0.0009
     74  CE1       17.7920   -7.3090   30.1520 C.ar  146  TYR146      0.0417
     75  CE2       18.5960   -5.9290   28.3520 C.ar  146  TYR146      0.0417
     76  CZ        18.8110   -6.5880   29.5570 C.ar  146  TYR146      0.1957
     77  OH        20.0310   -6.4600   30.1860 O.3   146  TYR146     -0.2866
     78  N         15.1590   -1.7190   29.8370 N.3   173  VAL173     -0.1245
     79  CA        16.3050   -1.5900   28.9510 C.3   173  VAL173      0.1561
     80  C         15.7680   -1.7020   27.5470 C.2   173  VAL173      0.2260
     81  O         15.4020   -2.7920   27.1020 O.2   173  VAL173     -0.2867
     82  CB        17.4040   -2.6270   29.2600 C.3   173  VAL173      0.0252
     83  CG1       18.6180   -2.3500   28.3530 C.3   173  VAL173      0.0019
     84  CG2       17.8090   -2.5780   30.7380 C.3   173  VAL173      0.0019
     85  N         19.0150    6.2650   32.8760 N.3   227  ARG227     -0.1245
     86  CA        20.3840    5.8160   32.6890 C.3   227  ARG227      0.1563
     87  C         20.9080    6.3420   31.3380 C.2   227  ARG227      0.2260
     88  O         20.1890    6.3210   30.3290 O.2   227  ARG227     -0.2867
     89  CB        20.4400    4.2940   32.7440 C.3   227  ARG227      0.0307
     90  CG        21.8560    3.7310   32.5230 C.3   227  ARG227      0.0489
     91  CD        21.8900    2.2560   32.8370 C.3   227  ARG227      0.2205
     92  NE        22.2970    1.4900   31.6770 N.pl3 227  ARG227     -0.0865
     93  CZ        22.6310    0.2070   31.7300 C.cat 227  ARG227      0.5346
     94  NH1       22.6170   -0.4420   32.8870 N.pl3 227  ARG227      0.1354
     95  NH2       23.0160   -0.4270   30.6350 N.pl3 227  ARG227      0.1354
     96  N         28.0970    2.6940   27.6050 N.3   231  GLU231     -0.1245
     97  CA        27.6640    1.3030   27.4900 C.3   231  GLU231      0.1567
     98  C         26.4490    1.1930   26.5750 C.2   231  GLU231      0.2260
     99  O         26.3090    0.2230   25.8290 O.2   231  GLU231     -0.2867
    100  CB        27.3030    0.7770   28.8780 C.3   231  GLU231      0.0388
    101  CG        26.6280   -0.5750   28.9010 C.3   231  GLU231      0.1160
    102  CD        26.5780   -1.1850   30.2820 C.2   231  GLU231      0.3649
    103  OE1       27.3430   -0.7170   31.1490 O.co2 231  GLU231     -0.2457
    104  OE2       25.8220   -2.1590   30.4990 O.co2 231  GLU231     -0.2457
@<TRIPOS>BOND
     1    46    47    1
     2    99    98    2
     3    69    68    2
     4    47    50    1
     5    47    48    1
     6    98    97    1
     7    50    51    1
     8    81    80    2
     9    48    49    2
    10    68    67    1
    11    97    96    1
    12    97   100    1
    13    80    79    1
    14    70    67    1
    15    70    71    1
    16    73    71   ar
    17    73    75   ar
    18    51    53   ar
    19    51    52   ar
    20    67    66    1
    21    71    72   ar
    22    75    76   ar
    23    83    82    1
    24    53    55   ar
    25    52    54   ar
    26   100   101    1
    27   101   102    1
    28    79    82    1
    29    79    78    1
    30    82    84    1
    31    72    74   ar
    32    76    74   ar
    33    76    77    1
    34    55    56   ar
    35    54    56   ar
    36   102   104   ar
    37   102   103   ar
    38    88    87    2
    39    95    93    1
    40    87    86    1
    41    92    93    2
    42    92    91    1
    43    19    17   ar
    44    19    20   ar
    45    93    94    1
    46    30    29    2
    47    17    16   ar
    48    20    18   ar
    49    16    18   ar
    50    16    15    1
    51    90    89    1
    52    90    91    1
    53    29    28    1
    54    44    43    2
    55    86    89    1
    56    86    85    1
    57    15    12    1
    58    28    27    1
    59    43    42    1
    60    43    45   am
    61    60    59    2
    62    59    58    1
    63    42    39    1
    64    61    58    1
    65    61    62    1
    66    10     8   ar
    67    10     9   ar
    68     8     6   ar
    69    64    63   ar
    70    12    13    1
    71    12    11    1
    72    14    13    2
    73    58    57    1
    74    26    25    1
    75    62    63    1
    76    39    40    1
    77    39    38    1
    78    40    41    2
    79    63    65   ar
    80     9     7   ar
    81     6     5    1
    82     6     7   ar
    83     4     3    2
    84    25    22    1
    85     5     2    1
    86     3     2    1
    87     2     1    1
    88    22    23    1
    89    22    21    1
    90    36    35    1
    91    37    35    1
    92    23    24    2
    93    35    32    1
    94    32    33    1
    95    32    31    1
    96    33    34    2
