@<TRIPOS>MOLECULE
tmp/2y7hC00.pdb
 210 208 0 0 0
SMALL
GASTEIGER

@<TRIPOS>ATOM
      1  N         12.4560    1.0490  -10.9280 N.3   148  GLN148     -0.1231
      2  CA        13.4300   -0.0020  -10.9860 C.3   148  GLN148      0.1698
      3  C         14.6600    0.5700  -11.6190 C.2   148  GLN148      0.2592
      4  O         15.7760    0.3460  -11.1500 O.2   148  GLN148     -0.2718
      5  CB        12.9810   -1.1690  -11.8800 C.3   148  GLN148      0.0381
      6  CG        11.6720   -1.8230  -11.4320 C.3   148  GLN148      0.0905
      7  CD        11.9200   -2.5250  -10.1070 C.2   148  GLN148      0.2608
      8  OE1       12.9590   -3.1490   -9.9030 O.2   148  GLN148     -0.2717
      9  NE2       10.9380   -2.4170   -9.1750 N.am  148  GLN148     -0.0878
     10  N         14.4800    1.3540  -12.6920 N.am  149  TYR149     -0.1962
     11  CA        15.5890    1.9570  -13.3650 C.3   149  TYR149      0.1771
     12  C         16.2370    2.9970  -12.4940 C.2   149  TYR149      0.2620
     13  O         17.4560    3.1370  -12.5000 O.2   149  TYR149     -0.2715
     14  CB        15.1160    2.6230  -14.6520 C.3   149  TYR149      0.0574
     15  CG        14.2000    1.6830  -15.3980 C.ar  149  TYR149     -0.0198
     16  CD1       14.7390    0.6860  -16.2200 C.ar  149  TYR149     -0.0009
     17  CD2       12.8110    1.8090  -15.2680 C.ar  149  TYR149     -0.0009
     18  CE1       13.8880   -0.1850  -16.9120 C.ar  149  TYR149      0.0417
     19  CE2       11.9620    0.9370  -15.9620 C.ar  149  TYR149      0.0417
     20  CZ        12.5010   -0.0610  -16.7830 C.ar  149  TYR149      0.1957
     21  OH        11.6760   -0.9070  -17.4550 O.3   149  TYR149     -0.2866
     22  N         15.4300    3.7390  -11.7120 N.am  150  PHE150     -0.1960
     23  CA        15.8080    4.8820  -10.9170 C.3   150  PHE150      0.1771
     24  C         17.0160    4.6610  -10.0520 C.2   150  PHE150      0.2620
     25  O         17.1960    3.6050   -9.4470 O.2   150  PHE150     -0.2715
     26  CB        14.6340    5.3360  -10.0280 C.3   150  PHE150      0.0574
     27  CG        15.0450    6.4710   -9.1590 C.ar  150  PHE150     -0.0200
     28  CD1       15.1270    7.7510   -9.6550 C.ar  150  PHE150     -0.0042
     29  CD2       15.3230    6.2490   -7.8290 C.ar  150  PHE150     -0.0042
     30  CE1       15.5000    8.7920   -8.8380 C.ar  150  PHE150     -0.0003
     31  CE2       15.6960    7.2870   -7.0090 C.ar  150  PHE150     -0.0003
     32  CZ        15.7870    8.5620   -7.5130 C.ar  150  PHE150     -0.0000
     33  N         17.8960    5.6920  -10.0090 N.am  151  THR151     -0.1951
     34  CA        19.0820    5.6810   -9.1970 C.3   151  THR151      0.1897
     35  C         19.2530    7.0710   -8.6580 C.2   151  THR151      0.2313
     36  O         18.8610    8.0440   -9.3000 O.2   151  THR151     -0.2863
     37  CB        20.3180    5.3310   -9.9710 C.3   151  THR151      0.1794
     38  OG1       20.1620    4.0600  -10.5840 O.3   151  THR151     -0.2208
     39  CG2       21.5150    5.3040   -9.0070 C.3   151  THR151      0.0378
     40  N         25.1290    8.6200   -8.4710 N.3   156  ILE156     -0.1245
     41  CA        25.8030    8.4580   -9.7250 C.3   156  ILE156      0.1561
     42  C         26.9730    9.3860   -9.7620 C.2   156  ILE156      0.2260
     43  O         28.0690    9.0010  -10.1640 O.2   156  ILE156     -0.2867
     44  CB        24.9250    8.7760  -10.9000 C.3   156  ILE156      0.0252
     45  CG1       23.7250    7.8140  -10.9390 C.3   156  ILE156      0.0019
     46  CG2       25.7890    8.7300  -12.1700 C.3   156  ILE156      0.0019
     47  CD1       22.6340    8.2350  -11.9210 C.3   156  ILE156      0.0001
     48  N         26.2220   -2.3720  -18.5340 N.3   174  PRO174     -0.2102
     49  CA        25.4300   -3.5030  -18.9320 C.3   174  PRO174      0.1504
     50  C         23.9830   -3.1880  -18.7840 C.2   174  PRO174      0.2576
     51  O         23.2030   -3.5580  -19.6600 O.2   174  PRO174     -0.2718
     52  CB        25.9130   -4.6650  -18.0670 C.3   174  PRO174      0.0282
     53  CG        27.3700   -4.2890  -17.7310 C.3   174  PRO174      0.0208
     54  CD        27.3960   -2.7510  -17.7670 C.3   174  PRO174      0.0893
     55  N         23.5940   -2.5210  -17.6800 N.am  175  ALA175     -0.1966
     56  CA        22.2220   -2.1330  -17.5780 C.3   175  ALA175      0.1728
     57  C         22.2420   -0.6570  -17.7820 C.2   175  ALA175      0.2616
     58  O         22.2820    0.1140  -16.8250 O.2   175  ALA175     -0.2715
     59  CB        21.6090   -2.4010  -16.1930 C.3   175  ALA175      0.0334
     60  N         22.2090   -0.2330  -19.0570 N.am  176  ALA176     -0.1963
     61  CA        22.2890    1.1600  -19.3680 C.3   176  ALA176      0.1728
     62  C         21.0650    1.8680  -18.8920 C.2   176  ALA176      0.2617
     63  O         21.1560    2.9060  -18.2400 O.2   176  ALA176     -0.2715
     64  CB        22.4130    1.4210  -20.8790 C.3   176  ALA176      0.0334
     65  N         19.8790    1.2990  -19.1730 N.am  177  GLY177     -0.1940
     66  CA        18.6730    1.9810  -18.8070 C.3   177  GLY177      0.2014
     67  C         18.6380    3.2520  -19.6050 C.2   177  GLY177      0.2639
     68  O         18.7620    3.2380  -20.8290 O.2   177  GLY177     -0.2714
     69  N         18.4380    4.3880  -18.9090 N.am  178  THR178     -0.1950
     70  CA        18.3860    5.6980  -19.4980 C.3   178  THR178      0.1897
     71  C         19.7710    6.1480  -19.8490 C.2   178  THR178      0.2313
     72  O         19.9430    7.1840  -20.4860 O.2   178  THR178     -0.2863
     73  CB        17.7310    6.7670  -18.6670 C.3   178  THR178      0.1794
     74  OG1       18.4990    7.0710  -17.5150 O.3   178  THR178     -0.2208
     75  CG2       16.3260    6.2760  -18.2780 C.3   178  THR178      0.0378
     76  N         22.0710    6.8370  -17.4770 N.3   180  GLY180     -0.1210
     77  CA        22.3990    7.8400  -16.5050 C.3   180  GLY180      0.1956
     78  C         23.8790    7.8650  -16.2380 C.2   180  GLY180      0.2611
     79  O         24.4840    8.9350  -16.2070 O.2   180  GLY180     -0.2717
     80  N         24.5060    6.6870  -16.0350 N.am  181  PHE181     -0.1976
     81  CA        25.9090    6.6410  -15.7120 C.3   181  PHE181      0.1639
     82  C         26.7290    7.1320  -16.8610 C.2   181  PHE181      0.2290
     83  O         27.6610    7.9120  -16.6750 O.2   181  PHE181     -0.2864
     84  CB        26.4190    5.2320  -15.3560 C.3   181  PHE181      0.0560
     85  CG        25.9790    4.9090  -13.9690 C.ar  181  PHE181     -0.0200
     86  CD1       24.7250    4.4010  -13.7190 C.ar  181  PHE181     -0.0042
     87  CD2       26.8360    5.1160  -12.9120 C.ar  181  PHE181     -0.0042
     88  CE1       24.3350    4.1070  -12.4320 C.ar  181  PHE181     -0.0003
     89  CE2       26.4520    4.8230  -11.6250 C.ar  181  PHE181     -0.0003
     90  CZ        25.1980    4.3190  -11.3840 C.ar  181  PHE181     -0.0000
     91  N         23.9390   -1.1680  -22.9300 N.3   215  LEU215     -0.1231
     92  CA        23.0700   -2.1570  -23.5020 C.3   215  LEU215      0.1693
     93  C         21.7630   -2.1050  -22.7670 C.2   215  LEU215      0.2592
     94  O         21.7400   -2.0120  -21.5410 O.2   215  LEU215     -0.2718
     95  CB        23.6300   -3.5830  -23.3730 C.3   215  LEU215      0.0284
     96  CG        22.7420   -4.6640  -24.0120 C.3   215  LEU215      0.0019
     97  CD1       22.6290   -4.4570  -25.5310 C.3   215  LEU215      0.0001
     98  CD2       23.2300   -6.0740  -23.6430 C.3   215  LEU215      0.0001
     99  N         20.6300   -2.1480  -23.5030 N.am  216  GLU216     -0.1966
    100  CA        19.3470   -2.1140  -22.8530 C.3   216  GLU216      0.1733
    101  C         18.4650   -3.1750  -23.4310 C.2   216  GLU216      0.2616
    102  O         18.3600   -3.3200  -24.6470 O.2   216  GLU216     -0.2715
    103  CB        18.6100   -0.7730  -23.0060 C.3   216  GLU216      0.0429
    104  CG        17.1720   -0.8110  -22.4870 C.3   216  GLU216      0.1163
    105  CD        17.2000   -1.1380  -21.0000 C.2   216  GLU216      0.3649
    106  OE1       18.0170   -0.5180  -20.2690 O.co2 216  GLU216     -0.2457
    107  OE2       16.4070   -2.0210  -20.5800 O.co2 216  GLU216     -0.2457
    108  N         17.8360   -3.9760  -22.5450 N.am  217  LEU217     -0.1963
    109  CA        16.9400   -5.0190  -22.9570 C.3   217  LEU217      0.1728
    110  C         15.6850   -4.4460  -23.5320 C.2   217  LEU217      0.2616
    111  O         15.2770   -4.8120  -24.6340 O.2   217  LEU217     -0.2715
    112  CB        16.5070   -5.9200  -21.7890 C.3   217  LEU217      0.0311
    113  CG        15.5460   -7.0460  -22.2140 C.3   217  LEU217      0.0022
    114  CD1       16.2500   -8.0730  -23.1130 C.3   217  LEU217      0.0001
    115  CD2       14.8480   -7.6780  -20.9990 C.3   217  LEU217      0.0001
    116  N         15.0480   -3.5020  -22.8100 N.am  218  VAL218     -0.1977
    117  CA        13.7840   -3.0010  -23.2660 C.3   218  VAL218      0.1596
    118  C         14.0420   -2.0160  -24.3530 C.2   218  VAL218      0.2287
    119  O         14.8940   -1.1360  -24.2490 O.2   218  VAL218     -0.2864
    120  CB        12.9940   -2.3130  -22.1900 C.3   218  VAL218      0.0276
    121  CG1       11.6930   -1.7670  -22.8030 C.3   218  VAL218      0.0022
    122  CG2       12.7690   -3.3080  -21.0390 C.3   218  VAL218      0.0022
    123  N         19.7200   -5.1270  -26.6060 N.3   247  GLY247     -0.1210
    124  CA        20.0410   -6.5240  -26.5380 C.3   247  GLY247      0.1956
    125  C         19.9750   -6.9790  -25.1140 C.2   247  GLY247      0.2612
    126  O         19.7250   -6.1930  -24.2010 O.2   247  GLY247     -0.2717
    127  N         20.2170   -8.2890  -24.9030 N.am  248  ASN248     -0.1960
    128  CA        20.1710   -8.8840  -23.5970 C.3   248  ASN248      0.1819
    129  C         21.5800   -9.0630  -23.1330 C.2   248  ASN248      0.2622
    130  O         22.4220   -9.5910  -23.8570 O.2   248  ASN248     -0.2715
    131  CB        19.5250  -10.2820  -23.6070 C.3   248  ASN248      0.1195
    132  CG        19.5130  -10.8410  -22.1910 C.2   248  ASN248      0.2630
    133  OD1       19.7810  -10.1380  -21.2170 O.2   248  ASN248     -0.2716
    134  ND2       19.2010  -12.1590  -22.0720 N.am  248  ASN248     -0.0877
    135  N         21.8750   -8.5810  -21.9110 N.am  249  THR249     -0.1937
    136  CA        23.1880   -8.7230  -21.3490 C.3   249  THR249      0.2028
    137  C         23.4320  -10.1730  -21.0680 C.2   249  THR249      0.2642
    138  O         24.4770  -10.7240  -21.4010 O.2   249  THR249     -0.2714
    139  CB        23.3290   -7.9810  -20.0530 C.3   249  THR249      0.1808
    140  OG1       23.0290   -6.6050  -20.2410 O.3   249  THR249     -0.2208
    141  CG2       24.7740   -8.1370  -19.5480 C.3   249  THR249      0.0379
    142  N         22.4310  -10.8340  -20.4660 N.am  250  LEU250     -0.1977
    143  CA        22.5030  -12.2040  -20.0530 C.3   250  LEU250      0.1596
    144  C         22.5610  -13.1110  -21.2410 C.2   250  LEU250      0.2287
    145  O         22.9230  -14.2750  -21.1040 O.2   250  LEU250     -0.2864
    146  CB        21.3560  -12.6250  -19.1240 C.3   250  LEU250      0.0297
    147  CG        21.4420  -11.8990  -17.7680 C.3   250  LEU250      0.0022
    148  CD1       20.3860  -12.4140  -16.7770 C.3   250  LEU250      0.0001
    149  CD2       22.8720  -11.9490  -17.2070 C.3   250  LEU250      0.0001
    150  N         24.0490   -0.0560  -12.3520 N.3   266  ASN266     -0.1226
    151  CA        23.1370   -0.4370  -11.3180 C.3   266  ASN266      0.1770
    152  C         22.2360   -1.4290  -11.9850 C.2   266  ASN266      0.2439
    153  O         21.3510   -1.0610  -12.7560 O.2   266  ASN266     -0.2733
    154  CB        22.2690    0.7390  -10.8360 C.3   266  ASN266      0.1168
    155  CG        21.5580    0.3570   -9.5450 C.2   266  ASN266      0.2627
    156  OD1       21.6030   -0.7890   -9.1020 O.2   266  ASN266     -0.2716
    157  ND2       20.8720    1.3520   -8.9230 N.am  266  ASN266     -0.0877
    158  N         22.4530   -2.6850  -11.7230 N.am  267  PRO267     -0.2718
    159  CA        21.6450   -3.7000  -12.3430 C.3   267  PRO267      0.1520
    160  C         20.3160   -3.7690  -11.6740 C.2   267  PRO267      0.2440
    161  O         20.1690   -3.2390  -10.5730 O.2   267  PRO267     -0.2731
    162  CB        22.4560   -4.9970  -12.2770 C.3   267  PRO267      0.0310
    163  CG        23.6280   -4.6840  -11.3270 C.3   267  PRO267      0.0237
    164  CD        23.7960   -3.1630  -11.4490 C.3   267  PRO267      0.0939
    165  N         19.3610   -4.3760  -12.3130 N.am  268  PRO268     -0.2716
    166  CA        18.0460   -4.4840  -11.7530 C.3   268  PRO268      0.1536
    167  C         18.0340   -5.4400  -10.6080 C.2   268  PRO268      0.2598
    168  O         18.7880   -6.4120  -10.6150 O.2   268  PRO268     -0.2715
    169  CB        17.1210   -4.8790  -12.9080 C.3   268  PRO268      0.0310
    170  CG        18.0710   -5.2920  -14.0500 C.3   268  PRO268      0.0237
    171  CD        19.3540   -4.4990  -13.7590 C.3   268  PRO268      0.0939
    172  N         17.1730   -5.1610   -9.6150 N.am  269  PHE269     -0.1974
    173  CA        17.0070   -5.9530   -8.4330 C.3   269  PHE269      0.1639
    174  C         15.8530   -6.8650   -8.6930 C.2   269  PHE269      0.2290
    175  O         15.0690   -6.6470   -9.6150 O.2   269  PHE269     -0.2864
    176  CB        16.6140   -5.0780   -7.2280 C.3   269  PHE269      0.0560
    177  CG        17.7780   -4.2350   -6.8240 C.ar  269  PHE269     -0.0200
    178  CD1       18.4380   -3.4540   -7.7470 C.ar  269  PHE269     -0.0042
    179  CD2       18.2420   -4.2630   -5.5290 C.ar  269  PHE269     -0.0042
    180  CE1       19.5150   -2.6850   -7.3720 C.ar  269  PHE269     -0.0003
    181  CE2       19.3160   -3.4930   -5.1470 C.ar  269  PHE269     -0.0003
    182  CZ        19.9540   -2.6990   -6.0700 C.ar  269  PHE269     -0.0000
    183  N         13.9290   -9.4690  -12.0640 N.3   272  ALA272     -0.1231
    184  CA        14.2430   -8.6530  -13.2070 C.3   272  ALA272      0.1694
    185  C         13.1770   -8.8360  -14.2380 C.2   272  ALA272      0.2591
    186  O         12.2360   -9.6050  -14.0500 O.2   272  ALA272     -0.2718
    187  CB        15.6200   -8.9010  -13.8630 C.3   272  ALA272      0.0304
    188  N         13.3040   -8.0900  -15.3530 N.am  273  ALA273     -0.1980
    189  CA        12.3800   -8.1380  -16.4500 C.3   273  ALA273      0.1597
    190  C         12.6530   -9.3970  -17.1970 C.2   273  ALA273      0.2287
    191  O         13.5680  -10.1380  -16.8440 O.2   273  ALA273     -0.2864
    192  CB        12.5310   -6.9680  -17.4350 C.3   273  ALA273      0.0319
    193  N         14.3170  -11.6020  -18.8730 N.3   275  THR275     -0.1218
    194  CA        15.6490  -11.7450  -19.3700 C.3   275  THR275      0.1862
    195  C         16.0520  -13.1520  -19.0900 C.2   275  THR275      0.2287
    196  O         16.3280  -13.5210  -17.9490 O.2   275  THR275     -0.2866
    197  CB        16.6420  -10.8330  -18.7100 C.3   275  THR275      0.1770
    198  OG1       16.5940  -10.9970  -17.3010 O.3   275  THR275     -0.2211
    199  CG2       16.3350   -9.3770  -19.1000 C.3   275  THR275      0.0375
    200  N         24.9150  -10.7550  -13.3600 N.3   292  PHE292     -0.1241
    201  CA        25.5020   -9.5410  -13.8530 C.3   292  PHE292      0.1605
    202  C         26.8960   -9.4230  -13.3400 C.2   292  PHE292      0.2264
    203  O         27.8020   -9.0260  -14.0720 O.2   292  PHE292     -0.2867
    204  CB        24.7620   -8.2610  -13.4200 C.3   292  PHE292      0.0534
    205  CG        23.6170   -8.0190  -14.3410 C.ar  292  PHE292     -0.0203
    206  CD1       22.4160   -8.6720  -14.1920 C.ar  292  PHE292     -0.0042
    207  CD2       23.7580   -7.1100  -15.3650 C.ar  292  PHE292     -0.0042
    208  CE1       21.3760   -8.4220  -15.0600 C.ar  292  PHE292     -0.0003
    209  CE2       22.7250   -6.8560  -16.2340 C.ar  292  PHE292     -0.0003
    210  CZ        21.5300   -7.5160  -16.0810 C.ar  292  PHE292     -0.0000
@<TRIPOS>BOND
     1   123   124    1
     2   124   125    1
     3    97    96    1
     4   125   127   am
     5   125   126    2
     6   127   128    1
     7   102   101    2
     8   111   110    2
     9   118   119    2
    10   118   117    1
    11    96    98    1
    12    96    95    1
    13   130   129    2
    14   131   128    1
    15   131   132    1
    16   128   129    1
    17   110   109    1
    18   110   116   am
    19    99   100    1
    20    99    93   am
    21    92    95    1
    22    92    91    1
    23    92    93    1
    24   101   100    1
    25   101   108   am
    26   117   116    1
    27   117   120    1
    28   129   135   am
    29   114   113    1
    30   103   100    1
    31   103   104    1
    32   109   108    1
    33   109   112    1
    34   121   120    1
    35    93    94    2
    36   104   105    1
    37   113   112    1
    38   113   115    1
    39   132   134   am
    40   132   133    2
    41   120   122    1
    42   135   136    1
    43   138   137    2
    44   136   137    1
    45   136   139    1
    46   144   145    2
    47   144   143    1
    48   137   142   am
    49   105   107   ar
    50   105   106   ar
    51    64    61    1
    52    68    67    2
    53    72    71    2
    54   142   143    1
    55   140   139    1
    56   143   146    1
    57   139   141    1
    58    71    70    1
    59    51    50    2
    60    67    69   am
    61    67    66    1
    62    70    69    1
    63    70    73    1
    64   194   195    1
    65   194   193    1
    66   194   197    1
    67    61    60    1
    68    61    62    1
    69    65    62   am
    70    65    66    1
    71   146   147    1
    72   199   197    1
    73   195   196    2
    74    60    57   am
    75    49    50    1
    76    49    48    1
    77    49    52    1
    78    62    63    2
    79    50    55   am
    80   197   198    1
    81    73    75    1
    82    73    74    1
    83    48    54    1
    84    52    53    1
    85    57    56    1
    86    57    58    2
    87   147   149    1
    88   147   148    1
    89    54    53    1
    90    55    56    1
    91    56    59    1
    92    76    77    1
    93    21    20    1
    94   192   189    1
    95   190   191    2
    96   190   189    1
    97    18    20   ar
    98    18    16   ar
    99    82    83    2
   100    82    81    1
   101    20    19   ar
   102    77    78    1
   103   189   188    1
   104    78    79    2
   105    78    80   am
   106   209   210   ar
   107   209   207   ar
   108    16    15   ar
   109   210   208   ar
   110    80    81    1
   111    19    17   ar
   112    81    84    1
   113    15    17   ar
   114    15    14    1
   115   207   205   ar
   116    84    85    1
   117   188   185   am
   118   208   206   ar
   119    14    11    1
   120   205   206   ar
   121   205   204    1
   122   185   186    2
   123   185   184    1
   124   203   202    2
   125   170   171    1
   126   170   169    1
   127    85    86   ar
   128    85    87   ar
   129   187   184    1
   130   201   204    1
   131   201   200    1
   132   201   202    1
   133   171   165    1
   134    86    88   ar
   135    11    10    1
   136    11    12    1
   137   184   183    1
   138    87    89   ar
   139   169   166    1
   140   153   152    2
   141    10     3   am
   142    13    12    2
   143    12    22   am
   144    88    90   ar
   145   150   151    1
   146   159   162    1
   147   159   158    1
   148   159   160    1
   149   165   166    1
   150   165   160   am
   151   162   163    1
   152    46    44    1
   153   152   158   am
   154   152   151    1
   155    47    45    1
   156     5     6    1
   157     5     2    1
   158   166   167    1
   159   158   164    1
   160    22    23    1
   161   160   161    2
   162    89    90   ar
   163     3     4    2
   164     3     2    1
   165   164   163    1
   166     6     7    1
   167   151   154    1
   168     2     1    1
   169    45    44    1
   170    23    24    1
   171    23    26    1
   172    44    41    1
   173   154   155    1
   174   168   167    2
   175   167   172   am
   176    38    37    1
   177    43    42    2
   178     7     8    2
   179     7     9   am
   180    24    33   am
   181    24    25    2
   182    26    27    1
   183    33    34    1
   184    37    34    1
   185    37    39    1
   186    42    41    1
   187    41    40    1
   188    28    27   ar
   189    28    30   ar
   190   172   173    1
   191   175   174    2
   192   155   156    2
   193   155   157   am
   194    36    35    2
   195    34    35    1
   196    27    29   ar
   197    30    32   ar
   198   174   173    1
   199   173   176    1
   200    29    31   ar
   201   178   180   ar
   202   178   177   ar
   203    32    31   ar
   204   180   182   ar
   205   176   177    1
   206   177   179   ar
   207   182   181   ar
   208   179   181   ar
