@<TRIPOS>MOLECULE
tmp/2y7iA00.pdb
 142 135 0 0 0
SMALL
GASTEIGER

@<TRIPOS>ATOM
      1  N          1.9510   -7.1700   30.8910 N.3    13  SER13      -0.1217
      2  CA         0.7150   -7.6390   31.5010 C.3    13  SER13       0.1889
      3  C         -0.4430   -6.9400   30.8170 C.2    13  SER13       0.2288
      4  O         -0.7420   -5.7770   31.1170 O.2    13  SER13      -0.2866
      5  CB         0.6850   -7.3270   32.9940 C.3    13  SER13       0.2089
      6  OG        -0.4670   -7.9100   33.5760 O.3    13  SER13      -0.2183
      7  N         -3.5490   -6.3930   30.8090 N.3    15  THR15      -0.1203
      8  CA        -4.7400   -6.2730   31.6490 C.3    15  THR15       0.1994
      9  C         -5.1590   -4.8090   31.7740 C.2    15  THR15       0.2617
     10  O         -6.0400   -4.4640   32.5800 O.2    15  THR15      -0.2717
     11  CB        -4.4010   -6.7670   33.0900 C.3    15  THR15       0.1784
     12  OG1       -3.2260   -6.0790   33.5710 O.3    15  THR15      -0.2211
     13  CG2       -4.1240   -8.2560   33.0910 C.3    15  THR15       0.0376
     14  N         -4.5300   -3.9470   30.9720 N.am   16  TYR16      -0.1975
     15  CA        -4.4400   -2.5220   31.2920 C.3    16  TYR16       0.1639
     16  C         -4.6100   -1.5950   30.0800 C.2    16  TYR16       0.2290
     17  O         -3.7190   -0.8160   29.7720 O.2    16  TYR16      -0.2864
     18  CB        -3.0790   -2.2670   31.9870 C.3    16  TYR16       0.0560
     19  CG        -3.0920   -1.2290   33.1060 C.ar   16  TYR16      -0.0198
     20  CD1       -4.0250   -1.2990   34.1410 C.ar   16  TYR16      -0.0009
     21  CD2       -2.1470   -0.1930   33.1380 C.ar   16  TYR16      -0.0009
     22  CE1       -4.0410   -0.3520   35.1700 C.ar   16  TYR16       0.0417
     23  CE2       -2.1540    0.7590   34.1600 C.ar   16  TYR16       0.0417
     24  CZ        -3.1030    0.6670   35.1760 C.ar   16  TYR16       0.1957
     25  OH        -3.1190    1.5880   36.2050 O.3    16  TYR16      -0.2866
     26  N         -1.7500   -1.7050   27.3730 N.3    20  GLU20      -0.1245
     27  CA        -1.6710   -3.0340   26.7620 C.3    20  GLU20       0.1567
     28  C         -2.8760   -3.8370   27.1880 C.2    20  GLU20       0.2260
     29  O         -3.2600   -3.8250   28.3630 O.2    20  GLU20      -0.2867
     30  CB        -0.3910   -3.7900   27.1520 C.3    20  GLU20       0.0388
     31  CG        -0.0910   -3.7760   28.6580 C.3    20  GLU20       0.1160
     32  CD         0.8430   -2.6600   29.0340 C.2    20  GLU20       0.3649
     33  OE1        1.6860   -2.3190   28.1790 O.co2  20  GLU20      -0.2457
     34  OE2        0.7410   -2.1230   30.1660 O.co2  20  GLU20      -0.2457
     35  N          1.4290   -8.6900   36.2680 N.3    54  PHE54      -0.1241
     36  CA         2.3030   -7.5080   36.3860 C.3    54  PHE54       0.1605
     37  C          3.3980   -7.6990   37.4300 C.2    54  PHE54       0.2264
     38  O          4.5570   -7.3250   37.2000 O.2    54  PHE54      -0.2867
     39  CB         1.4900   -6.2500   36.7340 C.3    54  PHE54       0.0534
     40  CG         2.3410   -4.9970   36.8710 C.ar   54  PHE54      -0.0203
     41  CD1        2.7100   -4.2670   35.7430 C.ar   54  PHE54      -0.0042
     42  CD2        2.7770   -4.5580   38.1300 C.ar   54  PHE54      -0.0042
     43  CE1        3.4910   -3.1080   35.8630 C.ar   54  PHE54      -0.0003
     44  CE2        3.5570   -3.4000   38.2590 C.ar   54  PHE54      -0.0003
     45  CZ         3.9240   -2.6880   37.1240 C.ar   54  PHE54      -0.0000
     46  N          5.1650   -2.1130   30.3110 N.3    71  ALA71      -0.1231
     47  CA         3.8690   -2.4160   30.9430 C.3    71  ALA71       0.1694
     48  C          3.2590   -1.2660   31.7370 C.2    71  ALA71       0.2593
     49  O          2.7930   -1.4600   32.8640 O.2    71  ALA71      -0.2718
     50  CB         3.9950   -3.6690   31.8400 C.3    71  ALA71       0.0304
     51  N          3.2610   -0.0660   31.1550 N.am   72  GLY72      -0.1942
     52  CA         2.7890    1.1190   31.8580 C.3    72  GLY72       0.2014
     53  C          3.4940    1.2720   33.1960 C.2    72  GLY72       0.2639
     54  O          2.8890    1.7030   34.1680 O.2    72  GLY72      -0.2714
     55  N          4.7880    0.9520   33.2230 N.am   73  MET73      -0.1963
     56  CA         5.5290    0.7890   34.4770 C.3    73  MET73       0.1736
     57  C          6.3010    2.0480   34.8810 C.2    73  MET73       0.2616
     58  O          7.2680    2.4290   34.2110 O.2    73  MET73      -0.2715
     59  CB         6.4940   -0.4060   34.3560 C.3    73  MET73       0.0427
     60  CG         7.3680   -0.6600   35.6020 C.3    73  MET73       0.0599
     61  SD         8.4830   -2.0840   35.4590 S.3    73  MET73      -0.1393
     62  CE         7.2890   -3.4400   35.6450 C.3    73  MET73       0.0692
     63  N          5.8590    2.6820   35.9690 N.am   74  ASP74      -0.1971
     64  CA         6.5270    3.8530   36.5430 C.3    74  ASP74       0.1709
     65  C          7.9350    3.4740   36.9750 C.2    74  ASP74       0.2293
     66  O          8.1430    2.4170   37.5780 O.2    74  ASP74      -0.2864
     67  CB         5.7770    4.3620   37.7860 C.3    74  ASP74       0.1436
     68  CG         4.4310    5.0140   37.4610 C.2    74  ASP74       0.3671
     69  OD1        3.8390    4.7390   36.4000 O.co2  74  ASP74      -0.2456
     70  OD2        3.9660    5.8300   38.2990 O.co2  74  ASP74      -0.2456
     71  N         12.0230    0.0220   42.0110 N.3    79  ARG79      -0.1245
     72  CA        12.2540   -0.7700   40.8190 C.3    79  ARG79       0.1563
     73  C         13.6470   -0.5140   40.2560 C.2    79  ARG79       0.2260
     74  O         14.2700   -1.4240   39.7130 O.2    79  ARG79      -0.2867
     75  CB        11.1710   -0.5220   39.7800 C.3    79  ARG79       0.0307
     76  CG         9.8030   -1.0170   40.2450 C.3    79  ARG79       0.0489
     77  CD         8.6920   -0.5430   39.3310 C.3    79  ARG79       0.2205
     78  NE         7.3920   -0.9950   39.8170 N.pl3  79  ARG79      -0.0865
     79  CZ         6.2450   -0.4090   39.5040 C.cat  79  ARG79       0.5346
     80  NH1        6.2480    0.6510   38.6940 N.pl3  79  ARG79       0.1354
     81  NH2        5.0980   -0.8810   39.9900 N.pl3  79  ARG79       0.1354
     82  N         -3.8810   -3.6600   41.7820 N.3   118  GLU118     -0.1245
     83  CA        -3.0240   -4.7340   41.2750 C.3   118  GLU118      0.1567
     84  C         -1.7910   -4.9400   42.1500 C.2   118  GLU118      0.2260
     85  O         -1.1790   -3.9680   42.5910 O.2   118  GLU118     -0.2867
     86  CB        -2.5790   -4.3960   39.8550 C.3   118  GLU118      0.0388
     87  CG        -2.2730   -5.5680   38.9400 C.3   118  GLU118      0.1160
     88  CD        -2.2330   -5.1300   37.4790 C.2   118  GLU118      0.3649
     89  OE1       -1.6090   -4.0980   37.2240 O.co2 118  GLU118     -0.2457
     90  OE2       -2.8690   -5.7710   36.6090 O.co2 118  GLU118     -0.2457
     91  N          2.1460   -2.8860   42.2300 N.3   121  THR121     -0.1203
     92  CA         2.0030   -1.5370   41.6570 C.3   121  THR121      0.1994
     93  C          2.3200   -0.3960   42.6250 C.2   121  THR121      0.2619
     94  O          2.3390   -0.5760   43.8500 O.2   121  THR121     -0.2717
     95  CB         0.5820   -1.2990   41.0530 C.3   121  THR121      0.1784
     96  OG1       -0.4110   -1.3410   42.0910 O.3   121  THR121     -0.2211
     97  CG2        0.2740   -2.3370   40.0030 C.3   121  THR121      0.0376
     98  N          2.5400    0.7820   42.0470 N.am  122  THR122     -0.1938
     99  CA         2.5970    2.0440   42.7920 C.3   122  THR122      0.2028
    100  C          1.3350    2.2210   43.6220 C.2   122  THR122      0.2642
    101  O          1.3870    2.6680   44.7690 O.2   122  THR122     -0.2714
    102  CB         2.6820    3.2290   41.8150 C.3   122  THR122      0.1808
    103  OG1        1.6780    3.0620   40.8130 O.3   122  THR122     -0.2208
    104  CG2        4.0450    3.2570   41.1240 C.3   122  THR122      0.0379
    105  N          0.1990    1.8680   43.0300 N.am  123  HIS123     -0.1973
    106  CA        -1.0910    2.0440   43.6730 C.3   123  HIS123      0.1656
    107  C         -1.2040    1.2270   44.9400 C.2   123  HIS123      0.2291
    108  O         -1.7340    1.7080   45.9460 O.2   123  HIS123     -0.2864
    109  CB        -2.2140    1.6960   42.6970 C.3   123  HIS123      0.0771
    110  CG        -2.0270    2.3080   41.3510 C.ar  123  HIS123      0.0820
    111  ND1       -1.9210    3.6720   41.1670 N.ar  123  HIS123     -0.2267
    112  CD2       -1.8770    1.7470   40.1260 C.ar  123  HIS123      0.1154
    113  CE1       -1.7400    3.9260   39.8820 C.ar  123  HIS123      0.1986
    114  NE2       -1.7050    2.7780   39.2310 N.ar  123  HIS123     -0.2212
    115  N         -6.3750   -6.1720   36.8290 N.3   142  TYR142     -0.1241
    116  CA        -7.4260   -5.1610   36.9420 C.3   142  TYR142      0.1605
    117  C         -8.7740   -5.6780   36.4250 C.2   142  TYR142      0.2264
    118  O         -9.8180   -5.2850   36.9360 O.2   142  TYR142     -0.2867
    119  CB        -6.9890   -3.8010   36.3340 C.3   142  TYR142      0.0534
    120  CG        -6.2010   -2.9670   37.3280 C.ar  142  TYR142     -0.0201
    121  CD1       -6.8420   -2.3280   38.3840 C.ar  142  TYR142     -0.0009
    122  CD2       -4.8100   -2.8380   37.2310 C.ar  142  TYR142     -0.0009
    123  CE1       -6.1270   -1.5740   39.3270 C.ar  142  TYR142      0.0417
    124  CE2       -4.0810   -2.0740   38.1620 C.ar  142  TYR142      0.0417
    125  CZ        -4.7500   -1.4480   39.2150 C.ar  142  TYR142      0.1957
    126  OH        -4.0460   -0.7230   40.1750 O.3   142  TYR142     -0.2866
    127  N         -4.3570    3.8230   37.3450 N.3   160  ASP160     -0.1239
    128  CA        -3.9880    4.9900   36.5250 C.3   160  ASP160      0.1674
    129  C         -5.2190    5.6030   35.8760 C.2   160  ASP160      0.2266
    130  O         -6.1260    4.8890   35.4500 O.2   160  ASP160     -0.2867
    131  CB        -2.9200    4.6430   35.4630 C.3   160  ASP160      0.1410
    132  CG        -1.5280    4.4620   36.0720 C.2   160  ASP160      0.3668
    133  OD1       -0.8540    5.4680   36.3530 O.co2 160  ASP160     -0.2456
    134  OD2       -1.1010    3.3170   36.2810 O.co2 160  ASP160     -0.2456
    135  N          7.0780    6.6750   32.6530 N.3   191  LEU191     -0.1245
    136  CA         7.0320    5.2760   32.2520 C.3   191  LEU191      0.1561
    137  C          8.3410    4.9270   31.5730 C.2   191  LEU191      0.2260
    138  O          8.8780    5.7290   30.8040 O.2   191  LEU191     -0.2867
    139  CB         5.8680    5.0080   31.3060 C.3   191  LEU191      0.0270
    140  CG         4.4650    5.3840   31.7820 C.3   191  LEU191      0.0019
    141  CD1        3.4560    4.9300   30.7460 C.3   191  LEU191      0.0001
    142  CD2        4.1690    4.7730   33.1650 C.3   191  LEU191      0.0001
@<TRIPOS>BOND
     1    27    30    1
     2    27    28    1
     3    27    26    1
     4    30    31    1
     5    28    29    2
     6    33    32   ar
     7    31    32    1
     8    32    34   ar
     9    17    16    2
    10    16    15    1
    11    46    47    1
    12   141   140    1
    13   138   137    2
    14     7     8    1
    15     3     4    2
    16     3     2    1
    17     1     2    1
    18    47    48    1
    19    47    50    1
    20    14    15    1
    21    14     9   am
    22    51    48   am
    23    51    52    1
    24    15    18    1
    25   139   140    1
    26   139   136    1
    27     2     5    1
    28   137   136    1
    29     8     9    1
    30     8    11    1
    31    48    49    2
    32     9    10    2
    33   140   142    1
    34    52    53    1
    35    18    19    1
    36   136   135    1
    37     5     6    1
    38    11    13    1
    39    11    12    1
    40    19    21   ar
    41    19    20   ar
    42    21    23   ar
    43    53    55   am
    44    53    54    2
    45    55    56    1
    46    20    22   ar
    47    23    24   ar
    48    58    57    2
    49    59    56    1
    50    59    60    1
    51    56    57    1
    52    57    63   am
    53    22    24   ar
    54    24    25    1
    55   130   129    2
    56    61    60    1
    57    61    62    1
    58   131   132    1
    59   131   128    1
    60    41    43   ar
    61    41    40   ar
    62    43    45   ar
    63   129   128    1
    64    63    64    1
    65   132   134   ar
    66   132   133   ar
    67    35    36    1
    68   119   116    1
    69   119   120    1
    70    36    39    1
    71    36    37    1
    72    69    68   ar
    73   117   118    2
    74   117   116    1
    75   128   127    1
    76    64    65    1
    77    64    67    1
    78    90    88   ar
    79    39    40    1
    80   115   116    1
    81    40    42   ar
    82    65    66    2
    83    45    44   ar
    84    38    37    2
    85    89    88   ar
    86   122   120   ar
    87   122   124   ar
    88   120   121   ar
    89    68    67    1
    90    68    70   ar
    91    88    87    1
    92    42    44   ar
    93   124   125   ar
    94   121   123   ar
    95    80    79    1
    96    87    86    1
    97   125   123   ar
    98   125   126    1
    99   114   113   ar
   100   114   112   ar
   101    77    78    1
   102    77    76    1
   103    79    78    2
   104    79    81    1
   105    74    73    2
   106    75    76    1
   107    75    72    1
   108    86    83    1
   109   113   111   ar
   110    97    95    1
   111   112   110   ar
   112    73    72    1
   113   103   102    1
   114    72    71    1
   115    95    92    1
   116    95    96    1
   117   104   102    1
   118   111   110   ar
   119    83    82    1
   120    83    84    1
   121   110   109    1
   122    92    91    1
   123    92    93    1
   124   102    99    1
   125    98    93   am
   126    98    99    1
   127    84    85    2
   128    93    94    2
   129   109   106    1
   130    99   100    1
   131   105   100   am
   132   105   106    1
   133   100   101    2
   134   106   107    1
   135   107   108    2
