@<TRIPOS>MOLECULE
tmp/2y7jC00.pdb
 146 138 0 0 0
SMALL
GASTEIGER

@<TRIPOS>ATOM
      1  N        -17.0630   11.0700   -3.2930 N.3    20  VAL20      -0.1231
      2  CA       -17.6250    9.9070   -2.6060 C.3    20  VAL20       0.1692
      3  C        -18.9590   10.3420   -1.9810 C.2    20  VAL20       0.2592
      4  O        -18.9790   11.2730   -1.1690 O.2    20  VAL20      -0.2718
      5  CB       -16.6280    9.3740   -1.5360 C.3    20  VAL20       0.0266
      6  CG1      -17.2480    8.2920   -0.6610 C.3    20  VAL20       0.0020
      7  CG2      -15.3430    8.8820   -2.1750 C.3    20  VAL20       0.0020
      8  N        -20.0630    9.6800   -2.3450 N.am   21  ILE21      -0.1966
      9  CA       -21.4020    9.9870   -1.8170 C.3    21  ILE21       0.1727
     10  C        -21.9150    8.8320   -0.9000 C.2    21  ILE21       0.2616
     11  O        -22.9390    8.9790   -0.2380 O.2    21  ILE21      -0.2715
     12  CB       -22.4140   10.3310   -2.9500 C.3    21  ILE21       0.0290
     13  CG1      -22.6150    9.1350   -3.9250 C.3    21  ILE21       0.0022
     14  CG2      -21.9860   11.6220   -3.6660 C.3    21  ILE21       0.0023
     15  CD1      -23.4720    9.4050   -5.2140 C.3    21  ILE21       0.0001
     16  N        -21.1980    7.7110   -0.8700 N.am   22  GLY22      -0.1955
     17  CA       -21.5340    6.5570   -0.0460 C.3    22  GLY22       0.1869
     18  C        -20.4010    5.5610    0.0720 C.2    22  GLY22       0.2309
     19  O        -19.5340    5.4780   -0.8010 O.2    22  GLY22      -0.2863
     20  N        -19.4350    4.4270   -3.2890 N.3    29  VAL29      -0.1245
     21  CA       -20.3200    5.0120   -4.2880 C.3    29  VAL29       0.1561
     22  C        -19.8070    6.4340   -4.5310 C.2    29  VAL29       0.2260
     23  O        -19.5950    7.2040   -3.5900 O.2    29  VAL29      -0.2867
     24  CB       -21.8390    4.9570   -3.9680 C.3    29  VAL29       0.0252
     25  CG1      -22.6670    5.4420   -5.1680 C.3    29  VAL29       0.0019
     26  CG2      -22.2630    3.5460   -3.5690 C.3    29  VAL29       0.0019
     27  N        -23.8180    7.9580  -10.9430 N.3    42  ALA42      -0.1245
     28  CA       -23.2640    7.4260   -9.6930 C.3    42  ALA42       0.1562
     29  C        -22.6340    6.1210  -10.0420 C.2    42  ALA42       0.2260
     30  O        -23.2000    5.3820  -10.8490 O.2    42  ALA42      -0.2867
     31  CB       -24.3510    7.2470   -8.6490 C.3    42  ALA42       0.0290
     32  N        -20.9200    2.6160   -8.3890 N.3    44  LYS44      -0.1245
     33  CA       -20.6150    1.7330   -7.2640 C.3    44  LYS44       0.1561
     34  C        -19.4330    0.8980   -7.6960 C.2    44  LYS44       0.2260
     35  O        -19.5260    0.2100   -8.7200 O.2    44  LYS44      -0.2867
     36  CB       -21.7980    0.8600   -6.8310 C.3    44  LYS44       0.0271
     37  CG       -21.5420    0.1370   -5.5080 C.3    44  LYS44       0.0035
     38  CD       -22.6270   -0.8660   -5.2000 C.3    44  LYS44       0.0206
     39  CE       -22.4640   -1.4640   -3.8180 C.3    44  LYS44       0.1093
     40  NZ       -23.5890   -2.3690   -3.4360 N.3    44  LYS44      -0.1314
     41  N        -33.8410    1.8770   -9.2550 N.3    82  ILE82      -0.1245
     42  CA       -32.5260    2.3530   -9.7080 C.3    82  ILE82       0.1561
     43  C        -32.1630    1.6850  -11.0780 C.2    82  ILE82       0.2260
     44  O        -32.4480    0.5050  -11.2990 O.2    82  ILE82      -0.2867
     45  CB       -31.4430    2.1450   -8.5960 C.3    82  ILE82       0.0252
     46  CG1      -30.2680    3.1460   -8.7300 C.3    82  ILE82       0.0019
     47  CG2      -30.9650    0.6670   -8.4400 C.3    82  ILE82       0.0019
     48  CD1      -30.6390    4.6090   -8.5630 C.3    82  ILE82       0.0001
     49  N        -24.9500    3.8900  -12.3090 N.3    98  PHE98      -0.1227
     50  CA       -26.3810    4.0610  -12.0520 C.3    98  PHE98       0.1736
     51  C        -26.8380    5.4840  -12.2170 C.2    98  PHE98       0.2595
     52  O        -26.0140    6.3890  -12.4290 O.2    98  PHE98      -0.2718
     53  CB       -26.6970    3.6560  -10.5930 C.3    98  PHE98       0.0547
     54  CG       -26.4390    2.2320  -10.1870 C.ar   98  PHE98      -0.0202
     55  CD1      -27.3560    1.2300  -10.4790 C.ar   98  PHE98      -0.0042
     56  CD2      -25.3200    1.9000   -9.4500 C.ar   98  PHE98      -0.0042
     57  CE1      -27.1230   -0.0870  -10.0870 C.ar   98  PHE98      -0.0003
     58  CE2      -25.0970    0.5800   -9.0490 C.ar   98  PHE98      -0.0003
     59  CZ       -25.9950   -0.4040   -9.3790 C.ar   98  PHE98      -0.0000
     60  N        -28.1480    5.7060  -11.9790 N.am   99  ASP99      -0.1960
     61  CA       -28.7140    7.0450  -11.8810 C.3    99  ASP99       0.1840
     62  C        -28.0990    7.7370  -10.6790 C.2    99  ASP99       0.2622
     63  O        -27.8920    7.0990   -9.6260 O.2    99  ASP99      -0.2715
     64  CB       -30.2430    6.9840  -11.6580 C.3    99  ASP99       0.1450
     65  CG       -31.0480    6.2780  -12.7200 C.2    99  ASP99       0.3671
     66  OD1      -30.9820    6.7070  -13.9090 O.co2  99  ASP99      -0.2456
     67  OD2      -31.8270    5.3710  -12.3560 O.co2  99  ASP99      -0.2456
     68  N        -27.8300    9.0290  -10.8130 N.am  100  LEU100     -0.1963
     69  CA       -27.3550    9.8130   -9.6770 C.3   100  LEU100      0.1728
     70  C        -28.6030   10.3400   -8.9460 C.2   100  LEU100      0.2616
     71  O        -29.4110   11.0190   -9.5670 O.2   100  LEU100     -0.2715
     72  CB       -26.4090   10.9460  -10.1620 C.3   100  LEU100      0.0311
     73  CG       -25.9750   11.9680   -9.1140 C.3   100  LEU100      0.0022
     74  CD1      -25.1800   11.3110   -7.9950 C.3   100  LEU100      0.0001
     75  CD2      -25.1800   13.0800   -9.7630 C.3   100  LEU100      0.0001
     76  N        -28.8030    9.9640   -7.6760 N.am  101  MET101     -0.1963
     77  CA       -29.9680   10.3960   -6.8820 C.3   101  MET101      0.1736
     78  C        -29.4620   11.4210   -5.9270 C.2   101  MET101      0.2616
     79  O        -28.9220   11.0780   -4.8750 O.2   101  MET101     -0.2715
     80  CB       -30.6410    9.2010   -6.1780 C.3   101  MET101      0.0427
     81  CG       -31.1210    8.1230   -7.1290 C.3   101  MET101      0.0599
     82  SD       -32.4240    8.6800   -8.2580 S.3   101  MET101     -0.1393
     83  CE       -33.8090    8.8320   -7.1600 C.3   101  MET101      0.0692
     84  N        -29.5860   12.6850   -6.3330 N.am  102  ARG102     -0.1963
     85  CA       -28.9930   13.8550   -5.7080 C.3   102  ARG102      0.1729
     86  C        -29.4520   14.1830   -4.2620 C.2   102  ARG102      0.2616
     87  O        -28.7010   14.8530   -3.5520 O.2   102  ARG102     -0.2715
     88  CB       -29.1680   15.0730   -6.6230 C.3   102  ARG102      0.0348
     89  CG       -28.1520   15.0510   -7.7640 C.3   102  ARG102      0.0492
     90  CD       -28.5170   16.0230   -8.8470 C.3   102  ARG102      0.2205
     91  NE       -28.5390   15.3980  -10.1700 N.pl3 102  ARG102     -0.0865
     92  CZ       -27.6150   15.6120  -11.0910 C.cat 102  ARG102      0.5346
     93  NH1      -26.5940   16.4240  -10.8390 N.pl3 102  ARG102      0.1354
     94  NH2      -27.6890   15.0040  -12.2680 N.pl3 102  ARG102      0.1354
     95  N        -30.6210   13.6990   -3.8200 N.am  103  LYS103     -0.1963
     96  CA       -31.0490   13.9450   -2.4400 C.3   103  LYS103      0.1728
     97  C        -30.6830   12.7540   -1.5090 C.2   103  LYS103      0.2617
     98  O        -31.0610   12.7570   -0.3340 O.2   103  LYS103     -0.2715
     99  CB       -32.5280   14.3120   -2.3540 C.3   103  LYS103      0.0311
    100  CG       -32.7470   15.7950   -2.6450 C.3   103  LYS103      0.0038
    101  CD       -34.0540   16.3450   -2.0870 C.3   103  LYS103      0.0206
    102  CE       -34.2070   17.7920   -2.4900 C.3   103  LYS103      0.1093
    103  NZ       -35.5470   18.3260   -2.1310 N.3   103  LYS103     -0.1314
    104  N        -29.9070   11.7930   -2.0360 N.am  104  GLY104     -0.1940
    105  CA       -29.4020   10.6200   -1.3240 C.3   104  GLY104      0.2014
    106  C        -30.4460    9.6570   -0.8010 C.2   104  GLY104      0.2638
    107  O        -31.4900    9.4590   -1.4320 O.2   104  GLY104     -0.2714
    108  N        -30.1770    9.0690    0.3830 N.am  105  GLU105     -0.1977
    109  CA       -31.0500    8.0990    1.0420 C.3   105  GLU105      0.1602
    110  C        -32.2130    8.7470    1.7560 C.2   105  GLU105      0.2287
    111  O        -32.0540    9.7770    2.4160 O.2   105  GLU105     -0.2864
    112  CB       -30.2740    7.2720    2.0550 C.3   105  GLU105      0.0415
    113  CG       -29.2120    6.3780    1.4570 C.3   105  GLU105      0.1163
    114  CD       -28.4170    5.6130    2.4970 C.2   105  GLU105      0.3649
    115  OE1      -28.8480    5.5770    3.6710 O.co2 105  GLU105     -0.2457
    116  OE2      -27.3520    5.0580    2.1430 O.co2 105  GLU105     -0.2457
    117  N        -31.6520    9.4780    5.5180 N.3   108  ASP108     -0.1239
    118  CA       -30.9960   10.7370    5.8860 C.3   108  ASP108      0.1674
    119  C        -31.9730   11.9070    5.7840 C.2   108  ASP108      0.2266
    120  O        -31.9190   12.8360    6.6040 O.2   108  ASP108     -0.2867
    121  CB       -29.7270   10.9610    5.0440 C.3   108  ASP108      0.1410
    122  CG       -28.6350    9.8960    5.2070 C.2   108  ASP108      0.3668
    123  OD1      -28.5920    9.2420    6.2690 O.co2 108  ASP108     -0.2456
    124  OD2      -27.8140    9.7330    4.2750 O.co2 108  ASP108     -0.2456
    125  N        -33.7600    5.7160   -2.5120 N.3   151  LEU151     -0.1245
    126  CA       -33.0310    6.9170   -2.9010 C.3   151  LEU151      0.1561
    127  C        -33.9540    7.9920   -3.4310 C.2   151  LEU151      0.2260
    128  O        -34.9990    7.6770   -4.0010 O.2   151  LEU151     -0.2867
    129  CB       -31.9530    6.5720   -3.9350 C.3   151  LEU151      0.0270
    130  CG       -30.8190    5.6720   -3.4860 C.3   151  LEU151      0.0019
    131  CD1      -30.1300    5.0590   -4.7010 C.3   151  LEU151      0.0001
    132  CD2      -29.8260    6.4130   -2.6390 C.3   151  LEU151      0.0001
    133  N        -33.3480    0.8470   -4.4650 N.3   161  SER161     -0.1202
    134  CA       -31.9890    0.3410   -4.7330 C.3   161  SER161      0.2020
    135  C        -31.6540   -0.8770   -3.8590 C.2   161  SER161      0.2618
    136  O        -32.5500   -1.4900   -3.2750 O.2   161  SER161     -0.2717
    137  CB       -30.9600    1.4480   -4.4870 C.3   161  SER161      0.2103
    138  OG       -30.9960    1.8920   -3.1380 O.3   161  SER161     -0.2182
    139  N        -30.3550   -1.2390   -3.8220 N.am  162  ASP162     -0.1973
    140  CA       -29.7320   -2.2920   -3.0310 C.3   162  ASP162      0.1709
    141  C        -30.4640   -3.6170   -3.1480 C.2   162  ASP162      0.2293
    142  O        -31.1290   -4.0610   -2.2050 O.2   162  ASP162     -0.2864
    143  CB       -29.5770   -1.8480   -1.5660 C.3   162  ASP162      0.1436
    144  CG       -28.5040   -0.7790   -1.3960 C.2   162  ASP162      0.3671
    145  OD1      -27.3180   -1.1450   -1.2000 O.co2 162  ASP162     -0.2456
    146  OD2      -28.8370    0.4160   -1.5140 O.co2 162  ASP162     -0.2456
@<TRIPOS>BOND
     1    66    65   ar
     2    65    67   ar
     3    65    64    1
     4    52    51    2
     5    49    50    1
     6    94    92    1
     7    51    50    1
     8    51    60   am
     9    50    53    1
    10    60    61    1
    11    61    64    1
    12    61    62    1
    13    44    43    2
    14    92    93    1
    15    92    91    2
    16    43    42    1
    17    27    28    1
    18    30    29    2
    19    68    62   am
    20    68    69    1
    21    62    63    2
    22    53    54    1
    23    55    54   ar
    24    55    57   ar
    25    54    56   ar
    26    91    90    1
    27    72    69    1
    28    72    73    1
    29    57    59   ar
    30    29    28    1
    31    75    73    1
    32    42    41    1
    33    42    45    1
    34    28    31    1
    35    69    70    1
    36    71    70    2
    37    56    58   ar
    38    59    58   ar
    39    73    74    1
    40    70    76   am
    41    90    89    1
    42    46    45    1
    43    46    48    1
    44    35    34    2
    45    45    47    1
    46    32    33    1
    47    82    83    1
    48    82    81    1
    49    89    88    1
    50    34    33    1
    51    76    77    1
    52    33    36    1
    53    81    80    1
    54    77    80    1
    55    77    78    1
    56    36    37    1
    57    88    85    1
    58    84    78   am
    59    84    85    1
    60    78    79    2
    61    85    86    1
    62    37    38    1
    63    15    13    1
    64    38    39    1
    65    25    24    1
    66   134   137    1
    67   134   133    1
    68   134   135    1
    69   131   130    1
    70    22    21    1
    71    22    23    2
    72   137   138    1
    73    21    24    1
    74    21    20    1
    75    86    95   am
    76    86    87    2
    77   128   127    2
    78    24    26    1
    79   129   130    1
    80   129   126    1
    81    13    12    1
    82   135   139   am
    83   135   136    2
    84   139   140    1
    85    95    96    1
    86    39    40    1
    87    14    12    1
    88   130   132    1
    89   127   126    1
    90     1     2    1
    91   141   140    1
    92   141   142    2
    93   140   143    1
    94    12     9    1
    95   126   125    1
    96   100    99    1
    97   100   101    1
    98     2     3    1
    99     2     5    1
   100   102   103    1
   101   102   101    1
   102    96    99    1
   103    96    97    1
   104     8     3   am
   105     8     9    1
   106     7     5    1
   107   104    97   am
   108   104   105    1
   109     3     4    2
   110     9    10    1
   111   143   144    1
   112     5     6    1
   113   146   144   ar
   114    97    98    2
   115   107   106    2
   116   144   145   ar
   117   105   106    1
   118    10    16   am
   119    10    11    2
   120    16    17    1
   121    19    18    2
   122   106   108   am
   123    17    18    1
   124   108   109    1
   125   109   110    1
   126   109   112    1
   127   113   112    1
   128   113   114    1
   129   110   111    2
   130   116   114   ar
   131   114   115   ar
   132   124   122   ar
   133   121   122    1
   134   121   118    1
   135   122   123   ar
   136   117   118    1
   137   119   118    1
   138   119   120    2
