@<TRIPOS>MOLECULE
tmp/2y7lA00.pdb
 198 198 0 0 0
SMALL
GASTEIGER

@<TRIPOS>ATOM
      1  N         -4.2050   23.3220   -3.4250 N.3    20  VAL20      -0.1231
      2  CA        -3.6060   24.5280   -3.9840 C.3    20  VAL20       0.1692
      3  C         -4.5660   25.6770   -3.5840 C.2    20  VAL20       0.2592
      4  O         -5.7460   25.5110   -3.5390 O.2    20  VAL20      -0.2718
      5  CB        -3.3800   24.4960   -5.5470 C.3    20  VAL20       0.0266
      6  CG1       -4.6340   24.4680   -6.3230 C.3    20  VAL20       0.0020
      7  CG2       -2.4270   25.6930   -5.9810 C.3    20  VAL20       0.0020
      8  N         -4.0610   26.8770   -3.3770 N.am   21  GLU21      -0.1966
      9  CA        -4.8920   28.0450   -3.1430 C.3    21  GLU21       0.1733
     10  C         -5.4360   28.5760   -4.4860 C.2    21  GLU21       0.2616
     11  O         -4.8750   28.3260   -5.5930 O.2    21  GLU21      -0.2715
     12  CB        -3.9750   29.0960   -2.5140 C.3    21  GLU21       0.0429
     13  CG        -3.3540   28.7040   -1.1270 C.3    21  GLU21       0.1163
     14  CD        -2.5490   29.8900   -0.4380 C.2    21  GLU21       0.3649
     15  OE1       -2.7790   31.0660   -0.7980 O.co2  21  GLU21      -0.2457
     16  OE2       -1.7250   29.6310    0.4800 O.co2  21  GLU21      -0.2457
     17  N         -6.5530   29.3260   -4.4360 N.am   22  TYR22      -0.1960
     18  CA        -7.0370   30.1920   -5.5280 C.3    22  TYR22       0.1771
     19  C         -7.8360   29.4620   -6.5940 C.2    22  TYR22       0.2619
     20  O         -8.9280   29.9050   -6.9700 O.2    22  TYR22      -0.2715
     21  CB        -5.9110   31.0670   -6.1580 C.3    22  TYR22       0.0574
     22  CG        -5.0370   31.8120   -5.1450 C.ar   22  TYR22      -0.0198
     23  CD1       -5.5940   32.7870   -4.3090 C.ar   22  TYR22      -0.0009
     24  CD2       -3.7020   31.5530   -5.0520 C.ar   22  TYR22      -0.0009
     25  CE1       -4.7980   33.4650   -3.3780 C.ar   22  TYR22       0.0417
     26  CE2       -2.8810   32.2330   -4.1200 C.ar   22  TYR22       0.0417
     27  CZ        -3.4470   33.1240   -3.3030 C.ar   22  TYR22       0.1957
     28  OH        -2.6630   33.8300   -2.3870 O.3    22  TYR22      -0.2866
     29  N         -7.3840   28.3050   -7.0140 N.am   23  VAL23      -0.1977
     30  CA        -7.9830   27.6670   -8.1430 C.3    23  VAL23       0.1596
     31  C         -9.3350   27.0680   -7.7780 C.2    23  VAL23       0.2287
     32  O         -9.4780   26.4520   -6.7150 O.2    23  VAL23      -0.2864
     33  CB        -7.0410   26.5300   -8.6400 C.3    23  VAL23       0.0276
     34  CG1       -7.5710   25.9800   -9.9740 C.3    23  VAL23       0.0022
     35  CG2       -5.6560   27.0200   -8.8490 C.3    23  VAL23       0.0022
     36  N         -8.7420   19.3390  -13.0760 N.3    28  GLU28      -0.1231
     37  CA        -7.2880   19.5790  -13.0030 C.3    28  GLU28       0.1699
     38  C         -6.7410   20.0100  -11.6720 C.2    28  GLU28       0.2593
     39  O         -5.5010   20.0620  -11.5070 O.2    28  GLU28      -0.2718
     40  CB        -6.8330   20.6610  -14.0100 C.3    28  GLU28       0.0402
     41  CG        -7.2900   20.2950  -15.4390 C.3    28  GLU28       0.1161
     42  CD        -6.5090   20.9770  -16.5490 C.2    28  GLU28       0.3649
     43  OE1       -5.8730   22.0350  -16.3050 O.co2  28  GLU28      -0.2457
     44  OE2       -6.6710   20.4740  -17.7070 O.co2  28  GLU28      -0.2457
     45  N         -7.6700   20.3630  -10.7180 N.am   29  THR29      -0.1940
     46  CA        -7.2220   20.9950   -9.5300 C.3    29  THR29       0.2013
     47  C         -6.6560   19.9970   -8.5050 C.2    29  THR29       0.2484
     48  O         -7.3550   19.0910   -8.1280 O.2    29  THR29      -0.2729
     49  CB        -8.3460   21.8060   -8.8630 C.3    29  THR29       0.1807
     50  OG1       -8.9660   22.6230   -9.8920 O.3    29  THR29      -0.2208
     51  CG2       -7.8150   22.6630   -7.7490 C.3    29  THR29       0.0379
     52  N         -5.3780   20.2320   -8.0750 N.am   30  PRO30      -0.2726
     53  CA        -4.8620   19.2870   -7.0450 C.3    30  PRO30       0.1402
     54  C         -5.7740   19.3180   -5.8070 C.2    30  PRO30       0.2269
     55  O         -6.1360   20.4310   -5.3140 O.2    30  PRO30      -0.2865
     56  CB        -3.5290   19.9410   -6.6580 C.3    30  PRO30       0.0296
     57  CG        -3.0750   20.6290   -7.9760 C.3    30  PRO30       0.0237
     58  CD        -4.3520   21.1990   -8.5430 C.3    30  PRO30       0.0939
     59  N         -1.1330   13.6150  -14.3790 N.3    60  LYS60      -0.1245
     60  CA         0.0220   13.3340  -13.5250 C.3    60  LYS60       0.1561
     61  C         -0.4130   12.8660  -12.1800 C.2    60  LYS60       0.2260
     62  O         -1.6190   12.8810  -11.8650 O.2    60  LYS60      -0.2867
     63  CB         0.8960   14.6050  -13.3600 C.3    60  LYS60       0.0271
     64  CG         0.0810   15.7130  -12.5900 C.3    60  LYS60       0.0035
     65  CD         0.9350   17.0010  -12.5450 C.3    60  LYS60       0.0206
     66  CE        -0.0280   18.2250  -12.2900 C.3    60  LYS60       0.1093
     67  NZ         0.8190   19.4940  -12.0940 N.3    60  LYS60      -0.1314
     68  N         -4.3350   14.2240  -10.8840 N.3   117  THR117     -0.1218
     69  CA        -5.2150   15.3030  -11.5210 C.3   117  THR117      0.1862
     70  C         -5.4750   14.8610  -12.9340 C.2   117  THR117      0.2287
     71  O         -4.6510   14.1970  -13.5580 O.2   117  THR117     -0.2866
     72  CB        -4.5830   16.6940  -11.4910 C.3   117  THR117      0.1770
     73  OG1       -3.2500   16.6050  -11.9860 O.3   117  THR117     -0.2211
     74  CG2       -4.5360   17.2540  -10.0850 C.3   117  THR117      0.0375
     75  N         -3.9000   29.9650  -17.3380 N.3   170  SER170     -0.1202
     76  CA        -3.7250   28.7220  -16.5980 C.3   170  SER170      0.2020
     77  C         -2.2300   28.3870  -16.5760 C.2   170  SER170      0.2619
     78  O         -1.5190   28.4640  -17.5930 O.2   170  SER170     -0.2717
     79  CB        -4.5560   27.5940  -17.2430 C.3   170  SER170      0.2103
     80  OG        -4.3480   26.3420  -16.5410 O.3   170  SER170     -0.2182
     81  N         -1.7650   27.9230  -15.4470 N.am  171  SER171     -0.1937
     82  CA        -0.3850   27.4940  -15.2330 C.3   171  SER171      0.2055
     83  C         -0.3690   26.0920  -14.6610 C.2   171  SER171      0.2643
     84  O         -1.0530   25.8810  -13.6310 O.2   171  SER171     -0.2714
     85  CB         0.2270   28.5040  -14.3370 C.3   171  SER171      0.2130
     86  OG         1.5880   28.1250  -14.0940 O.3   171  SER171     -0.2179
     87  N          0.3400   25.2030  -15.3320 N.am  172  ARG172     -0.1963
     88  CA         0.3540   23.7750  -14.9200 C.3   172  ARG172      0.1729
     89  C          1.7880   23.2600  -14.7940 C.2   172  ARG172      0.2616
     90  O          2.5080   23.3280  -15.7860 O.2   172  ARG172     -0.2715
     91  CB        -0.4630   22.8810  -15.8960 C.3   172  ARG172      0.0348
     92  CG        -0.5450   21.4230  -15.4790 C.3   172  ARG172      0.0492
     93  CD        -1.7500   20.7290  -16.1810 C.3   172  ARG172      0.2205
     94  NE        -1.6090   20.8040  -17.6450 N.pl3 172  ARG172     -0.0865
     95  CZ        -2.4790   20.2600  -18.5240 C.cat 172  ARG172      0.5346
     96  NH1       -3.5650   19.6910  -18.0910 N.pl3 172  ARG172      0.1354
     97  NH2       -2.2970   20.4240  -19.8300 N.pl3 172  ARG172      0.1354
     98  N          2.0710   22.6820  -13.6230 N.am  173  ILE173     -0.1977
     99  CA         3.4250   22.0900  -13.4110 C.3   173  ILE173      0.1596
    100  C          3.4950   20.7960  -14.1910 C.2   173  ILE173      0.2287
    101  O          2.5800   19.9320  -14.1920 O.2   173  ILE173     -0.2864
    102  CB         3.6880   21.8660  -11.9500 C.3   173  ILE173      0.0276
    103  CG1        3.7410   23.1930  -11.2060 C.3   173  ILE173      0.0022
    104  CG2        5.0530   21.1080  -11.7120 C.3   173  ILE173      0.0022
    105  CD1        3.9980   23.1660   -9.6750 C.3   173  ILE173      0.0001
    106  N          6.7820   24.5230  -16.2020 N.3   180  LEU180     -0.1245
    107  CA         5.3120   24.6860  -16.2130 C.3   180  LEU180      0.1561
    108  C          4.9520   24.9760  -17.6050 C.2   180  LEU180      0.2260
    109  O          5.6700   25.6450  -18.3550 O.2   180  LEU180     -0.2867
    110  CB         4.8290   25.8630  -15.2610 C.3   180  LEU180      0.0270
    111  CG         5.4320   25.8530  -13.8390 C.3   180  LEU180      0.0019
    112  CD1        6.6730   26.6970  -13.6320 C.3   180  LEU180      0.0001
    113  CD2        4.3810   26.3380  -12.8270 C.3   180  LEU180      0.0001
    114  N          9.9110   26.6370   -8.5980 N.3   268  ILE268     -0.1245
    115  CA         8.7790   26.1940   -9.4680 C.3   268  ILE268      0.1561
    116  C          7.5220   26.6230   -8.7680 C.2   268  ILE268      0.2260
    117  O          6.4490   26.7700   -9.4530 O.2   268  ILE268     -0.2867
    118  CB         8.8120   24.6500   -9.7100 C.3   268  ILE268      0.0252
    119  CG1        7.9520   24.3550  -10.9710 C.3   268  ILE268      0.0019
    120  CG2        8.4650   23.9080   -8.4910 C.3   268  ILE268      0.0019
    121  CD1        8.2750   23.0230  -11.7020 C.3   268  ILE268      0.0001
    122  N         -2.1520   43.0400  -17.3540 N.3   291  PHE291     -0.1227
    123  CA        -2.2990   42.7230  -15.9710 C.3   291  PHE291      0.1736
    124  C         -1.1420   41.8110  -15.6020 C.2   291  PHE291      0.2596
    125  O         -0.4550   41.2370  -16.4750 O.2   291  PHE291     -0.2718
    126  CB        -3.6650   42.0660  -15.7080 C.3   291  PHE291      0.0547
    127  CG        -3.8640   40.7890  -16.4880 C.ar  291  PHE291     -0.0202
    128  CD1       -4.2830   40.8080  -17.8200 C.ar  291  PHE291     -0.0042
    129  CD2       -3.6350   39.5540  -15.8890 C.ar  291  PHE291     -0.0042
    130  CE1       -4.4640   39.6270  -18.5410 C.ar  291  PHE291     -0.0003
    131  CE2       -3.8470   38.3840  -16.5960 C.ar  291  PHE291     -0.0003
    132  CZ        -4.2510   38.4170  -17.9470 C.ar  291  PHE291     -0.0000
    133  N         -0.9850   41.5740  -14.2870 N.am  292  THR292     -0.1939
    134  CA         0.1170   40.7480  -13.7320 C.3   292  THR292      0.2028
    135  C         -0.5190   39.6880  -12.8440 C.2   292  THR292      0.2642
    136  O         -1.3930   39.9360  -12.0520 O.2   292  THR292     -0.2714
    137  CB         1.0970   41.6390  -12.9280 C.3   292  THR292      0.1808
    138  OG1        1.5920   42.7010  -13.7830 O.3   292  THR292     -0.2208
    139  CG2        2.2480   40.8210  -12.4060 C.3   292  THR292      0.0379
    140  N          0.0830   38.5090  -12.8980 N.am  293  LEU293     -0.1963
    141  CA        -0.2580   37.3830  -12.0010 C.3   293  LEU293      0.1728
    142  C          0.9840   36.7220  -11.4420 C.2   293  LEU293      0.2617
    143  O          1.9570   36.5470  -12.1320 O.2   293  LEU293     -0.2715
    144  CB        -1.0810   36.2900  -12.7050 C.3   293  LEU293      0.0311
    145  CG        -2.4740   36.6030  -13.2180 C.3   293  LEU293      0.0022
    146  CD1       -3.1060   35.4730  -13.9850 C.3   293  LEU293      0.0001
    147  CD2       -3.2930   37.0400  -12.0820 C.3   293  LEU293      0.0001
    148  N          0.9470   36.4320  -10.1320 N.am  294  THR294     -0.1937
    149  CA         2.0150   35.6400   -9.4910 C.3   294  THR294      0.2028
    150  C          1.3710   34.2700   -9.1780 C.2   294  THR294      0.2642
    151  O          0.2970   34.1970   -8.5910 O.2   294  THR294     -0.2714
    152  CB         2.4790   36.2850   -8.1780 C.3   294  THR294      0.1808
    153  OG1        3.0550   37.5940   -8.5060 O.3   294  THR294     -0.2208
    154  CG2        3.4870   35.4120   -7.4400 C.3   294  THR294      0.0379
    155  N          2.0380   33.2410   -9.6780 N.am  295  TRP295     -0.1959
    156  CA         1.5430   31.8660   -9.7360 C.3   295  TRP295      0.1771
    157  C          2.1780   31.0550   -8.6870 C.2   295  TRP295      0.2620
    158  O          3.4120   30.9900   -8.5960 O.2   295  TRP295     -0.2715
    159  CB         1.9200   31.2690  -11.0750 C.3   295  TRP295      0.0590
    160  CG         1.1410   31.8170  -12.2410 C.ar  295  TRP295      0.0006
    161  CD1        1.5740   32.7940  -13.1600 C.ar  295  TRP295      0.0946
    162  CD2       -0.1800   31.4850  -12.5820 C.ar  295  TRP295      0.0152
    163  NE1        0.5380   33.0440  -14.0380 N.ar  295  TRP295     -0.2442
    164  CE2       -0.5210   32.2450  -13.7200 C.ar  295  TRP295      0.0810
    165  CE3       -1.1410   30.5810  -12.0390 C.ar  295  TRP295      0.0012
    166  CZ2       -1.7770   32.1140  -14.3740 C.ar  295  TRP295      0.0191
    167  CZ3       -2.3500   30.5060  -12.6370 C.ar  295  TRP295      0.0001
    168  CH2       -2.6670   31.2770  -13.8010 C.ar  295  TRP295      0.0015
    169  N          1.3790   30.3760   -7.8290 N.am  296  TRP296     -0.1960
    170  CA         1.8220   29.6460   -6.6140 C.3   296  TRP296      0.1771
    171  C          1.6340   28.1650   -6.7790 C.2   296  TRP296      0.2620
    172  O          0.5970   27.7160   -7.2020 O.2   296  TRP296     -0.2715
    173  CB         1.0160   30.1060   -5.4250 C.3   296  TRP296      0.0590
    174  CG         1.3320   31.5280   -5.0990 C.ar  296  TRP296      0.0006
    175  CD1        0.6650   32.5980   -5.5400 C.ar  296  TRP296      0.0946
    176  CD2        2.4590   31.9990   -4.3310 C.ar  296  TRP296      0.0152
    177  NE1        1.2670   33.7880   -5.0380 N.ar  296  TRP296     -0.2442
    178  CE2        2.3720   33.4260   -4.3070 C.ar  296  TRP296      0.0810
    179  CE3        3.5190   31.3620   -3.6460 C.ar  296  TRP296      0.0012
    180  CZ2        3.2940   34.2550   -3.5720 C.ar  296  TRP296      0.0191
    181  CZ3        4.4600   32.1820   -2.9470 C.ar  296  TRP296      0.0001
    182  CH2        4.3360   33.6030   -2.9150 C.ar  296  TRP296      0.0015
    183  N          2.6650   27.4140   -6.4160 N.am  297  GLY297     -0.1940
    184  CA         2.6260   25.9710   -6.4750 C.3   297  GLY297      0.2014
    185  C          1.6620   25.3060   -5.5070 C.2   297  GLY297      0.2638
    186  O          1.2210   25.9130   -4.5070 O.2   297  GLY297     -0.2714
    187  N          1.4020   24.0570   -5.7920 N.am  298  TYR298     -0.1973
    188  CA         0.4540   23.2100   -4.9800 C.3   298  TYR298      0.1639
    189  C          1.2810   22.3510   -4.0610 C.2   298  TYR298      0.2290
    190  O          2.5450   22.2550   -4.1730 O.2   298  TYR298     -0.2864
    191  CB        -0.4350   22.3590   -5.9350 C.3   298  TYR298      0.0560
    192  CG         0.3230   21.4600   -6.9340 C.ar  298  TYR298     -0.0198
    193  CD1        0.8720   20.2600   -6.5650 C.ar  298  TYR298     -0.0009
    194  CD2        0.4190   21.8760   -8.2560 C.ar  298  TYR298     -0.0009
    195  CE1        1.5230   19.5090   -7.4620 C.ar  298  TYR298      0.0417
    196  CE2        1.0540   21.1030   -9.1790 C.ar  298  TYR298      0.0417
    197  CZ         1.6150   19.9270   -8.7860 C.ar  298  TYR298      0.1957
    198  OH         2.2370   19.1180   -9.7020 O.3   298  TYR298     -0.2866
@<TRIPOS>BOND
     1    97    95    1
     2   130   132   ar
     3   130   128   ar
     4    95    96    1
     5    95    94    2
     6   109   108    2
     7   132   131   ar
     8   128   127   ar
     9    44    42   ar
    10    94    93    1
    11   108   107    1
    12    78    77    2
    13   122   123    1
    14    75    76    1
    15    79    76    1
    16    79    80    1
    17    76    77    1
    18   131   129   ar
    19    77    81   am
    20    42    43   ar
    21    42    41    1
    22   127   129   ar
    23   127   126    1
    24   125   124    2
    25   107   106    1
    26   107   110    1
    27    93    92    1
    28   123   126    1
    29   123   124    1
    30    91    92    1
    31    91    88    1
    32    90    89    2
    33   124   133   am
    34    81    82    1
    35    41    40    1
    36    87    88    1
    37    87    83   am
    38   110   111    1
    39    82    83    1
    40    82    85    1
    41    88    89    1
    42    89    98   am
    43    83    84    2
    44    59    60    1
    45   166   168   ar
    46   166   164   ar
    47    85    86    1
    48   133   134    1
    49   101   100    2
    50   100    99    1
    51   163   164   ar
    52   163   161   ar
    53    40    37    1
    54   146   145    1
    55   111   112    1
    56   111   113    1
    57   168   167   ar
    58   138   137    1
    59   134   137    1
    60   134   135    1
    61   164   162   ar
    62    98    99    1
    63    71    70    2
    64    60    63    1
    65    60    61    1
    66    99   102    1
    67    63    64    1
    68   145   144    1
    69   145   147    1
    70   161   160   ar
    71    36    37    1
    72    37    38    1
    73    70    69    1
    74   137   139    1
    75   140   135   am
    76   140   141    1
    77   135   136    2
    78   144   141    1
    79   167   165   ar
    80    64    65    1
    81   162   160   ar
    82   162   165   ar
    83    65    66    1
    84    66    67    1
    85   160   159    1
    86    61    62    2
    87   143   142    2
    88   141   142    1
    89    73    72    1
    90   102   104    1
    91   102   103    1
    92   121   119    1
    93    38    39    2
    94    38    45   am
    95    69    72    1
    96    69    68    1
    97    72    74    1
    98   142   148   am
    99   103   105    1
   100   159   156    1
   101   119   118    1
   102    45    46    1
   103   148   149    1
   104    34    33    1
   105    50    49    1
   106   156   155    1
   107   156   157    1
   108   118   115    1
   109   118   120    1
   110   198   197    1
   111   155   150   am
   112    46    49    1
   113    46    47    1
   114   149   150    1
   115   149   152    1
   116   115   116    1
   117   115   114    1
   118   117   116    2
   119   196   197   ar
   120   196   194   ar
   121   150   151    2
   122    49    51    1
   123    35    33    1
   124   197   195   ar
   125   157   158    2
   126   157   169   am
   127    33    30    1
   128    58    52    1
   129    58    57    1
   130   153   152    1
   131    47    48    2
   132    47    52   am
   133   194   192   ar
   134   152   154    1
   135    30    31    1
   136    30    29    1
   137    52    53    1
   138    57    56    1
   139   169   170    1
   140    31    32    2
   141   195   193   ar
   142   172   171    2
   143    53    56    1
   144    53    54    1
   145    29    19   am
   146    20    19    2
   147   192   193   ar
   148   192   191    1
   149   171   170    1
   150   171   183   am
   151   170   173    1
   152    19    18    1
   153   184   183    1
   154   184   185    1
   155     6     5    1
   156    21    18    1
   157    21    22    1
   158     7     5    1
   159   191   188    1
   160    54    55    2
   161   187   185   am
   162   187   188    1
   163    11    10    2
   164     5     2    1
   165   175   174   ar
   166   175   177   ar
   167    18    17    1
   168   185   186    2
   169   173   174    1
   170    22    24   ar
   171    22    23   ar
   172   174   176   ar
   173    24    26   ar
   174   177   178   ar
   175   188   189    1
   176    10    17   am
   177    10     9    1
   178   176   178   ar
   179   176   179   ar
   180    23    25   ar
   181   178   180   ar
   182   190   189    2
   183    26    27   ar
   184     2     3    1
   185     2     1    1
   186   179   181   ar
   187     3     4    2
   188     3     8   am
   189   180   182   ar
   190    25    27   ar
   191     8     9    1
   192    27    28    1
   193     9    12    1
   194   181   182   ar
   195    12    13    1
   196    13    14    1
   197    15    14   ar
   198    14    16   ar
