@<TRIPOS>MOLECULE
tmp/2y7pA02.pdb
 100 98 0 0 0
SMALL
GASTEIGER

@<TRIPOS>ATOM
      1  N         18.8380   44.9080    0.7200 N.3    17  ILE17      -0.1245
      2  CA        17.4770   44.3600    0.9520 C.3    17  ILE17       0.1561
      3  C         16.4960   44.9210   -0.0680 C.2    17  ILE17       0.2260
      4  O         15.6520   44.1990   -0.6650 O.2    17  ILE17      -0.2867
      5  CB        16.9500   44.7900    2.3690 C.3    17  ILE17       0.0252
      6  CG1       17.6880   44.0640    3.4810 C.3    17  ILE17       0.0019
      7  CG2       15.4480   44.5300    2.5300 C.3    17  ILE17       0.0019
      8  CD1       17.1160   44.4260    4.8470 C.3    17  ILE17       0.0001
      9  N         16.9710   43.3730   -3.6040 N.3    20  MET20      -0.1230
     10  CA        16.3590   42.0410   -3.6460 C.3    20  MET20       0.1702
     11  C         14.8370   42.0750   -3.6610 C.2    20  MET20       0.2592
     12  O         14.1860   41.3070   -4.3550 O.2    20  MET20      -0.2718
     13  CB        16.7610   41.2070   -2.3910 C.3    20  MET20       0.0401
     14  CG        18.0160   40.4470   -2.6020 C.3    20  MET20       0.0596
     15  SD        17.9990   38.9420   -1.5840 S.3    20  MET20      -0.1393
     16  CE        19.3810   38.1370   -2.3880 C.3    20  MET20       0.0692
     17  N         14.2790   43.0570   -2.9680 N.am   21  TYR21      -0.1976
     18  CA        12.8000   43.1990   -2.8870 C.3    21  TYR21       0.1639
     19  C         12.1900   43.8830   -4.1050 C.2    21  TYR21       0.2290
     20  O         11.1950   43.3890   -4.6810 O.2    21  TYR21      -0.2864
     21  CB        12.5120   44.0180   -1.5970 C.3    21  TYR21       0.0560
     22  CG        11.0250   44.0890   -1.2560 C.ar   21  TYR21      -0.0198
     23  CD1       10.4120   43.0600   -0.5290 C.ar   21  TYR21      -0.0009
     24  CD2       10.2480   45.1710   -1.6600 C.ar   21  TYR21      -0.0009
     25  CE1        9.0380   43.1170   -0.2090 C.ar   21  TYR21       0.0417
     26  CE2        8.8560   45.2420   -1.3530 C.ar   21  TYR21       0.0417
     27  CZ         8.2690   44.2250   -0.6450 C.ar   21  TYR21       0.1957
     28  OH         6.9290   44.3180   -0.3170 O.3    21  TYR21      -0.2866
     29  N         13.4620   42.5820   -8.8010 N.3    24  PRO24      -0.2116
     30  CA        12.8600   41.4910   -9.6330 C.3    24  PRO24       0.1372
     31  C         11.4730   41.8550  -10.2270 C.2    24  PRO24       0.2244
     32  O         11.3230   41.8380  -11.4640 O.2    24  PRO24      -0.2868
     33  CB        12.7720   40.2990   -8.6650 C.3    24  PRO24       0.0268
     34  CG        13.9050   40.5840   -7.6790 C.3    24  PRO24       0.0207
     35  CD        13.8530   42.0820   -7.4740 C.3    24  PRO24       0.0892
     36  N         22.3500   42.0480    4.6290 N.3   141  ILE141     -0.1245
     37  CA        22.1010   40.8890    3.7490 C.3   141  ILE141      0.1561
     38  C         22.7210   39.5480    4.1780 C.2   141  ILE141      0.2260
     39  O         22.0970   38.5030    3.9710 O.2   141  ILE141     -0.2867
     40  CB        22.4060   41.1910    2.2120 C.3   141  ILE141      0.0252
     41  CG1       21.5940   40.2240    1.3470 C.3   141  ILE141      0.0019
     42  CG2       23.9320   41.2060    1.9640 C.3   141  ILE141      0.0019
     43  CD1       20.2150   40.6920    1.2020 C.3   141  ILE141      0.0001
     44  N         10.1310   42.2440    7.6430 N.3   159  ARG159     -0.1231
     45  CA         9.9520   41.5890    6.3370 C.3   159  ARG159      0.1694
     46  C         11.1960   40.8450    5.7860 C.2   159  ARG159      0.2592
     47  O         11.0680   39.8720    5.0230 O.2   159  ARG159     -0.2718
     48  CB         9.4530   42.5600    5.2630 C.3   159  ARG159      0.0321
     49  CG         8.0390   42.9850    5.5230 C.3   159  ARG159      0.0489
     50  CD         7.4550   43.7270    4.3400 C.3   159  ARG159      0.2205
     51  NE         6.0780   44.0420    4.6760 N.pl3 159  ARG159     -0.0865
     52  CZ         5.1720   44.4160    3.8020 C.cat 159  ARG159      0.5346
     53  NH1        5.4960   44.5580    2.4920 N.pl3 159  ARG159      0.1354
     54  NH2        3.9470   44.6220    4.2500 N.pl3 159  ARG159      0.1354
     55  N         12.3770   41.3570    6.1280 N.am  160  PHE160     -0.1976
     56  CA        13.6070   40.7010    5.7620 C.3   160  PHE160      0.1639
     57  C         13.7820   39.4130    6.6150 C.2   160  PHE160      0.2290
     58  O         14.0790   38.3430    6.0540 O.2   160  PHE160     -0.2864
     59  CB        14.7830   41.6340    5.9840 C.3   160  PHE160      0.0560
     60  CG        16.1140   40.9630    5.7670 C.ar  160  PHE160     -0.0200
     61  CD1       16.4150   40.4040    4.5410 C.ar  160  PHE160     -0.0042
     62  CD2       17.0230   40.8660    6.7910 C.ar  160  PHE160     -0.0042
     63  CE1       17.6480   39.7710    4.3460 C.ar  160  PHE160     -0.0003
     64  CE2       18.2670   40.2120    6.5930 C.ar  160  PHE160     -0.0003
     65  CZ        18.5530   39.7010    5.3680 C.ar  160  PHE160     -0.0000
     66  N         11.7610   36.5210    5.3900 N.3   163  ARG163     -0.1231
     67  CA        12.4010   35.8880    4.2370 C.3   163  ARG163      0.1694
     68  C         13.5830   35.0090    4.6210 C.2   163  ARG163      0.2592
     69  O         13.9140   34.1060    3.8460 O.2   163  ARG163     -0.2718
     70  CB        12.8980   36.9050    3.2040 C.3   163  ARG163      0.0321
     71  CG        11.7440   37.6560    2.5190 C.3   163  ARG163      0.0489
     72  CD        10.9750   36.8080    1.4470 C.3   163  ARG163      0.2205
     73  NE         9.7670   37.5660    1.0720 N.pl3 163  ARG163     -0.0865
     74  CZ         9.7540   38.7040    0.3560 C.cat 163  ARG163      0.5346
     75  NH1       10.8730   39.2220   -0.1500 N.pl3 163  ARG163      0.1354
     76  NH2        8.6020   39.3220    0.1300 N.pl3 163  ARG163      0.1354
     77  N         14.2030   35.2660    5.7870 N.am  164  CYS164     -0.1970
     78  CA        15.3640   34.4580    6.2120 C.3   164  CYS164      0.1712
     79  C         15.0060   33.1610    6.9470 C.2   164  CYS164      0.2296
     80  O         15.8550   32.2680    7.0190 O.2   164  CYS164     -0.2864
     81  CB        16.2910   35.2570    7.1030 C.3   164  CYS164      0.0983
     82  SG        17.1240   36.5990    6.2430 S.3   164  CYS164     -0.0798
     83  N         14.9310   29.5390    4.6610 N.3   167  PRO167     -0.2102
     84  CA        16.2390   29.2270    4.0450 C.3   167  PRO167      0.1504
     85  C         17.3950   29.0400    5.0550 C.2   167  PRO167      0.2575
     86  O         18.2790   28.2030    4.8170 O.2   167  PRO167     -0.2718
     87  CB        16.5300   30.4630    3.1710 C.3   167  PRO167      0.0282
     88  CG        15.1910   31.0570    2.9120 C.3   167  PRO167      0.0208
     89  CD        14.4170   30.8360    4.1810 C.3   167  PRO167      0.0893
     90  N         17.3930   29.7710    6.1720 N.am  168  PHE168     -0.1977
     91  CA        18.5200   29.6720    7.1210 C.3   168  PHE168      0.1639
     92  C         18.1600   29.0150    8.4470 C.2   168  PHE168      0.2290
     93  O         18.9700   29.0210    9.3590 O.2   168  PHE168     -0.2864
     94  CB        19.1320   31.0730    7.3510 C.3   168  PHE168      0.0560
     95  CG        19.6390   31.6850    6.1050 C.ar  168  PHE168     -0.0200
     96  CD1       20.7120   31.0970    5.4290 C.ar  168  PHE168     -0.0042
     97  CD2       19.0140   32.7970    5.5590 C.ar  168  PHE168     -0.0042
     98  CE1       21.1690   31.6440    4.2020 C.ar  168  PHE168     -0.0003
     99  CE2       19.4700   33.3700    4.3510 C.ar  168  PHE168     -0.0003
    100  CZ        20.5360   32.7990    3.6740 C.ar  168  PHE168     -0.0000
@<TRIPOS>BOND
     1    32    31    2
     2    31    30    1
     3    30    29    1
     4    30    33    1
     5    29    35    1
     6    33    34    1
     7    34    35    1
     8    20    19    2
     9    12    11    2
    10    19    18    1
    11    11    10    1
    12    11    17   am
    13    10     9    1
    14    10    13    1
    15    17    18    1
    16    18    21    1
    17    14    13    1
    18    14    15    1
    19    16    15    1
    20    24    26   ar
    21    24    22   ar
    22    21    22    1
    23    26    27   ar
    24    22    23   ar
    25     4     3    2
    26    27    28    1
    27    27    25   ar
    28    23    25   ar
    29    75    74    1
    30     3     2    1
    31    76    74    1
    32    74    73    2
    33     1     2    1
    34     2     5    1
    35    73    72    1
    36    43    41    1
    37    41    40    1
    38    72    71    1
    39    42    40    1
    40    40    37    1
    41     5     7    1
    42     5     6    1
    43    53    52    1
    44    71    70    1
    45    88    87    1
    46    88    89    1
    47    87    84    1
    48    70    67    1
    49     6     8    1
    50   100    98   ar
    51   100    99   ar
    52    37    38    1
    53    37    36    1
    54    52    54    1
    55    52    51    2
    56    69    68    2
    57    39    38    2
    58    84    83    1
    59    84    85    1
    60    89    83    1
    61    98    96   ar
    62    67    68    1
    63    67    66    1
    64    50    51    1
    65    50    49    1
    66    63    61   ar
    67    63    65   ar
    68    99    97   ar
    69    61    60   ar
    70    68    77   am
    71    86    85    2
    72    47    46    2
    73    85    90   am
    74    48    49    1
    75    48    45    1
    76    65    64   ar
    77    96    95   ar
    78    97    95   ar
    79    56    59    1
    80    56    55    1
    81    56    57    1
    82    60    59    1
    83    60    62   ar
    84    46    55   am
    85    46    45    1
    86    77    78    1
    87    58    57    2
    88    95    94    1
    89    90    91    1
    90    78    79    1
    91    78    81    1
    92    82    81    1
    93    45    44    1
    94    64    62   ar
    95    79    80    2
    96    91    94    1
    97    91    92    1
    98    92    93    2
