@<TRIPOS>MOLECULE
tmp/2y7pA00.pdb
 138 134 0 0 0
SMALL
GASTEIGER

@<TRIPOS>ATOM
      1  N         18.8490   49.9790   -0.5790 N.3    15  THR15      -0.1218
      2  CA        19.7860   49.1270    0.1780 C.3    15  THR15       0.1862
      3  C         19.9000   47.7690   -0.5140 C.2    15  THR15       0.2287
      4  O         19.1760   47.4680   -1.5180 O.2    15  THR15      -0.2866
      5  CB        19.2860   48.9070    1.6250 C.3    15  THR15       0.1770
      6  OG1       18.0340   48.2310    1.5500 O.3    15  THR15      -0.2211
      7  CG2       19.1160   50.2720    2.3670 C.3    15  THR15       0.0375
      8  N         18.8380   44.9080    0.7200 N.3    17  ILE17      -0.1231
      9  CA        17.4770   44.3600    0.9520 C.3    17  ILE17       0.1692
     10  C         16.4960   44.9210   -0.0680 C.2    17  ILE17       0.2592
     11  O         15.6520   44.1990   -0.6650 O.2    17  ILE17      -0.2718
     12  CB        16.9500   44.7900    2.3690 C.3    17  ILE17       0.0266
     13  CG1       17.6880   44.0640    3.4810 C.3    17  ILE17       0.0019
     14  CG2       15.4480   44.5300    2.5300 C.3    17  ILE17       0.0020
     15  CD1       17.1160   44.4260    4.8470 C.3    17  ILE17       0.0001
     16  N         16.5840   46.2470   -0.2320 N.am   18  GLY18      -0.1957
     17  CA        15.7030   46.9430   -1.1840 C.3    18  GLY18       0.1869
     18  C         15.9020   46.4100   -2.6090 C.2    18  GLY18       0.2309
     19  O         14.9500   46.1590   -3.3410 O.2    18  GLY18      -0.2863
     20  N         14.2790   43.0570   -2.9680 N.3    21  TYR21      -0.1227
     21  CA        12.8000   43.1990   -2.8870 C.3    21  TYR21       0.1736
     22  C         12.1900   43.8830   -4.1050 C.2    21  TYR21       0.2595
     23  O         11.1950   43.3890   -4.6810 O.2    21  TYR21      -0.2718
     24  CB        12.5120   44.0180   -1.5970 C.3    21  TYR21       0.0548
     25  CG        11.0250   44.0890   -1.2560 C.ar   21  TYR21      -0.0200
     26  CD1       10.4120   43.0600   -0.5290 C.ar   21  TYR21      -0.0009
     27  CD2       10.2480   45.1710   -1.6600 C.ar   21  TYR21      -0.0009
     28  CE1        9.0380   43.1170   -0.2090 C.ar   21  TYR21       0.0417
     29  CE2        8.8560   45.2420   -1.3530 C.ar   21  TYR21       0.0417
     30  CZ         8.2690   44.2250   -0.6450 C.ar   21  TYR21       0.1957
     31  OH         6.9290   44.3180   -0.3170 O.3    21  TYR21      -0.2866
     32  N         12.7540   45.0130   -4.5080 N.am   22  PHE22      -0.1976
     33  CA        12.1350   45.9090   -5.5470 C.3    22  PHE22       0.1639
     34  C         12.5190   45.5540   -6.9940 C.2    22  PHE22       0.2290
     35  O         11.6890   45.6760   -7.9210 O.2    22  PHE22      -0.2864
     36  CB        12.5370   47.3580   -5.3120 C.3    22  PHE22       0.0560
     37  CG        11.9320   47.9620   -4.0770 C.ar   22  PHE22      -0.0200
     38  CD1       10.5280   48.0390   -3.9470 C.ar   22  PHE22      -0.0042
     39  CD2       12.7550   48.4030   -3.0260 C.ar   22  PHE22      -0.0042
     40  CE1        9.9070   48.5700   -2.7920 C.ar   22  PHE22      -0.0003
     41  CE2       12.1700   48.9810   -1.8580 C.ar   22  PHE22      -0.0003
     42  CZ        10.7280   49.0480   -1.7180 C.ar   22  PHE22      -0.0000
     43  N         14.4960   54.6170   -2.3980 N.3    62  LEU62      -0.1231
     44  CA        13.5300   53.7150   -1.7230 C.3    62  LEU62       0.1693
     45  C         14.1260   53.2670   -0.4140 C.2    62  LEU62       0.2593
     46  O         15.2900   52.8130   -0.3920 O.2    62  LEU62      -0.2718
     47  CB        13.3300   52.4630   -2.5880 C.3    62  LEU62       0.0284
     48  CG        12.4920   52.9630   -3.7570 C.3    62  LEU62       0.0019
     49  CD1       13.2790   53.0860   -5.0690 C.3    62  LEU62       0.0001
     50  CD2       11.1550   52.3240   -3.8300 C.3    62  LEU62       0.0001
     51  N         13.3500   53.2840    0.6640 N.am   63  GLY63      -0.1942
     52  CA        13.8570   52.7140    1.9390 C.3    63  GLY63       0.2014
     53  C         13.4460   53.5340    3.1580 C.2    63  GLY63       0.2638
     54  O         12.4160   54.2490    3.1230 O.2    63  GLY63      -0.2714
     55  N         14.2380   53.4040    4.2270 N.am   64  LEU64      -0.1977
     56  CA        14.0230   54.1430    5.4750 C.3    64  LEU64       0.1596
     57  C         15.0490   55.2590    5.4290 C.2    64  LEU64       0.2287
     58  O         16.2190   55.0400    5.7040 O.2    64  LEU64      -0.2864
     59  CB        14.2650   53.2190    6.6770 C.3    64  LEU64       0.0297
     60  CG        14.1750   53.8500    8.0840 C.3    64  LEU64       0.0022
     61  CD1       12.6800   54.3630    8.3970 C.3    64  LEU64       0.0001
     62  CD2       14.5690   52.8260    9.1300 C.3    64  LEU64       0.0001
     63  N          4.9500   50.7270    2.5000 N.3    78  PHE78      -0.1241
     64  CA         4.4120   49.9100    3.6140 C.3    78  PHE78       0.1605
     65  C          5.2340   50.2720    4.8480 C.2    78  PHE78       0.2264
     66  O          6.2400   50.9990    4.7260 O.2    78  PHE78      -0.2867
     67  CB         4.4970   48.3700    3.3100 C.3    78  PHE78       0.0534
     68  CG         5.8780   47.9370    2.8570 C.ar   78  PHE78      -0.0203
     69  CD1        6.2350   48.0010    1.5120 C.ar   78  PHE78      -0.0042
     70  CD2        6.8260   47.5320    3.8020 C.ar   78  PHE78      -0.0042
     71  CE1        7.5600   47.6350    1.0930 C.ar   78  PHE78      -0.0003
     72  CE2        8.1320   47.1440    3.3800 C.ar   78  PHE78      -0.0003
     73  CZ         8.4600   47.1920    2.0400 C.ar   78  PHE78      -0.0000
     74  N          6.7670   48.4360    8.7760 N.3    80  HIS80      -0.1241
     75  CA         7.0000   47.1560    9.5100 C.3    80  HIS80       0.1621
     76  C          7.8760   47.4860   10.7030 C.2    80  HIS80       0.2264
     77  O          8.2320   48.6580   10.8870 O.2    80  HIS80      -0.2867
     78  CB         7.4870   46.0030    8.5760 C.3    80  HIS80       0.0745
     79  CG         8.8110   46.2550    7.8930 C.ar   80  HIS80       0.0817
     80  ND1        9.7420   45.2410    7.6930 N.ar   80  HIS80      -0.2268
     81  CD2        9.3300   47.3660    7.3000 C.ar   80  HIS80       0.1154
     82  CE1       10.7770   45.7290    7.0040 C.ar   80  HIS80       0.1986
     83  NE2       10.5580   47.0120    6.7560 N.ar   80  HIS80      -0.2212
     84  N         18.1660   52.8480    9.6380 N.3   117  HIS117     -0.1241
     85  CA        18.5510   51.6770   10.4410 C.3   117  HIS117      0.1621
     86  C         19.8440   51.9390   11.2080 C.2   117  HIS117      0.2264
     87  O         20.1450   51.2630   12.2070 O.2   117  HIS117     -0.2867
     88  CB        18.7270   50.4610    9.5460 C.3   117  HIS117      0.0745
     89  CG        17.5110   50.1180    8.7210 C.ar  117  HIS117      0.0817
     90  ND1       16.3240   49.6580    9.2700 N.ar  117  HIS117     -0.2268
     91  CD2       17.3280   50.1120    7.3720 C.ar  117  HIS117      0.1154
     92  CE1       15.4640   49.3900    8.2970 C.ar  117  HIS117      0.1986
     93  NE2       16.0440   49.6640    7.1320 N.ar  117  HIS117     -0.2212
     94  N         14.8810   44.1690   10.3600 N.3   157  PRO157     -0.2116
     95  CA        13.5330   44.5140    9.8510 C.3   157  PRO157      0.1372
     96  C         12.6570   43.2680    9.6660 C.2   157  PRO157      0.2244
     97  O         13.1160   42.2650    9.1150 O.2   157  PRO157     -0.2868
     98  CB        13.8300   45.1310    8.4750 C.3   157  PRO157      0.0268
     99  CG        15.2110   45.7810    8.6480 C.3   157  PRO157      0.0207
    100  CD        15.9440   44.6770    9.4530 C.3   157  PRO157      0.0892
    101  N         10.1310   42.2440    7.6430 N.3   159  ARG159     -0.1231
    102  CA         9.9520   41.5890    6.3370 C.3   159  ARG159      0.1694
    103  C         11.1960   40.8450    5.7860 C.2   159  ARG159      0.2592
    104  O         11.0680   39.8720    5.0230 O.2   159  ARG159     -0.2718
    105  CB         9.4530   42.5600    5.2630 C.3   159  ARG159      0.0321
    106  CG         8.0390   42.9850    5.5230 C.3   159  ARG159      0.0489
    107  CD         7.4550   43.7270    4.3400 C.3   159  ARG159      0.2205
    108  NE         6.0780   44.0420    4.6760 N.pl3 159  ARG159     -0.0865
    109  CZ         5.1720   44.4160    3.8020 C.cat 159  ARG159      0.5346
    110  NH1        5.4960   44.5580    2.4920 N.pl3 159  ARG159      0.1354
    111  NH2        3.9470   44.6220    4.2500 N.pl3 159  ARG159      0.1354
    112  N         12.3770   41.3570    6.1280 N.am  160  PHE160     -0.1976
    113  CA        13.6070   40.7010    5.7620 C.3   160  PHE160      0.1639
    114  C         13.7820   39.4130    6.6150 C.2   160  PHE160      0.2290
    115  O         14.0790   38.3430    6.0540 O.2   160  PHE160     -0.2864
    116  CB        14.7830   41.6340    5.9840 C.3   160  PHE160      0.0560
    117  CG        16.1140   40.9630    5.7670 C.ar  160  PHE160     -0.0200
    118  CD1       16.4150   40.4040    4.5410 C.ar  160  PHE160     -0.0042
    119  CD2       17.0230   40.8660    6.7910 C.ar  160  PHE160     -0.0042
    120  CE1       17.6480   39.7710    4.3460 C.ar  160  PHE160     -0.0003
    121  CE2       18.2670   40.2120    6.5930 C.ar  160  PHE160     -0.0003
    122  CZ        18.5530   39.7010    5.3680 C.ar  160  PHE160     -0.0000
    123  N          9.4270   51.1440   11.0340 N.3   182  ILE182     -0.1245
    124  CA        10.2130   51.2440    9.7980 C.3   182  ILE182      0.1561
    125  C          9.2460   51.6270    8.6870 C.2   182  ILE182      0.2260
    126  O          8.5160   50.7620    8.1360 O.2   182  ILE182     -0.2867
    127  CB        10.9490   49.9050    9.4260 C.3   182  ILE182      0.0252
    128  CG1       11.9210   49.4810   10.5460 C.3   182  ILE182      0.0019
    129  CG2       11.7660   50.1210    8.1040 C.3   182  ILE182      0.0019
    130  CD1       12.3000   47.9040   10.5030 C.3   182  ILE182      0.0001
    131  N          8.7590   52.3950    5.0010 N.3   184  ILE184     -0.1245
    132  CA         9.4380   52.2440    3.7410 C.3   184  ILE184      0.1561
    133  C          8.7220   53.0810    2.7050 C.2   184  ILE184      0.2260
    134  O          7.5880   52.7820    2.3490 O.2   184  ILE184     -0.2867
    135  CB         9.5040   50.7690    3.2790 C.3   184  ILE184      0.0252
    136  CG1       10.2630   49.9000    4.3520 C.3   184  ILE184      0.0019
    137  CG2       10.2650   50.6940    1.9360 C.3   184  ILE184      0.0019
    138  CD1       11.7830   50.3400    4.5980 C.3   184  ILE184      0.0001
@<TRIPOS>BOND
     1    35    34    2
     2    34    33    1
     3    33    36    1
     4    33    32    1
     5    36    37    1
     6    49    48    1
     7    23    22    2
     8    32    22   am
     9    22    21    1
    10    37    38   ar
    11    37    39   ar
    12    38    40   ar
    13    50    48    1
    14    48    47    1
    15    19    18    2
    16    39    41   ar
    17    20    21    1
    18    21    24    1
    19    40    42   ar
    20    18    17    1
    21    47    44    1
    22    43    44    1
    23    41    42   ar
    24    44    45    1
    25    27    29   ar
    26    27    25   ar
    27    24    25    1
    28     4     3    2
    29    29    30   ar
    30    25    26   ar
    31    17    16    1
    32    11    10    2
    33    30    31    1
    34    30    28   ar
    35     1     2    1
    36    26    28   ar
    37     3     2    1
    38    45    46    2
    39    45    51   am
    40    16    10   am
    41    10     9    1
    42     2     5    1
    43    51    52    1
    44     8     9    1
    45     9    12    1
    46    71    69   ar
    47    71    73   ar
    48    69    68   ar
    49     6     5    1
    50     5     7    1
    51   137   135    1
    52    52    53    1
    53    73    72   ar
    54   134   133    2
    55    12    14    1
    56    12    13    1
    57   110   109    1
    58    63    64    1
    59   133   132    1
    60    68    67    1
    61    68    70   ar
    62    54    53    2
    63    53    55   am
    64   135   132    1
    65   135   136    1
    66    67    64    1
    67    72    70   ar
    68    13    15    1
    69    64    65    1
    70   132   131    1
    71   109   111    1
    72   109   108    2
    73    55    56    1
    74   107   108    1
    75   107   106    1
    76   120   118   ar
    77   120   122   ar
    78   136   138    1
    79   118   117   ar
    80    66    65    2
    81   104   103    2
    82   105   106    1
    83   105   102    1
    84   122   121   ar
    85    57    56    1
    86    57    58    2
    87    56    59    1
    88   113   116    1
    89   113   112    1
    90   113   114    1
    91   117   116    1
    92   117   119   ar
    93   103   112   am
    94   103   102    1
    95   115   114    2
    96   102   101    1
    97   121   119   ar
    98    59    60    1
    99    83    82   ar
   100    83    81   ar
   101    82    80   ar
   102    93    91   ar
   103    93    92   ar
   104    81    79   ar
   105    91    89   ar
   106    80    79   ar
   107    79    78    1
   108    60    61    1
   109    60    62    1
   110   129   127    1
   111   126   125    2
   112    92    90   ar
   113    98    99    1
   114    98    95    1
   115    78    75    1
   116    99   100    1
   117   125   124    1
   118    89    90   ar
   119    89    88    1
   120    74    75    1
   121    97    96    2
   122   127   124    1
   123   127   128    1
   124   100    94    1
   125    75    76    1
   126    88    85    1
   127    84    85    1
   128    96    95    1
   129   124   123    1
   130    95    94    1
   131    85    86    1
   132   130   128    1
   133    76    77    2
   134    86    87    2
