@<TRIPOS>MOLECULE
tmp/2y7qA00.pdb
 91 88 0 0 0
SMALL
GASTEIGER

@<TRIPOS>ATOM
      1  N        -24.4380  -54.9080   -5.8200 N.3    29  HIS29      -0.1226
      2  CA       -24.5060  -53.5580   -5.2780 C.3    29  HIS29       0.1752
      3  C        -25.2380  -53.5310   -3.9380 C.2    29  HIS29       0.2596
      4  O        -26.4230  -53.8630   -3.8650 O.2    29  HIS29      -0.2718
      5  CB       -25.2020  -52.6360   -6.2790 C.3    29  HIS29       0.0759
      6  CG       -25.3150  -51.2160   -5.8170 C.ar   29  HIS29       0.0818
      7  ND1      -24.5230  -50.6950   -4.8180 N.ar   29  HIS29      -0.2268
      8  CD2      -26.1100  -50.2070   -6.2390 C.ar   29  HIS29       0.1154
      9  CE1      -24.8400  -49.4250   -4.6310 C.ar   29  HIS29       0.1986
     10  NE2      -25.7950  -49.1030   -5.4790 N.ar   29  HIS29      -0.2212
     11  N        -24.5180  -53.1380   -2.8870 N.am   30  ASN30      -0.1974
     12  CA       -25.0570  -53.0780   -1.5250 C.3    30  ASN30       0.1688
     13  C        -25.4220  -54.4460   -0.9390 C.2    30  ASN30       0.2292
     14  O        -25.6190  -54.5860    0.2700 O.2    30  ASN30      -0.2864
     15  CB       -26.2570  -52.1260   -1.4540 C.3    30  ASN30       0.1181
     16  CG       -25.8510  -50.6900   -1.2060 C.2    30  ASN30       0.2629
     17  OD1      -24.6840  -50.3950   -0.9530 O.2    30  ASN30      -0.2716
     18  ND2      -26.8180  -49.7870   -1.2680 N.am   30  ASN30      -0.0877
     19  N        -25.8490  -40.4590   -6.0420 N.3    48  PHE48      -0.1227
     20  CA       -25.4010  -40.7810   -4.6900 C.3    48  PHE48       0.1736
     21  C        -25.6610  -42.2250   -4.2880 C.2    48  PHE48       0.2595
     22  O        -24.8870  -42.8160   -3.5370 O.2    48  PHE48      -0.2718
     23  CB       -26.0870  -39.8650   -3.6900 C.3    48  PHE48       0.0547
     24  CG       -25.5250  -38.4810   -3.6580 C.ar   48  PHE48      -0.0202
     25  CD1      -24.3470  -38.2100   -2.9750 C.ar   48  PHE48      -0.0042
     26  CD2      -26.1770  -37.4430   -4.3040 C.ar   48  PHE48      -0.0042
     27  CE1      -23.8310  -36.9310   -2.9420 C.ar   48  PHE48      -0.0003
     28  CE2      -25.6620  -36.1620   -4.2720 C.ar   48  PHE48      -0.0003
     29  CZ       -24.4900  -35.9080   -3.5900 C.ar   48  PHE48      -0.0000
     30  N        -26.7670  -42.7810   -4.7750 N.am   49  GLU49      -0.1979
     31  CA       -27.1720  -44.1340   -4.4190 C.3    49  GLU49       0.1602
     32  C        -26.2660  -45.1490   -5.0940 C.2    49  GLU49       0.2287
     33  O        -26.2700  -46.3270   -4.7420 O.2    49  GLU49      -0.2864
     34  CB       -28.6350  -44.3780   -4.7920 C.3    49  GLU49       0.0415
     35  CG       -29.6300  -43.6370   -3.9030 C.3    49  GLU49       0.1163
     36  CD       -29.6510  -42.1410   -4.1610 C.2    49  GLU49       0.3649
     37  OE1      -29.2560  -41.7340   -5.2750 O.co2  49  GLU49      -0.2457
     38  OE2      -30.0580  -41.3750   -3.2560 O.co2  49  GLU49      -0.2457
     39  N        -23.4120  -45.2250   -4.5080 N.3    51  SER51      -0.1202
     40  CA       -22.4510  -45.4880   -3.4400 C.3    51  SER51       0.2020
     41  C        -22.6130  -46.9100   -2.9340 C.2    51  SER51       0.2619
     42  O        -23.5750  -47.5900   -3.2880 O.2    51  SER51      -0.2717
     43  CB       -22.6710  -44.5360   -2.2620 C.3    51  SER51       0.2103
     44  OG       -22.4730  -43.1870   -2.6210 O.3    51  SER51      -0.2182
     45  N        -21.6730  -47.3580   -2.1060 N.am   52  GLY52      -0.1942
     46  CA       -21.8470  -48.6010   -1.3780 C.3    52  GLY52       0.2014
     47  C        -21.0330  -49.7910   -1.8520 C.2    52  GLY52       0.2638
     48  O        -20.4010  -49.7490   -2.9060 O.2    52  GLY52      -0.2714
     49  N        -21.0740  -50.8600   -1.0590 N.am   53  GLU53      -0.1977
     50  CA       -20.3430  -52.0950   -1.3250 C.3    53  GLU53       0.1602
     51  C        -20.6960  -52.7530   -2.6540 C.2    53  GLU53       0.2287
     52  O        -21.8620  -53.0020   -2.9500 O.2    53  GLU53      -0.2864
     53  CB       -20.5990  -53.0900   -0.2000 C.3    53  GLU53       0.0415
     54  CG       -20.3600  -54.5310   -0.5750 C.3    53  GLU53       0.1163
     55  CD       -21.1030  -55.4740    0.3420 C.2    53  GLU53       0.3649
     56  OE1      -20.9870  -55.3120    1.5780 O.co2  53  GLU53      -0.2457
     57  OE2      -21.8080  -56.3680   -0.1750 O.co2  53  GLU53      -0.2457
     58  N        -15.4490  -50.6470   -2.2610 N.3    65  TYR65      -0.1241
     59  CA       -16.3950  -49.5970   -1.8910 C.3    65  TYR65       0.1605
     60  C        -16.2510  -48.2970   -2.6740 C.2    65  TYR65       0.2264
     61  O        -15.1450  -47.8430   -2.9610 O.2    65  TYR65      -0.2867
     62  CB       -16.3580  -49.3560   -0.3840 C.3    65  TYR65       0.0534
     63  CG       -17.0310  -50.4760    0.3670 C.ar   65  TYR65      -0.0201
     64  CD1      -16.4400  -51.7300    0.4520 C.ar   65  TYR65      -0.0009
     65  CD2      -18.2780  -50.2960    0.9540 C.ar   65  TYR65      -0.0009
     66  CE1      -17.0580  -52.7660    1.1200 C.ar   65  TYR65       0.0417
     67  CE2      -18.9050  -51.3240    1.6280 C.ar   65  TYR65       0.0417
     68  CZ       -18.2910  -52.5590    1.7050 C.ar   65  TYR65       0.1957
     69  OH       -18.9140  -53.5950    2.3680 O.3    65  TYR65      -0.2866
     70  N        -17.5070  -44.3270   -2.7780 N.3    67  GLU67      -0.1231
     71  CA       -18.1470  -43.1160   -2.2650 C.3    67  GLU67       0.1699
     72  C        -18.4230  -42.0950   -3.3720 C.2    67  GLU67       0.2592
     73  O        -17.5780  -41.8530   -4.2310 O.2    67  GLU67      -0.2718
     74  CB       -17.2780  -42.4540   -1.1940 C.3    67  GLU67       0.0402
     75  CG       -17.3800  -43.0640    0.1920 C.3    67  GLU67       0.1161
     76  CD       -17.2300  -42.0220    1.2960 C.2    67  GLU67       0.3649
     77  OE1      -18.1890  -41.2440    1.5230 O.co2  67  GLU67      -0.2457
     78  OE2      -16.1550  -41.9850    1.9380 O.co2  67  GLU67      -0.2457
     79  N        -19.6020  -41.4840   -3.3390 N.am   68  VAL68      -0.1980
     80  CA       -19.9180  -40.4070   -4.2720 C.3    68  VAL68       0.1595
     81  C        -20.1630  -39.0910   -3.5340 C.2    68  VAL68       0.2287
     82  O        -21.0040  -39.0240   -2.6310 O.2    68  VAL68      -0.2864
     83  CB       -21.1330  -40.7490   -5.1440 C.3    68  VAL68       0.0276
     84  CG1      -21.4160  -39.6200   -6.1300 C.3    68  VAL68       0.0022
     85  CG2      -20.8960  -42.0600   -5.8740 C.3    68  VAL68       0.0022
     86  N        -20.5070  -34.6150   -3.7530 N.3    70  SER70      -0.1217
     87  CA       -20.6340  -33.3610   -4.4960 C.3    70  SER70       0.1889
     88  C        -19.9230  -32.3000   -3.6760 C.2    70  SER70       0.2288
     89  O        -20.2050  -32.1370   -2.4880 O.2    70  SER70      -0.2866
     90  CB       -22.0940  -32.9630   -4.7220 C.3    70  SER70       0.2089
     91  OG       -22.7510  -32.6010   -3.5560 O.3    70  SER70      -0.2183
@<TRIPOS>BOND
     1     5     6    1
     2     5     2    1
     3     8     6   ar
     4     8    10   ar
     5    84    83    1
     6    19    20    1
     7    85    83    1
     8     1     2    1
     9     6     7   ar
    10    10     9   ar
    11     2     3    1
    12    37    36   ar
    13    83    80    1
    14    32    33    2
    15    32    31    1
    16     7     9   ar
    17    34    31    1
    18    34    35    1
    19    30    31    1
    20    30    21   am
    21    90    87    1
    22    90    91    1
    23    20    21    1
    24    20    23    1
    25    39    40    1
    26    87    86    1
    27    87    88    1
    28    26    28   ar
    29    26    24   ar
    30    21    22    2
    31    80    81    1
    32    80    79    1
    33    28    29   ar
    34    73    72    2
    35    36    35    1
    36    36    38   ar
    37     3     4    2
    38     3    11   am
    39    23    24    1
    40    88    89    2
    41    24    25   ar
    42    29    27   ar
    43    81    82    2
    44    40    41    1
    45    40    43    1
    46    72    79   am
    47    72    71    1
    48    42    41    2
    49    25    27   ar
    50    61    60    2
    51    52    51    2
    52    41    45   am
    53    48    47    2
    54    11    12    1
    55    70    71    1
    56    60    59    1
    57    51    50    1
    58    44    43    1
    59    71    74    1
    60    58    59    1
    61    45    46    1
    62    59    62    1
    63    47    46    1
    64    47    49   am
    65    12    15    1
    66    12    13    1
    67    15    16    1
    68    50    49    1
    69    50    53    1
    70    18    16   am
    71    16    17    2
    72    74    75    1
    73    13    14    2
    74    54    53    1
    75    54    55    1
    76    62    63    1
    77    57    55   ar
    78    75    76    1
    79    55    56   ar
    80    63    64   ar
    81    63    65   ar
    82    64    66   ar
    83    65    67   ar
    84    66    68   ar
    85    76    77   ar
    86    76    78   ar
    87    67    68   ar
    88    68    69    1
