@<TRIPOS>MOLECULE
tmp/2y7wA01.pdb
 114 109 0 0 0
SMALL
GASTEIGER

@<TRIPOS>ATOM
      1  N         12.5200    3.1480   -2.5030 N.3    83  TYR83      -0.1241
      2  CA        13.9310    2.9500   -2.8520 C.3    83  TYR83       0.1605
      3  C         14.0550    2.4130   -4.2710 C.2    83  TYR83       0.2264
      4  O         13.2820    1.5430   -4.6910 O.2    83  TYR83      -0.2867
      5  CB        14.6240    1.9840   -1.8900 C.3    83  TYR83       0.0534
      6  CG        15.0170    2.6050   -0.5700 C.ar   83  TYR83      -0.0201
      7  CD1       16.1200    3.4440   -0.4750 C.ar   83  TYR83      -0.0009
      8  CD2       14.2910    2.3580    0.5770 C.ar   83  TYR83      -0.0009
      9  CE1       16.4800    4.0190    0.7350 C.ar   83  TYR83       0.0417
     10  CE2       14.6360    2.9230    1.7690 C.ar   83  TYR83       0.0417
     11  CZ        15.7290    3.7540    1.8520 C.ar   83  TYR83       0.1957
     12  OH        16.0720    4.3210    3.0570 O.3    83  TYR83      -0.2866
     13  N         27.9450    0.5260   -3.9950 N.3   109  VAL109     -0.1231
     14  CA        28.3260    1.5710   -3.0350 C.3   109  VAL109      0.1692
     15  C         27.1810    1.7330   -2.0190 C.2   109  VAL109      0.2593
     16  O         25.9860    1.8100   -2.3780 O.2   109  VAL109     -0.2718
     17  CB        28.6790    2.9350   -3.6850 C.3   109  VAL109      0.0266
     18  CG1       29.0560    3.9800   -2.6400 C.3   109  VAL109      0.0020
     19  CG2       29.8760    2.7360   -4.6180 C.3   109  VAL109      0.0020
     20  N         27.5500    1.7390   -0.7450 N.am  110  GLY110     -0.1942
     21  CA        26.5740    1.9160    0.3050 C.3   110  GLY110      0.2014
     22  C         26.6970    3.2600    0.9890 C.2   110  GLY110      0.2639
     23  O         27.8040    3.7500    1.2270 O.2   110  GLY110     -0.2714
     24  N         25.5560    3.8640    1.3000 N.am  111  VAL111     -0.1963
     25  CA        25.5380    5.1010    2.0540 C.3   111  VAL111      0.1727
     26  C         25.1390    4.8090    3.4930 C.2   111  VAL111      0.2616
     27  O         24.1320    4.1590    3.7360 O.2   111  VAL111     -0.2715
     28  CB        24.5560    6.0920    1.4330 C.3   111  VAL111      0.0290
     29  CG1       24.6470    7.4390    2.1400 C.3   111  VAL111      0.0023
     30  CG2       24.8260    6.2240   -0.0810 C.3   111  VAL111      0.0023
     31  N         25.9240    5.2720    4.4570 N.am  112  VAL112     -0.1963
     32  CA        25.6040    4.9800    5.8490 C.3   112  VAL112      0.1727
     33  C         24.2670    5.5800    6.2950 C.2   112  VAL112      0.2616
     34  O         23.4720    4.9090    6.9550 O.2   112  VAL112     -0.2715
     35  CB        26.6820    5.4650    6.8090 C.3   112  VAL112      0.0290
     36  CG1       26.3240    5.0140    8.2200 C.3   112  VAL112      0.0023
     37  CG2       28.0530    4.9450    6.3960 C.3   112  VAL112      0.0023
     38  N         24.0280    6.8390    5.9170 N.am  113  ALA113     -0.1977
     39  CA        22.8610    7.6000    6.3710 C.3   113  ALA113      0.1597
     40  C         21.6040    6.7580    6.4820 C.2   113  ALA113      0.2287
     41  O         20.8120    6.7080    5.5520 O.2   113  ALA113     -0.2864
     42  CB        22.6220    8.7800    5.4620 C.3   113  ALA113      0.0319
     43  N         17.7770    4.5240    9.5290 N.3   114  GLY114     -0.1210
     44  CA        16.7750    3.6460    8.9440 C.3   114  GLY114      0.1956
     45  C         17.4710    2.5240    8.1840 C.2   114  GLY114      0.2612
     46  O         17.9470    2.7120    7.0520 O.2   114  GLY114     -0.2717
     47  N         17.5190    1.3460    8.8030 N.am  115  GLU115     -0.1965
     48  CA        18.3750    0.2620    8.3230 C.3   115  GLU115      0.1733
     49  C         17.8970   -0.5050    7.0700 C.2   115  GLU115      0.2616
     50  O         17.3930   -1.6190    7.1640 O.2   115  GLU115     -0.2715
     51  CB        18.7010   -0.7110    9.4700 C.3   115  GLU115      0.0429
     52  CG        17.4610   -1.3440   10.0770 C.3   115  GLU115      0.1163
     53  CD        17.7700   -2.2640   11.2430 C.2   115  GLU115      0.3649
     54  OE1       18.9700   -2.3520   11.6340 O.co2 115  GLU115     -0.2457
     55  OE2       16.8400   -2.9080   11.7660 O.co2 115  GLU115     -0.2457
     56  N         18.0990    0.0810    5.8970 N.am  116  VAL116     -0.1963
     57  CA        18.0510   -0.6930    4.6580 C.3   116  VAL116      0.1727
     58  C         18.9380   -1.9270    4.7310 C.2   116  VAL116      0.2616
     59  O         18.4740   -3.0400    4.5200 O.2   116  VAL116     -0.2715
     60  CB        18.5110    0.1560    3.4520 C.3   116  VAL116      0.0290
     61  CG1       19.3980   -0.6470    2.4900 C.3   116  VAL116      0.0023
     62  CG2       17.3100    0.7280    2.7130 C.3   116  VAL116      0.0023
     63  N         20.2210   -1.7200    5.0240 N.am  117  ASP117     -0.1971
     64  CA        21.2050   -2.8000    5.0490 C.3   117  ASP117      0.1709
     65  C         20.8810   -3.9010    6.0770 C.2   117  ASP117      0.2293
     66  O         21.2920   -5.0450    5.9270 O.2   117  ASP117     -0.2864
     67  CB        22.5860   -2.2150    5.2990 C.3   117  ASP117      0.1436
     68  CG        23.2650   -2.8250    6.4930 C.2   117  ASP117      0.3671
     69  OD1       23.9420   -3.8720    6.2870 O.co2 117  ASP117     -0.2456
     70  OD2       23.1190   -2.2520    7.6160 O.co2 117  ASP117     -0.2456
     71  N         25.5800   -8.1500    0.2490 N.3   127  ARG127     -0.1245
     72  CA        26.0750   -7.3900   -0.8880 C.3   127  ARG127      0.1563
     73  C         27.6030   -7.4470   -0.9310 C.2   127  ARG127      0.2260
     74  O         28.2610   -7.5950    0.1190 O.2   127  ARG127     -0.2867
     75  CB        25.5870   -5.9370   -0.8050 C.3   127  ARG127      0.0307
     76  CG        24.1330   -5.7690   -1.1200 C.3   127  ARG127      0.0489
     77  CD        23.6430   -4.3580   -0.8450 C.3   127  ARG127      0.2205
     78  NE        23.5670   -4.0650    0.5810 N.pl3 127  ARG127     -0.0865
     79  CZ        23.2040   -2.8930    1.0780 C.cat 127  ARG127      0.5346
     80  NH1       22.8870   -1.9000    0.2700 N.pl3 127  ARG127      0.1354
     81  NH2       23.1660   -2.7130    2.3830 N.pl3 127  ARG127      0.1354
     82  N         30.2000   -5.2360   -0.9610 N.3   129  MET129     -0.1245
     83  CA        30.2280   -3.8130   -0.6710 C.3   129  MET129      0.1570
     84  C         31.5850   -3.1780   -0.9730 C.2   129  MET129      0.2261
     85  O         32.4270   -3.0470   -0.0900 O.2   129  MET129     -0.2867
     86  CB        29.8710   -3.6050    0.7930 C.3   129  MET129      0.0387
     87  CG        29.5280   -2.1720    1.1540 C.3   129  MET129      0.0595
     88  SD        28.0490   -1.6370    0.3010 S.3   129  MET129     -0.1393
     89  CE        26.9630   -3.0330    0.6600 C.3   129  MET129      0.0692
     90  N         25.3440   11.3650    0.6320 N.3   136  PHE136     -0.1241
     91  CA        25.1090   11.1950   -0.8100 C.3   136  PHE136      0.1605
     92  C         25.8630   12.0460   -1.8350 C.2   136  PHE136      0.2264
     93  O         25.7040   11.8310   -3.0360 O.2   136  PHE136     -0.2867
     94  CB        23.6090   11.3240   -1.1010 C.3   136  PHE136      0.0534
     95  CG        22.7840   10.2480   -0.4730 C.ar  136  PHE136     -0.0203
     96  CD1       22.3990   10.3470    0.8510 C.ar  136  PHE136     -0.0042
     97  CD2       22.4120    9.1190   -1.1990 C.ar  136  PHE136     -0.0042
     98  CE1       21.6430    9.3470    1.4350 C.ar  136  PHE136     -0.0003
     99  CE2       21.6570    8.1160   -0.6150 C.ar  136  PHE136     -0.0003
    100  CZ        21.2770    8.2280    0.7030 C.ar  136  PHE136     -0.0000
    101  N         21.8030    1.6760   -3.8390 N.3   151  THR151     -0.1218
    102  CA        20.4190    1.6510   -3.4070 C.3   151  THR151      0.1862
    103  C         20.0680    3.0360   -2.9070 C.2   151  THR151      0.2287
    104  O         20.4910    3.4510   -1.8520 O.2   151  THR151     -0.2866
    105  CB        20.1480    0.5870   -2.3320 C.3   151  THR151      0.1770
    106  OG1       20.2560   -0.7210   -2.9120 O.3   151  THR151     -0.2211
    107  CG2       18.7380    0.7470   -1.7630 C.3   151  THR151      0.0375
    108  N         17.2860    6.6390   -2.6970 N.3   153  PRO153     -0.2116
    109  CA        15.8840    7.0810   -2.6630 C.3   153  PRO153      0.1372
    110  C         15.4720    7.6150   -4.0210 C.2   153  PRO153      0.2244
    111  O         16.2640    8.2750   -4.6850 O.2   153  PRO153     -0.2868
    112  CB        15.8800    8.2180   -1.6280 C.3   153  PRO153      0.0268
    113  CG        17.1040    8.0050   -0.8270 C.3   153  PRO153      0.0207
    114  CD        18.1260    7.4230   -1.7890 C.3   153  PRO153      0.0892
@<TRIPOS>BOND
     1     4     3    2
     2   111   110    2
     3    19    17    1
     4     3     2    1
     5   110   109    1
     6    13    14    1
     7   101   102    1
     8    17    14    1
     9    17    18    1
    10   102   103    1
    11   102   105    1
    12    93    92    2
    13    14    15    1
    14   106   105    1
    15   103   104    2
    16     2     1    1
    17     2     5    1
    18   108   109    1
    19   108   114    1
    20   109   112    1
    21    16    15    2
    22   105   107    1
    23    15    20   am
    24     5     6    1
    25    92    91    1
    26   114   113    1
    27   112   113    1
    28    97    99   ar
    29    97    95   ar
    30    76    77    1
    31    76    75    1
    32    94    91    1
    33    94    95    1
    34    84    83    1
    35    84    85    2
    36    82    83    1
    37    73    72    1
    38    73    74    2
    39    72    75    1
    40    72    71    1
    41    77    78    1
    42    91    90    1
    43    20    21    1
    44    83    86    1
    45    99   100   ar
    46     6     7   ar
    47     6     8   ar
    48     7     9   ar
    49    95    96   ar
    50    30    28    1
    51    80    79    1
    52    88    89    1
    53    88    87    1
    54    21    22    1
    55     8    10   ar
    56    78    79    2
    57   100    98   ar
    58     9    11   ar
    59    86    87    1
    60    96    98   ar
    61    22    23    2
    62    22    24   am
    63    79    81    1
    64    24    25    1
    65    28    25    1
    66    28    29    1
    67    10    11   ar
    68    11    12    1
    69    25    26    1
    70    61    60    1
    71    62    60    1
    72    60    57    1
    73    26    27    2
    74    26    31   am
    75    31    32    1
    76    59    58    2
    77    57    58    1
    78    57    56    1
    79    58    63   am
    80    63    64    1
    81    64    67    1
    82    64    65    1
    83    67    68    1
    84    42    39    1
    85    41    40    2
    86    32    33    1
    87    32    35    1
    88    56    49   am
    89    38    33   am
    90    38    39    1
    91    66    65    2
    92    69    68   ar
    93    33    34    2
    94    39    40    1
    95    37    35    1
    96    68    70   ar
    97    35    36    1
    98    46    45    2
    99    49    50    2
   100    49    48    1
   101    45    47   am
   102    45    44    1
   103    48    47    1
   104    48    51    1
   105    44    43    1
   106    51    52    1
   107    52    53    1
   108    53    54   ar
   109    53    55   ar
