@<TRIPOS>MOLECULE
tmp/2y80A00.pdb
 183 182 0 0 0
SMALL
GASTEIGER

@<TRIPOS>ATOM
      1  N         14.2050   10.7430   14.0380 N.3    42  HIS42      -0.1241
      2  CA        12.7240   10.7410   14.0140 C.3    42  HIS42       0.1621
      3  C         12.0870   12.0980   14.3620 C.2    42  HIS42       0.2264
      4  O         10.9110   12.3460   14.0640 O.2    42  HIS42      -0.2867
      5  CB        12.1250    9.6060   14.8650 C.3    42  HIS42       0.0745
      6  CG        11.9650    9.9370   16.3190 C.ar   42  HIS42       0.0817
      7  ND1       12.8310    9.4800   17.2890 N.ar   42  HIS42      -0.2268
      8  CD2       11.0230   10.6590   16.9690 C.ar   42  HIS42       0.1154
      9  CE1       12.4350    9.9210   18.4710 C.ar   42  HIS42       0.1986
     10  NE2       11.3380   10.6340   18.3050 N.ar   42  HIS42      -0.2212
     11  N         11.8210    4.2550   10.0370 N.3    82  LYS82      -0.1231
     12  CA        10.6550    4.5960   10.8370 C.3    82  LYS82       0.1693
     13  C          9.9960    3.3370   11.4210 C.2    82  LYS82       0.2592
     14  O          9.3080    3.3950   12.4430 O.2    82  LYS82      -0.2718
     15  CB         9.6690    5.3860    9.9730 C.3    82  LYS82       0.0285
     16  CG         8.4260    5.8910   10.6740 C.3    82  LYS82       0.0035
     17  CD         7.5420    6.6460    9.6840 C.3    82  LYS82       0.0206
     18  CE         6.1930    7.0300   10.3020 C.3    82  LYS82       0.1093
     19  NZ         5.2580    7.6290    9.2950 N.3    82  LYS82      -0.1314
     20  N         10.2390    2.1970   10.7860 N.am   83  GLU83      -0.1966
     21  CA         9.6310    0.9370   11.2030 C.3    83  GLU83       0.1733
     22  C         10.1120    0.4810   12.5810 C.2    83  GLU83       0.2617
     23  O          9.3030    0.0990   13.4200 O.2    83  GLU83      -0.2715
     24  CB         9.8690   -0.1620   10.1520 C.3    83  GLU83       0.0429
     25  CG         9.6410    0.2670    8.6800 C.3    83  GLU83       0.1163
     26  CD         8.2510    0.8610    8.3870 C.2    83  GLU83       0.3649
     27  OE1        7.2570    0.4720    9.0470 O.co2  83  GLU83      -0.2457
     28  OE2        8.1590    1.7140    7.4680 O.co2  83  GLU83      -0.2457
     29  N         11.4220    0.5550   12.8140 N.am   84  THR84      -0.1937
     30  CA        12.0320    0.0970   14.0620 C.3    84  THR84       0.2028
     31  C         12.7160    1.2050   14.8800 C.2    84  THR84       0.2642
     32  O         13.0200    1.0060   16.0570 O.2    84  THR84      -0.2714
     33  CB        13.1090   -0.9670   13.7720 C.3    84  THR84       0.1808
     34  OG1       14.0930   -0.4210   12.8800 O.3    84  THR84      -0.2208
     35  CG2       12.4860   -2.2320   13.1380 C.3    84  THR84       0.0379
     36  N         12.9500    2.3600   14.2470 N.am   85  TYR85      -0.1973
     37  CA        13.7090    3.4700   14.8510 C.3    85  TYR85       0.1639
     38  C         15.1830    3.1360   14.9780 C.2    85  TYR85       0.2290
     39  O         15.8990    3.7500   15.7760 O.2    85  TYR85      -0.2864
     40  CB        13.1190    3.9230   16.1900 C.3    85  TYR85       0.0560
     41  CG        12.0150    4.9470   16.0800 C.ar   85  TYR85      -0.0198
     42  CD1       11.1830    5.0030   14.9510 C.ar   85  TYR85      -0.0009
     43  CD2       11.7540    5.8210   17.1310 C.ar   85  TYR85      -0.0009
     44  CE1       10.1470    5.9300   14.8590 C.ar   85  TYR85       0.0417
     45  CE2       10.7160    6.7520   17.0530 C.ar   85  TYR85       0.0417
     46  CZ         9.9150    6.7960   15.9120 C.ar   85  TYR85       0.1957
     47  OH         8.8870    7.7030   15.8310 O.3    85  TYR85      -0.2866
     48  N          2.7660   10.7560   31.6830 N.3   135  GLU135     -0.1245
     49  CA         2.4270   10.2260   30.3520 C.3   135  GLU135      0.1567
     50  C          1.3180   11.0090   29.6250 C.2   135  GLU135      0.2260
     51  O          1.4140   11.2700   28.4250 O.2   135  GLU135     -0.2867
     52  CB         2.1080    8.7180   30.4160 C.3   135  GLU135      0.0388
     53  CG         2.0400    8.0460   29.0450 C.3   135  GLU135      0.1160
     54  CD         2.0060    6.5210   29.0950 C.2   135  GLU135      0.3649
     55  OE1        2.5320    5.9180   30.0590 O.co2 135  GLU135     -0.2457
     56  OE2        1.4730    5.9200   28.1340 O.co2 135  GLU135     -0.2457
     57  N          9.3970   -5.0420   21.2850 N.3   162  PHE162     -0.1227
     58  CA         9.9500   -4.7250   19.9720 C.3   162  PHE162      0.1736
     59  C         11.4510   -4.9150   19.9830 C.2   162  PHE162      0.2595
     60  O         12.0730   -4.9340   21.0490 O.2   162  PHE162     -0.2718
     61  CB         9.6040   -3.2790   19.6010 C.3   162  PHE162      0.0547
     62  CG         8.1270   -2.9740   19.6550 C.ar  162  PHE162     -0.0202
     63  CD1        7.5310   -2.5480   20.8430 C.ar  162  PHE162     -0.0042
     64  CD2        7.3360   -3.1110   18.5230 C.ar  162  PHE162     -0.0042
     65  CE1        6.1700   -2.2670   20.9060 C.ar  162  PHE162     -0.0003
     66  CE2        5.9700   -2.8320   18.5720 C.ar  162  PHE162     -0.0003
     67  CZ         5.3860   -2.4110   19.7660 C.ar  162  PHE162     -0.0000
     68  N         12.0320   -5.0270   18.7920 N.am  163  ILE163     -0.1980
     69  CA        13.4560   -5.2820   18.6500 C.3   163  ILE163      0.1595
     70  C         14.3520   -4.1590   19.1860 C.2   163  ILE163      0.2287
     71  O         14.1340   -2.9830   18.8880 O.2   163  ILE163     -0.2864
     72  CB        13.8330   -5.6130   17.1800 C.3   163  ILE163      0.0276
     73  CG1       15.2750   -6.1180   17.0990 C.3   163  ILE163      0.0022
     74  CG2       13.5740   -4.4240   16.2450 C.3   163  ILE163      0.0022
     75  CD1       15.7130   -6.4730   15.7190 C.3   163  ILE163      0.0001
     76  N         11.3000    8.4860   34.1680 N.3   179  ASP179     -0.1225
     77  CA        11.6350    8.1400   32.7850 C.3   179  ASP179      0.1805
     78  C         11.6030    9.4180   31.9390 C.2   179  ASP179      0.2598
     79  O         11.1360   10.4650   32.3930 O.2   179  ASP179     -0.2718
     80  CB        10.5770    7.1420   32.2600 C.3   179  ASP179      0.1424
     81  CG        10.9910    6.4220   30.9760 C.2   179  ASP179      0.3668
     82  OD1       12.1730    6.4820   30.5790 O.co2 179  ASP179     -0.2456
     83  OD2       10.1200    5.7610   30.3580 O.co2 179  ASP179     -0.2456
     84  N         12.1340    9.3420   30.7240 N.am  180  ALA180     -0.1966
     85  CA        11.9820   10.4250   29.7690 C.3   180  ALA180      0.1728
     86  C         10.5430   10.2730   29.2660 C.2   180  ALA180      0.2616
     87  O          9.8810    9.2770   29.5850 O.2   180  ALA180     -0.2715
     88  CB        12.9690   10.2880   28.6450 C.3   180  ALA180      0.0334
     89  N         10.0470   11.2480   28.5080 N.am  181  CYS181     -0.1954
     90  CA         8.6740   11.1760   27.9960 C.3   181  CYS181      0.1843
     91  C          8.5280   12.0210   26.7250 C.2   181  CYS181      0.2625
     92  O          9.5220   12.5180   26.1900 O.2   181  CYS181     -0.2714
     93  CB         7.6900   11.6150   29.0910 C.3   181  CYS181      0.0997
     94  SG         5.9520   11.0910   28.8820 S.3   181  CYS181     -0.0797
     95  N          7.2930   12.1640   26.2390 N.am  182  GLN182     -0.1977
     96  CA         7.0020   12.8980   25.0140 C.3   182  GLN182      0.1601
     97  C          7.6030   14.2930   25.0140 C.2   182  GLN182      0.2287
     98  O          7.3800   15.0620   25.9450 O.2   182  GLN182     -0.2864
     99  CB         5.4790   13.0050   24.8150 C.3   182  GLN182      0.0394
    100  CG         5.0820   13.5580   23.4460 C.3   182  GLN182      0.0908
    101  CD         3.5800   13.5520   23.2170 C.2   182  GLN182      0.2608
    102  OE1        3.0360   14.4670   22.6000 O.2   182  GLN182     -0.2717
    103  NE2        2.9020   12.5220   23.7180 N.am  182  GLN182     -0.0878
    104  N         12.4250   13.4440   23.2910 N.3   185  SER185     -0.1217
    105  CA        13.0730   12.7920   22.1420 C.3   185  SER185      0.1889
    106  C         14.1480   13.6720   21.5060 C.2   185  SER185      0.2288
    107  O         13.9310   14.8570   21.3100 O.2   185  SER185     -0.2866
    108  CB        12.0470   12.4470   21.0470 C.3   185  SER185      0.2089
    109  OG        11.2930   11.2860   21.3740 O.3   185  SER185     -0.2183
    110  N         17.7940   10.4020   23.4270 N.3   203  VAL203     -0.1231
    111  CA        16.4510    9.9490   23.8320 C.3   203  VAL203      0.1692
    112  C         15.7160    9.4910   22.5560 C.2   203  VAL203      0.2593
    113  O         15.5660   10.2840   21.6270 O.2   203  VAL203     -0.2718
    114  CB        15.7080   11.0820   24.5350 C.3   203  VAL203      0.0266
    115  CG1       14.2320   10.6980   24.8480 C.3   203  VAL203      0.0020
    116  CG2       16.4650   11.5040   25.8300 C.3   203  VAL203      0.0020
    117  N         15.2910    8.2190   22.5000 N.am  204  SER204     -0.1938
    118  CA        14.7150    7.6940   21.2580 C.3   204  SER204      0.2055
    119  C         13.2360    7.3090   21.3410 C.2   204  SER204      0.2643
    120  O         12.3940    7.9210   20.6760 O.2   204  SER204     -0.2714
    121  CB        15.5670    6.5410   20.7000 C.3   204  SER204      0.2130
    122  OG        15.1930    6.1750   19.3740 O.3   204  SER204     -0.2179
    123  N         12.9270    6.3050   22.1520 N.am  205  TRP205     -0.1959
    124  CA        11.5510    5.8170   22.2430 C.3   205  TRP205      0.1771
    125  C         11.2750    5.0420   23.5140 C.2   205  TRP205      0.2620
    126  O         12.1820    4.7210   24.2780 O.2   205  TRP205     -0.2715
    127  CB        11.1940    4.9700   21.0230 C.3   205  TRP205      0.0590
    128  CG        12.0110    3.7240   20.7890 C.ar  205  TRP205      0.0006
    129  CD1       13.1730    3.6230   20.0600 C.ar  205  TRP205      0.0946
    130  CD2       11.6830    2.3880   21.2030 C.ar  205  TRP205      0.0152
    131  NE1       13.5960    2.3140   20.0230 N.ar  205  TRP205     -0.2442
    132  CE2       12.7000    1.5350   20.7120 C.ar  205  TRP205      0.0810
    133  CE3       10.6320    1.8300   21.9500 C.ar  205  TRP205      0.0012
    134  CZ2       12.7040    0.1500   20.9520 C.ar  205  TRP205      0.0191
    135  CZ3       10.6360    0.4520   22.1850 C.ar  205  TRP205      0.0001
    136  CH2       11.6580   -0.3690   21.6810 C.ar  205  TRP205      0.0015
    137  N         10.0050    4.7440   23.7370 N.am  206  GLY206     -0.1940
    138  CA         9.6160    3.9550   24.8890 C.3   206  GLY206      0.2014
    139  C          8.1910    3.5110   24.6870 C.2   206  GLY206      0.2639
    140  O          7.4430    4.1410   23.9370 O.2   206  GLY206     -0.2714
    141  N          7.8200    2.4120   25.3320 N.am  207  GLU207     -0.1963
    142  CA         6.4440    1.9290   25.2610 C.3   207  GLU207      0.1733
    143  C          5.7120    2.6600   26.3750 C.2   207  GLU207      0.2617
    144  O          5.5540    2.1410   27.4730 O.2   207  GLU207     -0.2715
    145  CB         6.4130    0.4100   25.4450 C.3   207  GLU207      0.0429
    146  CG         7.2020   -0.3370   24.3730 C.3   207  GLU207      0.1163
    147  CD         7.1670   -1.8450   24.5620 C.2   207  GLU207      0.3649
    148  OE1        6.0580   -2.4080   24.6780 O.co2 207  GLU207     -0.2457
    149  OE2        8.2450   -2.4730   24.5830 O.co2 207  GLU207     -0.2457
    150  N          5.3050    3.8940   26.0910 N.am  208  GLY208     -0.1940
    151  CA         4.7230    4.7660   27.1050 C.3   208  GLY208      0.2014
    152  C          5.8380    5.4540   27.8880 C.2   208  GLY208      0.2639
    153  O          7.0070    5.4290   27.4750 O.2   208  GLY208     -0.2714
    154  N          5.4840    6.0770   29.0080 N.am  209  CYS209     -0.1967
    155  CA         6.4540    6.7560   29.8710 C.3   209  CYS209      0.1712
    156  C          6.3860    6.1800   31.2770 C.2   209  CYS209      0.2296
    157  O          5.3080    6.1260   31.8720 O.2   209  CYS209     -0.2864
    158  CB         6.1810    8.2770   29.9490 C.3   209  CYS209      0.0983
    159  SG         6.0700    9.1190   28.3830 S.3   209  CYS209     -0.0798
    160  N         13.4280    3.0850   29.0900 N.3   216  GLY216     -0.1210
    161  CA        13.6050    4.0740   28.0200 C.3   216  GLY216      0.1956
    162  C         14.6410    3.5590   27.0340 C.2   216  GLY216      0.2612
    163  O         15.6490    2.9720   27.4410 O.2   216  GLY216     -0.2717
    164  N         14.3820    3.7370   25.7400 N.am  217  ILE217     -0.1965
    165  CA        15.2940    3.2580   24.7300 C.3   217  ILE217      0.1727
    166  C         16.0090    4.4660   24.1110 C.2   217  ILE217      0.2616
    167  O         15.3760    5.4390   23.6870 O.2   217  ILE217     -0.2715
    168  CB        14.6020    2.3820   23.6480 C.3   217  ILE217      0.0290
    169  CG1       13.6100    1.3670   24.2920 C.3   217  ILE217      0.0022
    170  CG2       15.6380    1.7070   22.7630 C.3   217  ILE217      0.0023
    171  CD1       14.2020    0.4050   25.3110 C.3   217  ILE217      0.0001
    172  N         17.3270    4.3670   24.0970 N.am  218  TYR218     -0.1974
    173  CA        18.2070    5.4310   23.6570 C.3   218  TYR218      0.1639
    174  C         19.0770    4.9970   22.4820 C.2   218  TYR218      0.2290
    175  O         19.5100    3.8580   22.4120 O.2   218  TYR218     -0.2864
    176  CB        19.1230    5.8110   24.8310 C.3   218  TYR218      0.0560
    177  CG        18.3920    6.4020   26.0250 C.ar  218  TYR218     -0.0198
    178  CD1       17.7090    5.5840   26.9440 C.ar  218  TYR218     -0.0009
    179  CD2       18.3920    7.7850   26.2430 C.ar  218  TYR218     -0.0009
    180  CE1       17.0150    6.1390   28.0270 C.ar  218  TYR218      0.0417
    181  CE2       17.7120    8.3410   27.3220 C.ar  218  TYR218      0.0417
    182  CZ        17.0290    7.5140   28.2060 C.ar  218  TYR218      0.1957
    183  OH        16.3750    8.0820   29.2610 O.3   218  TYR218     -0.2866
@<TRIPOS>BOND
     1    28    26   ar
     2    26    25    1
     3    26    27   ar
     4    25    24    1
     5    19    18    1
     6    17    18    1
     7    17    16    1
     8    15    16    1
     9    15    12    1
    10    11    12    1
    11    24    21    1
    12    20    21    1
    13    20    13   am
    14    12    13    1
    15    21    22    1
    16    13    14    2
    17    22    29   am
    18    22    23    2
    19    29    30    1
    20    34    33    1
    21    35    33    1
    22    33    30    1
    23     2     1    1
    24     2     3    1
    25     2     5    1
    26    30    31    1
    27     4     3    2
    28    36    37    1
    29    36    31   am
    30    37    38    1
    31    37    40    1
    32    44    42   ar
    33    44    46   ar
    34     5     6    1
    35    31    32    2
    36    42    41   ar
    37    38    39    2
    38    75    73    1
    39    47    46    1
    40    46    45   ar
    41    41    40    1
    42    41    43   ar
    43    74    72    1
    44     6     8   ar
    45     6     7   ar
    46     8    10   ar
    47    45    43   ar
    48    73    72    1
    49    72    69    1
    50     7     9   ar
    51    10     9   ar
    52    64    66   ar
    53    64    62   ar
    54    66    67   ar
    55    69    68    1
    56    69    70    1
    57    68    59   am
    58    71    70    2
    59   122   121    1
    60    61    62    1
    61    61    58    1
    62    62    63   ar
    63    67    65   ar
    64    58    59    1
    65    58    57    1
    66    59    60    2
    67   131   129   ar
    68   131   132   ar
    69   129   128   ar
    70   120   119    2
    71   121   118    1
    72   132   134   ar
    73   132   130   ar
    74   128   127    1
    75   128   130   ar
    76    63    65   ar
    77   134   136   ar
    78   127   124    1
    79   108   109    1
    80   108   105    1
    81   130   133   ar
    82   118   119    1
    83   118   117    1
    84   107   106    2
    85   119   123   am
    86   106   105    1
    87   113   112    2
    88   136   135   ar
    89   133   135   ar
    90   105   104    1
    91   123   124    1
    92   124   125    1
    93   175   174    2
    94   174   173    1
    95   117   112   am
    96   112   111    1
    97   102   101    2
    98   170   168    1
    99   101   100    1
   100   101   103   am
   101   110   111    1
   102   100    99    1
   103   125   137   am
   104   125   126    2
   105   168   169    1
   106   168   165    1
   107   173   172    1
   108   173   176    1
   109   167   166    2
   110   137   138    1
   111   111   114    1
   112   140   139    2
   113   172   166   am
   114   166   165    1
   115   169   171    1
   116   146   147    1
   117   146   145    1
   118   114   115    1
   119   114   116    1
   120   147   149   ar
   121   147   148   ar
   122   139   138    1
   123   139   141   am
   124   165   164    1
   125    99    96    1
   126   176   177    1
   127    97    96    1
   128    97    98    2
   129    96    95    1
   130   142   141    1
   131   142   145    1
   132   142   143    1
   133   164   162   am
   134   177   179   ar
   135   177   178   ar
   136   150   143   am
   137   150   151    1
   138    92    91    2
   139    95    91   am
   140   179   181   ar
   141   143   144    2
   142    91    90    1
   143   178   180   ar
   144   162   163    2
   145   162   161    1
   146   151   152    1
   147   181   182   ar
   148   153   152    2
   149   152   154   am
   150    90    89    1
   151    90    93    1
   152   161   160    1
   153   180   182   ar
   154    56    54   ar
   155   182   183    1
   156   159    94    1
   157   159   158    1
   158    51    50    2
   159    89    86   am
   160    88    85    1
   161    94    93    1
   162   154   155    1
   163    53    54    1
   164    53    52    1
   165    54    55   ar
   166    86    87    2
   167    86    85    1
   168    50    49    1
   169    85    84    1
   170   155   158    1
   171   155   156    1
   172    49    52    1
   173    49    48    1
   174    83    81   ar
   175    82    81   ar
   176    84    78   am
   177    81    80    1
   178   156   157    2
   179    78    79    2
   180    78    77    1
   181    80    77    1
   182    77    76    1
