@<TRIPOS>MOLECULE
tmp/2y82A00.pdb
 175 174 0 0 0
SMALL
GASTEIGER

@<TRIPOS>ATOM
      1  N         13.8460   10.9390   14.3320 N.3    42  HIS42      -0.1241
      2  CA        12.3690   10.9370   14.3610 C.3    42  HIS42       0.1621
      3  C         11.7440   12.2740   14.7630 C.2    42  HIS42       0.2264
      4  O         10.5460   12.4950   14.5640 O.2    42  HIS42      -0.2867
      5  CB        11.8080    9.7850   15.2100 C.3    42  HIS42       0.0745
      6  CG        11.7120   10.0850   16.6730 C.ar   42  HIS42       0.0817
      7  ND1       12.6320    9.6280   17.5890 N.ar   42  HIS42      -0.2268
      8  CD2       10.7960   10.7870   17.3790 C.ar   42  HIS42       0.1154
      9  CE1       12.2900   10.0390   18.7970 C.ar   42  HIS42       0.1986
     10  NE2       11.1790   10.7450   18.6970 N.ar   42  HIS42      -0.2212
     11  N         11.0670    4.5040   10.3290 N.3    82  LYS82      -0.1231
     12  CA         9.9880    4.6500   11.2960 C.3    82  LYS82       0.1693
     13  C          9.5150    3.3070   11.8490 C.2    82  LYS82       0.2592
     14  O          8.8750    3.2600   12.9010 O.2    82  LYS82      -0.2718
     15  CB         8.7880    5.3480   10.6450 C.3    82  LYS82       0.0285
     16  CG         9.0750    6.6880    9.9800 C.3    82  LYS82       0.0035
     17  CD         7.7610    7.3780    9.6200 C.3    82  LYS82       0.0206
     18  CE         7.9720    8.8070    9.1240 C.3    82  LYS82       0.1093
     19  NZ         6.6700    9.5290    8.9500 N.3    82  LYS82      -0.1314
     20  N          9.8290    2.2250   11.1370 N.am   83  GLU83      -0.1966
     21  CA         9.3650    0.8760   11.4950 C.3    83  GLU83       0.1733
     22  C          9.9570    0.3180   12.7800 C.2    83  GLU83       0.2617
     23  O          9.2690   -0.3450   13.5530 O.2    83  GLU83      -0.2715
     24  CB         9.6640   -0.1270   10.3610 C.3    83  GLU83       0.0429
     25  CG         9.2520    0.3220    8.9560 C.3    83  GLU83       0.1163
     26  CD         7.7780    0.7070    8.8410 C.2    83  GLU83       0.3649
     27  OE1        6.9280    0.1250    9.5610 O.co2  83  GLU83      -0.2457
     28  OE2        7.4730    1.5960    8.0120 O.co2  83  GLU83      -0.2457
     29  N         11.2350    0.5960   12.9910 N.am   84  THR84      -0.1937
     30  CA        12.0020    0.0480   14.0970 C.3    84  THR84       0.2028
     31  C         12.6740    1.1210   14.9600 C.2    84  THR84       0.2642
     32  O         13.1300    0.8270   16.0650 O.2    84  THR84      -0.2714
     33  CB        13.1450   -0.8010   13.5240 C.3    84  THR84       0.1808
     34  OG1       13.8590   -0.0020   12.5740 O.3    84  THR84      -0.2208
     35  CG2       12.6110   -2.0620   12.8180 C.3    84  THR84       0.0379
     36  N         12.7340    2.3510   14.4440 N.am   85  TYR85      -0.1973
     37  CA        13.4590    3.4580   15.0770 C.3    85  TYR85       0.1639
     38  C         14.9570    3.2010   15.1550 C.2    85  TYR85       0.2290
     39  O         15.6430    3.8120   15.9740 O.2    85  TYR85      -0.2864
     40  CB        12.8920    3.8300   16.4490 C.3    85  TYR85       0.0560
     41  CG        11.7790    4.8480   16.4210 C.ar   85  TYR85      -0.0198
     42  CD1       10.9130    4.9420   15.3230 C.ar   85  TYR85      -0.0009
     43  CD2       11.5430    5.6790   17.5210 C.ar   85  TYR85      -0.0009
     44  CE1        9.8600    5.8710   15.3050 C.ar   85  TYR85       0.0417
     45  CE2       10.4860    6.5970   17.5160 C.ar   85  TYR85       0.0417
     46  CZ         9.6520    6.6850   16.4030 C.ar   85  TYR85       0.1957
     47  OH         8.6150    7.5880   16.3760 O.3    85  TYR85      -0.2866
     48  N          2.9810   10.6210   32.0260 N.3   135  GLU135     -0.1245
     49  CA         2.6450   10.0670   30.7040 C.3   135  GLU135      0.1567
     50  C          1.5470   10.8960   30.0260 C.2   135  GLU135      0.2260
     51  O          1.6350   11.2210   28.8420 O.2   135  GLU135     -0.2867
     52  CB         2.2810    8.5860   30.8120 C.3   135  GLU135      0.0388
     53  CG         2.0850    7.8870   29.4770 C.3   135  GLU135      0.1160
     54  CD         1.9820    6.3780   29.6160 C.2   135  GLU135      0.3649
     55  OE1        2.5690    5.8020   30.5680 O.co2 135  GLU135     -0.2457
     56  OE2        1.3200    5.7680   28.7510 O.co2 135  GLU135     -0.2457
     57  N          9.3360   -4.6810   21.4930 N.3   162  PHE162     -0.1241
     58  CA         9.9440   -4.3930   20.1880 C.3   162  PHE162      0.1605
     59  C         11.4440   -4.6960   20.1650 C.2   162  PHE162      0.2264
     60  O         12.0930   -4.7280   21.2080 O.2   162  PHE162     -0.2867
     61  CB         9.6690   -2.9470   19.7930 C.3   162  PHE162      0.0534
     62  CG         8.2150   -2.5680   19.8650 C.ar  162  PHE162     -0.0203
     63  CD1        7.3780   -2.7670   18.7750 C.ar  162  PHE162     -0.0042
     64  CD2        7.6790   -2.0220   21.0310 C.ar  162  PHE162     -0.0042
     65  CE1        6.0410   -2.4190   18.8380 C.ar  162  PHE162     -0.0003
     66  CE2        6.3320   -1.6770   21.1040 C.ar  162  PHE162     -0.0003
     67  CZ         5.5150   -1.8740   20.0040 C.ar  162  PHE162     -0.0000
     68  N         11.5550    8.4000   34.4380 N.3   179  ASP179     -0.1225
     69  CA        11.8540    8.0890   33.0460 C.3   179  ASP179      0.1805
     70  C         11.7890    9.3810   32.2400 C.2   179  ASP179      0.2598
     71  O         11.3460   10.4190   32.7480 O.2   179  ASP179     -0.2718
     72  CB        10.7690    7.1350   32.5210 C.3   179  ASP179      0.1424
     73  CG        11.1600    6.4080   31.2390 C.2   179  ASP179      0.3668
     74  OD1       12.3420    6.4690   30.8050 O.co2 179  ASP179     -0.2456
     75  OD2       10.2640    5.7440   30.6690 O.co2 179  ASP179     -0.2456
     76  N         12.2470    9.3190   30.9910 N.am  180  ALA180     -0.1966
     77  CA        12.0560   10.4060   30.0420 C.3   180  ALA180      0.1728
     78  C         10.6040   10.2320   29.5940 C.2   180  ALA180      0.2616
     79  O          9.9610    9.2430   29.9750 O.2   180  ALA180     -0.2715
     80  CB        13.0020   10.2570   28.8660 C.3   180  ALA180      0.0334
     81  N         10.0840   11.1750   28.8040 N.am  181  CYS181     -0.1954
     82  CA         8.6930   11.1070   28.3430 C.3   181  CYS181      0.1843
     83  C          8.4910   11.9650   27.0810 C.2   181  CYS181      0.2625
     84  O          9.4660   12.4450   26.5010 O.2   181  CYS181     -0.2714
     85  CB         7.7350   11.5240   29.4760 C.3   181  CYS181      0.0997
     86  SG         5.9950   10.9550   29.2390 S.3   181  CYS181     -0.0797
     87  N          7.2430   12.1730   26.6570 N.am  182  GLN182     -0.1977
     88  CA         6.9880   12.9500   25.4270 C.3   182  GLN182      0.1601
     89  C          7.5690   14.3590   25.4730 C.2   182  GLN182      0.2287
     90  O          7.3490   15.0960   26.4390 O.2   182  GLN182     -0.2864
     91  CB         5.4940   13.0310   25.1040 C.3   182  GLN182      0.0394
     92  CG         5.2140   13.7050   23.7610 C.3   182  GLN182      0.0908
     93  CD         3.7390   13.8450   23.4680 C.2   182  GLN182      0.2608
     94  OE1        2.9090   13.1840   24.0910 O.2   182  GLN182     -0.2717
     95  NE2        3.4020   14.7040   22.5100 N.am  182  GLN182     -0.0878
     96  N         12.4470   13.4890   23.5600 N.3   185  SER185     -0.1217
     97  CA        13.0920   12.9200   22.3770 C.3   185  SER185      0.1889
     98  C         14.1220   13.8480   21.7410 C.2   185  SER185      0.2288
     99  O         13.9090   15.0610   21.6310 O.2   185  SER185     -0.2866
    100  CB        12.0440   12.5020   21.3370 C.3   185  SER185      0.2089
    101  OG        11.2690   11.4120   21.8130 O.3   185  SER185     -0.2183
    102  N         17.6850   10.5630   23.6080 N.3   203  VAL203     -0.1231
    103  CA        16.3580   10.0910   24.0260 C.3   203  VAL203      0.1692
    104  C         15.6280    9.6150   22.7440 C.2   203  VAL203      0.2593
    105  O         15.3800   10.4200   21.8270 O.2   203  VAL203     -0.2718
    106  CB        15.5480   11.1940   24.7620 C.3   203  VAL203      0.0266
    107  CG1       14.2160   10.6520   25.2610 C.3   203  VAL203      0.0020
    108  CG2       16.3370   11.7890   25.9500 C.3   203  VAL203      0.0020
    109  N         15.3180    8.3180   22.6680 N.am  204  SER204     -0.1938
    110  CA        14.7000    7.7860   21.4520 C.3   204  SER204      0.2055
    111  C         13.2240    7.4230   21.5940 C.2   204  SER204      0.2643
    112  O         12.3760    8.0560   20.9770 O.2   204  SER204     -0.2714
    113  CB        15.4990    6.6200   20.8620 C.3   204  SER204      0.2130
    114  OG        14.9790    6.2680   19.5810 O.3   204  SER204     -0.2179
    115  N         12.9280    6.3950   22.3930 N.am  205  TRP205     -0.1959
    116  CA        11.5530    5.9260   22.5530 C.3   205  TRP205      0.1771
    117  C         11.3190    5.1220   23.8320 C.2   205  TRP205      0.2620
    118  O         12.2390    4.8120   24.5660 O.2   205  TRP205     -0.2715
    119  CB        11.0880    5.1510   21.3030 C.3   205  TRP205      0.0590
    120  CG        11.8620    3.9030   20.9930 C.ar  205  TRP205      0.0006
    121  CD1       13.0210    3.8040   20.2540 C.ar  205  TRP205      0.0946
    122  CD2       11.5150    2.5570   21.3710 C.ar  205  TRP205      0.0152
    123  NE1       13.4260    2.4870   20.1790 N.ar  205  TRP205     -0.2442
    124  CE2       12.5230    1.7010   20.8530 C.ar  205  TRP205      0.0810
    125  CE3       10.4610    1.9930   22.1100 C.ar  205  TRP205      0.0012
    126  CZ2       12.5010    0.3060   21.0440 C.ar  205  TRP205      0.0191
    127  CZ3       10.4440    0.6090   22.3030 C.ar  205  TRP205      0.0001
    128  CH2       11.4580   -0.2190   21.7640 C.ar  205  TRP205      0.0015
    129  N         10.0570    4.8410   24.1110 N.am  206  GLY206     -0.1940
    130  CA         9.6700    4.0640   25.2750 C.3   206  GLY206      0.2014
    131  C          8.2330    3.6360   25.0860 C.2   206  GLY206      0.2639
    132  O          7.4790    4.3110   24.4030 O.2   206  GLY206     -0.2714
    133  N          7.8620    2.5090   25.6790 N.am  207  GLU207     -0.1963
    134  CA         6.4860    2.0210   25.6250 C.3   207  GLU207      0.1733
    135  C          5.7830    2.7430   26.7750 C.2   207  GLU207      0.2617
    136  O          5.7430    2.2560   27.9140 O.2   207  GLU207     -0.2715
    137  CB         6.4580    0.5020   25.7890 C.3   207  GLU207      0.0429
    138  CG         7.2790   -0.2400   24.7250 C.3   207  GLU207      0.1163
    139  CD         7.3340   -1.7470   24.9520 C.2   207  GLU207      0.3649
    140  OE1        6.2770   -2.3430   25.2560 O.co2 207  GLU207     -0.2457
    141  OE2        8.4340   -2.3370   24.8160 O.co2 207  GLU207     -0.2457
    142  N          5.2680    3.9330   26.4650 N.am  208  GLY208     -0.1940
    143  CA         4.7420    4.8350   27.4850 C.3   208  GLY208      0.2014
    144  C          5.9120    5.5080   28.1960 C.2   208  GLY208      0.2639
    145  O          7.0390    5.5740   27.6570 O.2   208  GLY208     -0.2714
    146  N          5.6490    5.9950   29.4090 N.am  209  CYS209     -0.1967
    147  CA         6.6570    6.6560   30.2330 C.3   209  CYS209      0.1712
    148  C          6.5980    6.0950   31.6430 C.2   209  CYS209      0.2296
    149  O          5.5320    6.0680   32.2590 O.2   209  CYS209     -0.2864
    150  CB         6.4050    8.1680   30.3020 C.3   209  CYS209      0.0983
    151  SG         6.2100    8.9980   28.7310 S.3   209  CYS209     -0.0798
    152  N         13.6400    3.1550   29.4030 N.3   216  GLY216     -0.1210
    153  CA        13.7970    4.1860   28.3800 C.3   216  GLY216      0.1956
    154  C         14.7410    3.6320   27.3240 C.2   216  GLY216      0.2612
    155  O         15.7330    2.9830   27.6660 O.2   216  GLY216     -0.2717
    156  N         14.4280    3.8500   26.0490 N.am  217  ILE217     -0.1965
    157  CA        15.2970    3.3800   24.9710 C.3   217  ILE217      0.1727
    158  C         16.0250    4.5760   24.3380 C.2   217  ILE217      0.2616
    159  O         15.4020    5.5650   23.9470 O.2   217  ILE217     -0.2715
    160  CB        14.5370    2.5460   23.8890 C.3   217  ILE217      0.0290
    161  CG1       13.5150    1.5710   24.5310 C.3   217  ILE217      0.0022
    162  CG2       15.5510    1.8200   22.9490 C.3   217  ILE217      0.0023
    163  CD1       14.1060    0.4660   25.3560 C.3   217  ILE217      0.0001
    164  N         17.3430    4.4610   24.2420 N.am  218  TYR218     -0.1974
    165  CA        18.2130    5.5480   23.7810 C.3   218  TYR218      0.1639
    166  C         19.0780    5.1210   22.6150 C.2   218  TYR218      0.2290
    167  O         19.4940    3.9650   22.5440 O.2   218  TYR218     -0.2864
    168  CB        19.1430    5.9630   24.9230 C.3   218  TYR218      0.0560
    169  CG        18.4210    6.4920   26.1530 C.ar  218  TYR218     -0.0198
    170  CD1       17.7880    5.6270   27.0520 C.ar  218  TYR218     -0.0009
    171  CD2       18.3750    7.8570   26.4140 C.ar  218  TYR218     -0.0009
    172  CE1       17.1180    6.1200   28.1850 C.ar  218  TYR218      0.0417
    173  CE2       17.7130    8.3530   27.5270 C.ar  218  TYR218      0.0417
    174  CZ        17.0880    7.4870   28.4080 C.ar  218  TYR218      0.1957
    175  OH        16.4470    8.0150   29.5030 O.3   218  TYR218     -0.2866
@<TRIPOS>BOND
     1    28    26   ar
     2    26    25    1
     3    26    27   ar
     4    19    18    1
     5    25    24    1
     6    18    17    1
     7    17    16    1
     8    16    15    1
     9    11    12    1
    10    24    21    1
    11    15    12    1
    12    20    21    1
    13    20    13   am
    14    12    13    1
    15    21    22    1
    16    13    14    2
    17    34    33    1
    18    22    29   am
    19    22    23    2
    20    35    33    1
    21    29    30    1
    22    33    30    1
    23    30    31    1
    24     1     2    1
    25     2     3    1
    26     2     5    1
    27    36    31   am
    28    36    37    1
    29     4     3    2
    30    31    32    2
    31    37    38    1
    32    37    40    1
    33    38    39    2
    34     5     6    1
    35    44    42   ar
    36    44    46   ar
    37    42    41   ar
    38    47    46    1
    39    46    45   ar
    40    41    40    1
    41    41    43   ar
    42     6     8   ar
    43     6     7   ar
    44     8    10   ar
    45    45    43   ar
    46     7     9   ar
    47    10     9   ar
    48    63    65   ar
    49    63    62   ar
    50    65    67   ar
    51   114   113    1
    52    61    62    1
    53    61    58    1
    54    62    64   ar
    55    67    66   ar
    56    59    58    1
    57    59    60    2
    58   123   121   ar
    59   123   124   ar
    60    58    57    1
    61   121   120   ar
    62   124   126   ar
    63   124   122   ar
    64   113   110    1
    65   112   111    2
    66   120   119    1
    67   120   122   ar
    68    64    66   ar
    69   126   128   ar
    70   119   116    1
    71   100   101    1
    72   100    97    1
    73   122   125   ar
    74   110   111    1
    75   110   109    1
    76   111   115   am
    77    99    98    2
    78    98    97    1
    79   128   127   ar
    80   105   104    2
    81   125   127   ar
    82    97    96    1
    83   115   116    1
    84    95    93   am
    85   167   166    2
    86   116   117    1
    87   166   165    1
    88   109   104   am
    89   104   103    1
    90   162   160    1
    91    93    92    1
    92    93    94    2
    93   102   103    1
    94    92    91    1
    95   165   164    1
    96   165   168    1
    97   117   129   am
    98   117   118    2
    99   160   161    1
   100   160   157    1
   101   159   158    2
   102   103   106    1
   103   129   130    1
   104   164   158   am
   105   158   157    1
   106   132   131    2
   107   161   163    1
   108   138   139    1
   109   138   137    1
   110   106   107    1
   111   106   108    1
   112   141   139   ar
   113   168   169    1
   114   139   140   ar
   115   157   156    1
   116   131   130    1
   117   131   133   am
   118    91    88    1
   119    88    89    1
   120    88    87    1
   121    89    90    2
   122   134   133    1
   123   134   137    1
   124   134   135    1
   125   156   154   am
   126   169   171   ar
   127   169   170   ar
   128   171   173   ar
   129   142   135   am
   130   142   143    1
   131    84    83    2
   132    87    83   am
   133   135   136    2
   134   170   172   ar
   135    83    82    1
   136   154   155    2
   137   154   153    1
   138   143   144    1
   139   173   174   ar
   140   145   144    2
   141   172   174   ar
   142   144   146   am
   143    82    81    1
   144    82    85    1
   145   153   152    1
   146   174   175    1
   147   151    86    1
   148   151   150    1
   149    56    54   ar
   150    81    78   am
   151    51    50    2
   152    80    77    1
   153    86    85    1
   154   146   147    1
   155    53    54    1
   156    53    52    1
   157    78    79    2
   158    78    77    1
   159    54    55   ar
   160    50    49    1
   161    77    76    1
   162   147   150    1
   163   147   148    1
   164    75    73   ar
   165    49    52    1
   166    49    48    1
   167    74    73   ar
   168    76    70   am
   169    73    72    1
   170   148   149    2
   171    70    71    2
   172    70    69    1
   173    72    69    1
   174    69    68    1
