@<TRIPOS>MOLECULE
tmp/2y85C00.pdb
 164 151 0 0 0
SMALL
GASTEIGER

@<TRIPOS>ATOM
      1  N          4.7540   -7.2660    5.4930 N.3     8  ALA8       -0.1245
      2  CA         5.5890   -6.6470    4.4590 C.3     8  ALA8        0.1562
      3  C          7.0720   -6.9220    4.7370 C.2     8  ALA8        0.2260
      4  O          7.5090   -6.8720    5.8760 O.2     8  ALA8       -0.2867
      5  CB         5.3100   -5.1560    4.3750 C.3     8  ALA8        0.0290
      6  N         10.3910   -5.3130    3.1750 N.3    10  ASP10      -0.1239
      7  CA        10.9110   -4.2930    2.2830 C.3    10  ASP10       0.1674
      8  C         12.4060   -4.4910    2.1830 C.2    10  ASP10       0.2266
      9  O         13.1030   -4.5760    3.2060 O.2    10  ASP10      -0.2867
     10  CB        10.5810   -2.9030    2.7970 C.3    10  ASP10       0.1410
     11  CG         9.1250   -2.7410    3.1530 C.2    10  ASP10       0.3668
     12  OD1        8.2660   -3.3580    2.4810 O.co2  10  ASP10      -0.2456
     13  OD2        8.8420   -2.0030    4.1220 O.co2  10  ASP10      -0.2456
     14  N          3.9450   -9.6560    1.2760 N.3    39  HIS39      -0.1241
     15  CA         4.0930   -8.4840    0.4310 C.3    39  HIS39       0.1621
     16  C          5.5730   -8.1420    0.3700 C.2    39  HIS39       0.2264
     17  O          6.1030   -7.5020    1.2650 O.2    39  HIS39      -0.2867
     18  CB         3.2790   -7.3270    0.9910 C.3    39  HIS39       0.0745
     19  CG         3.3330   -6.0880    0.1580 C.ar   39  HIS39       0.0817
     20  ND1        2.6000   -5.9320   -0.9960 N.ar   39  HIS39      -0.2268
     21  CD2        4.0360   -4.9400    0.3140 C.ar   39  HIS39       0.1154
     22  CE1        2.8570   -4.7470   -1.5190 C.ar   39  HIS39       0.1986
     23  NE2        3.7230   -4.1210   -0.7420 N.ar   39  HIS39      -0.2212
     24  N          8.8700   -6.4340   -1.2070 N.3    41  VAL41      -0.1245
     25  CA         9.0870   -5.1300   -1.8490 C.3    41  VAL41       0.1561
     26  C         10.5540   -4.8510   -2.1890 C.2    41  VAL41       0.2260
     27  O         11.4140   -4.9170   -1.3150 O.2    41  VAL41      -0.2867
     28  CB         8.5310   -3.9680   -0.9730 C.3    41  VAL41       0.0252
     29  CG1        8.6100   -2.6130   -1.7190 C.3    41  VAL41       0.0019
     30  CG2        7.1000   -4.2690   -0.5390 C.3    41  VAL41       0.0019
     31  N         12.7230   -2.0110   -2.6950 N.3    43  LEU43      -0.1245
     32  CA        12.6250   -0.5920   -2.3390 C.3    43  LEU43       0.1561
     33  C         13.6090    0.2010   -3.1800 C.2    43  LEU43       0.2260
     34  O         13.3110    1.3110   -3.6150 O.2    43  LEU43      -0.2867
     35  CB        12.8720   -0.4060   -0.8290 C.3    43  LEU43       0.0270
     36  CG        11.9000    0.4210    0.0230 C.3    43  LEU43       0.0019
     37  CD1       10.4820    0.2040   -0.3580 C.3    43  LEU43       0.0001
     38  CD2       12.0890    0.0770    1.5250 C.3    43  LEU43       0.0001
     39  N         11.9630    0.6650   -6.6220 N.3    46  ALA46      -0.1231
     40  CA        10.9200    1.7070   -6.5370 C.3    46  ALA46       0.1694
     41  C         11.4710    3.1230   -6.6140 C.2    46  ALA46       0.2592
     42  O         10.7860    4.0310   -7.0840 O.2    46  ALA46      -0.2718
     43  CB        10.1200    1.5510   -5.2560 C.3    46  ALA46       0.0304
     44  N         12.7010    3.3070   -6.1410 N.am   47  PHE47      -0.1976
     45  CA        13.3340    4.6090   -6.0840 C.3    47  PHE47       0.1639
     46  C         14.2980    4.8450   -7.2420 C.2    47  PHE47       0.2290
     47  O         14.8920    5.9230   -7.3290 O.2    47  PHE47      -0.2864
     48  CB        14.0630    4.7500   -4.7460 C.3    47  PHE47       0.0560
     49  CG        13.1850    5.2420   -3.6340 C.ar   47  PHE47      -0.0200
     50  CD1       12.2470    4.4060   -3.0530 C.ar   47  PHE47      -0.0042
     51  CD2       13.2930    6.5500   -3.1770 C.ar   47  PHE47      -0.0042
     52  CE1       11.4240    4.8600   -2.0230 C.ar   47  PHE47      -0.0003
     53  CE2       12.4790    7.0240   -2.1650 C.ar   47  PHE47      -0.0003
     54  CZ        11.5560    6.1800   -1.5660 C.ar   47  PHE47      -0.0000
     55  N          6.3030   -6.3740   -5.2480 N.3    70  SER70      -0.1202
     56  CA         6.0640   -4.9510   -5.5040 C.3    70  SER70       0.2020
     57  C          7.3640   -4.1330   -5.4750 C.2    70  SER70       0.2619
     58  O          8.3570   -4.5660   -4.9000 O.2    70  SER70      -0.2717
     59  CB         5.0630   -4.4290   -4.4760 C.3    70  SER70       0.2103
     60  OG         4.7520   -3.0760   -4.7410 O.3    70  SER70      -0.2182
     61  N          7.3590   -2.9670   -6.1210 N.am   71  GLY71      -0.1956
     62  CA         8.5430   -2.0800   -6.1670 C.3    71  GLY71       0.1869
     63  C          9.1790   -1.9180   -7.5460 C.2    71  GLY71       0.2309
     64  O          9.8270   -2.8400   -8.0650 O.2    71  GLY71      -0.2863
     65  N          2.4200   -6.1850   -7.8960 N.3    91  ASN91      -0.1240
     66  CA         1.8670   -4.8570   -7.7090 C.3    91  ASN91       0.1653
     67  C          2.5170   -3.8700   -8.6910 C.2    91  ASN91       0.2266
     68  O          3.7140   -3.5900   -8.6060 O.2    91  ASN91      -0.2867
     69  CB         2.0990   -4.4180   -6.2590 C.3    91  ASN91       0.1155
     70  CG         1.0740   -3.4360   -5.7770 C.2    91  ASN91       0.2627
     71  OD1       -0.0320   -3.3540   -6.3180 O.2    91  ASN91      -0.2716
     72  ND2        1.4320   -2.6670   -4.7500 N.am   91  ASN91      -0.0877
     73  N          3.3190   -0.2610   -9.8230 N.3    93  GLY93      -0.1225
     74  CA         3.5210    1.0140   -9.1580 C.3    93  GLY93       0.1811
     75  C          2.6880    2.1370   -9.7460 C.2    93  GLY93       0.2280
     76  O          2.3210    2.1210  -10.9290 O.2    93  GLY93      -0.2866
     77  N         -1.1180    5.0430   -4.8600 N.3   119  ASP119     -0.1239
     78  CA        -0.3790    5.7980   -3.8510 C.3   119  ASP119      0.1674
     79  C         -0.9600    7.2050   -3.8360 C.2   119  ASP119      0.2266
     80  O         -0.8040    7.9430   -4.8060 O.2   119  ASP119     -0.2867
     81  CB         1.1090    5.8910   -4.2210 C.3   119  ASP119      0.1410
     82  CG         1.8860    4.6100   -3.9440 C.2   119  ASP119      0.3668
     83  OD1        1.3130    3.6120   -3.4620 O.co2 119  ASP119     -0.2456
     84  OD2        3.1170    4.6330   -4.1930 O.co2 119  ASP119     -0.2456
     85  N          5.1880    6.6600   -4.3300 N.3   132  ARG132     -0.1245
     86  CA         6.3590    6.5940   -3.4520 C.3   132  ARG132      0.1563
     87  C          7.5930    6.2240   -4.2580 C.2   132  ARG132      0.2260
     88  O          7.5580    5.3180   -5.0830 O.2   132  ARG132     -0.2867
     89  CB         6.1360    5.5860   -2.3340 C.3   132  ARG132      0.0307
     90  CG         5.2030    6.1050   -1.2310 C.3   132  ARG132      0.0489
     91  CD         4.7470    4.9690   -0.3560 C.3   132  ARG132      0.2205
     92  NE         4.0790    3.9420   -1.1460 N.pl3 132  ARG132     -0.0865
     93  CZ         3.6780    2.7740   -0.6790 C.cat 132  ARG132      0.5346
     94  NH1        3.9100    2.4580    0.5770 N.pl3 132  ARG132      0.1354
     95  NH2        3.0730    1.9130   -1.4840 N.pl3 132  ARG132      0.1354
     96  N          1.9580    6.0620    5.5910 N.3   164  ASP164     -0.1225
     97  CA         2.7840    4.8820    5.3700 C.3   164  ASP164      0.1805
     98  C          3.9510    4.8660    6.3450 C.2   164  ASP164      0.2598
     99  O          4.7410    5.8160    6.3990 O.2   164  ASP164     -0.2718
    100  CB         3.3070    4.9370    3.9340 C.3   164  ASP164      0.1424
    101  CG         3.9540    3.6580    3.4870 C.2   164  ASP164      0.3668
    102  OD1        3.3820    2.5620    3.7330 O.co2 164  ASP164     -0.2456
    103  OD2        5.0250    3.7640    2.8400 O.co2 164  ASP164     -0.2456
    104  N          4.0430    3.8080    7.1380 N.am  165  GLY165     -0.1957
    105  CA         5.1170    3.6780    8.1050 C.3   165  GLY165      0.1869
    106  C          5.0460    4.6270    9.2940 C.2   165  GLY165      0.2309
    107  O          6.0510    4.8110    9.9730 O.2   165  GLY165     -0.2863
    108  N          2.7570    4.4140   11.9770 N.3   167  LEU167     -0.1245
    109  CA         2.1030    3.8630   13.1750 C.3   167  LEU167      0.1561
    110  C          1.0450    4.8180   13.7050 C.2   167  LEU167      0.2260
    111  O          0.8670    4.9170   14.9110 O.2   167  LEU167     -0.2867
    112  CB         3.1120    3.5520   14.3010 C.3   167  LEU167      0.0270
    113  CG         4.0200    2.3350   14.1590 C.3   167  LEU167      0.0019
    114  CD1        5.0020    2.3270   15.3230 C.3   167  LEU167      0.0001
    115  CD2        3.2290    1.0090   14.1240 C.3   167  LEU167      0.0001
    116  N         -2.9240   -0.4390    2.5360 N.3   189  SER189     -0.1202
    117  CA        -1.4960   -0.4010    2.7610 C.3   189  SER189      0.2020
    118  C         -1.1100    0.8020    3.5960 C.2   189  SER189      0.2619
    119  O         -1.3740    1.9310    3.2050 O.2   189  SER189     -0.2717
    120  CB        -0.7430   -0.3750    1.4270 C.3   189  SER189      0.2103
    121  OG         0.6030   -0.7790    1.6050 O.3   189  SER189     -0.2182
    122  N         -0.5060    0.5460    4.7540 N.am  190  GLY190     -0.1942
    123  CA         0.2130    1.5850    5.5180 C.3   190  GLY190      0.2014
    124  C         -0.4660    2.0860    6.7820 C.2   190  GLY190      0.2639
    125  O         -1.6960    2.1930    6.8400 O.2   190  GLY190     -0.2714
    126  N          0.3450    2.3340    7.8080 N.am  191  GLY191     -0.1939
    127  CA        -0.0960    3.0350    9.0130 C.3   191  GLY191      0.2014
    128  C         -0.8110    2.2200   10.0830 C.2   191  GLY191      0.2638
    129  O         -1.2440    2.7740   11.0910 O.2   191  GLY191     -0.2714
    130  N         -0.9570    0.9110    9.8870 N.am  192  VAL192     -0.1977
    131  CA        -1.5180    0.0830   10.9550 C.3   192  VAL192      0.1596
    132  C         -0.5940    0.1690   12.1550 C.2   192  VAL192      0.2287
    133  O          0.6090   -0.0490   12.0380 O.2   192  VAL192     -0.2864
    134  CB        -1.6820   -1.4050   10.5590 C.3   192  VAL192      0.0276
    135  CG1       -1.9490   -2.2660   11.7920 C.3   192  VAL192      0.0022
    136  CG2       -2.8240   -1.5610    9.5460 C.3   192  VAL192      0.0022
    137  N         -2.0440   -4.7580    4.3400 N.3   213  ILE213     -0.1231
    138  CA        -0.6090   -4.9600    4.3460 C.3   213  ILE213      0.1692
    139  C         -0.0540   -4.3670    5.6280 C.2   213  ILE213      0.2592
    140  O         -0.4330   -3.2650    5.9900 O.2   213  ILE213     -0.2718
    141  CB         0.0510   -4.2880    3.1160 C.3   213  ILE213      0.0266
    142  CG1       -0.3460   -5.0280    1.8490 C.3   213  ILE213      0.0019
    143  CG2        1.6000   -4.2910    3.2530 C.3   213  ILE213      0.0020
    144  CD1       -0.1300   -4.2720    0.5640 C.3   213  ILE213      0.0001
    145  N          0.8350   -5.0900    6.3110 N.am  214  VAL214     -0.1966
    146  CA         1.4020   -4.5920    7.5750 C.3   214  VAL214      0.1727
    147  C          2.9210   -4.8340    7.6750 C.2   214  VAL214      0.2617
    148  O          3.3710   -5.9790    7.6600 O.2   214  VAL214     -0.2715
    149  CB         0.7140   -5.2390    8.8570 C.3   214  VAL214      0.0290
    150  CG1        1.1960   -4.5450   10.1500 C.3   214  VAL214      0.0023
    151  CG2       -0.8280   -5.2350    8.7750 C.3   214  VAL214      0.0023
    152  N          3.6880   -3.7470    7.8020 N.am  215  GLY215     -0.1940
    153  CA         5.1150   -3.8150    8.0980 C.3   215  GLY215      0.2014
    154  C          5.4860   -3.3700    9.5250 C.2   215  GLY215      0.2638
    155  O          5.6670   -4.1940   10.4350 O.2   215  GLY215     -0.2714
    156  N          5.6050   -2.0560    9.7090 N.am  216  LYS216     -0.1977
    157  CA         6.2630   -1.4740   10.8890 C.3   216  LYS216      0.1596
    158  C          5.7650   -2.0650   12.2290 C.2   216  LYS216      0.2287
    159  O          6.5650   -2.4450   13.0940 O.2   216  LYS216     -0.2864
    160  CB         6.0970    0.0610   10.8620 C.3   216  LYS216      0.0298
    161  CG         6.9200    0.8190   11.8970 C.3   216  LYS216      0.0038
    162  CD         8.2180    1.3740   11.3300 C.3   216  LYS216      0.0206
    163  CE         8.0180    2.7680   10.7230 C.3   216  LYS216      0.1093
    164  NZ         9.2830    3.4630   10.3390 N.3   216  LYS216     -0.1314
@<TRIPOS>BOND
     1    76    75    2
     2    73    74    1
     3    75    74    1
     4    67    68    2
     5    67    66    1
     6    64    63    2
     7    65    66    1
     8    66    69    1
     9    63    62    1
    10    47    46    2
    11    46    45    1
    12    42    41    2
    13    39    40    1
    14    41    40    1
    15    41    44   am
    16    40    43    1
    17    71    70    2
    18    69    70    1
    19    62    61    1
    20    44    45    1
    21    61    57   am
    22    45    48    1
    23    70    72   am
    24    56    57    1
    25    56    55    1
    26    56    59    1
    27    57    58    2
    28    88    87    2
    29    77    78    1
    30    80    79    2
    31    48    49    1
    32    60    59    1
    33    85    86    1
    34    87    86    1
    35    81    82    1
    36    81    78    1
    37    84    82   ar
    38    82    83   ar
    39    78    79    1
    40    49    51   ar
    41    49    50   ar
    42    34    33    2
    43    86    89    1
    44    33    32    1
    45    51    53   ar
    46    50    52   ar
    47    31    32    1
    48    32    35    1
    49    89    90    1
    50    26    25    1
    51    26    27    2
    52    53    54   ar
    53    52    54   ar
    54    25    24    1
    55    25    28    1
    56    29    28    1
    57    22    20   ar
    58    22    23   ar
    59    95    93    1
    60    90    91    1
    61    92    93    2
    62    92    91    1
    63    20    19   ar
    64    28    30    1
    65    35    36    1
    66    23    21   ar
    67    93    94    1
    68    37    36    1
    69    36    38    1
    70    19    21   ar
    71    19    18    1
    72    16    15    1
    73    16    17    2
    74    15    18    1
    75    15    14    1
    76   144   142    1
    77   120   121    1
    78   120   117    1
    79   142   141    1
    80     8     7    1
    81     8     9    2
    82     7    10    1
    83     7     6    1
    84    12    11   ar
    85   116   117    1
    86   117   118    1
    87    10    11    1
    88   103   101   ar
    89   141   143    1
    90   141   138    1
    91    11    13   ar
    92   119   118    2
    93   101   102   ar
    94   101   100    1
    95   118   122   am
    96   100    97    1
    97   137   138    1
    98   138   139    1
    99     5     2    1
   100     2     3    1
   101     2     1    1
   102     3     4    2
   103   122   123    1
   104    97    96    1
   105    97    98    1
   106   123   124    1
   107   139   140    2
   108   139   145   am
   109   145   146    1
   110    98    99    2
   111    98   104   am
   112   124   125    2
   113   124   126   am
   114   104   105    1
   115   146   147    1
   116   146   149    1
   117   148   147    2
   118   147   152   am
   119   152   153    1
   120   126   127    1
   121   153   154    1
   122   105   106    1
   123   151   149    1
   124   149   150    1
   125   127   128    1
   126   106   107    2
   127   154   156   am
   128   154   155    2
   129   136   134    1
   130   156   157    1
   131   130   128   am
   132   130   131    1
   133   128   129    2
   134   164   163    1
   135   134   131    1
   136   134   135    1
   137   163   162    1
   138   160   157    1
   139   160   161    1
   140   157   158    1
   141   131   132    1
   142   162   161    1
   143   108   109    1
   144   133   132    2
   145   158   159    2
   146   109   110    1
   147   109   112    1
   148   110   111    2
   149   115   113    1
   150   113   112    1
   151   113   114    1
