@<TRIPOS>MOLECULE
tmp/2y88A00.pdb
 191 181 0 0 0
SMALL
GASTEIGER

@<TRIPOS>ATOM
      1  N         38.0080   16.8700    2.9950 N.3    10  ASN10      -0.1240
      2  CA        39.2220   16.4130    2.4310 C.3    10  ASN10       0.1653
      3  C         40.0310   17.6120    1.9460 C.2    10  ASN10       0.2266
      4  O         39.5030   18.3950    1.1790 O.2    10  ASN10      -0.2867
      5  CB        38.9690   15.4410    1.2770 C.3    10  ASN10       0.1155
      6  CG        38.1480   14.2630    1.7080 C.2    10  ASN10       0.2627
      7  OD1       38.3100   13.7300    2.7920 O.2    10  ASN10      -0.2716
      8  ND2       37.2650   13.8550    0.8790 N.am   10  ASN10      -0.0877
      9  N         36.9890   17.1410   -3.4200 N.3    18  ARG18      -0.1231
     10  CA        36.7390   15.7710   -3.6100 C.3    18  ARG18       0.1694
     11  C         37.4490   15.3220   -4.8880 C.2    18  ARG18       0.2591
     12  O         37.8210   16.1220   -5.7040 O.2    18  ARG18      -0.2718
     13  CB        35.2910   15.3510   -3.6970 C.3    18  ARG18       0.0321
     14  CG        34.4700   15.5880   -2.4110 C.3    18  ARG18       0.0489
     15  CD        34.8870   14.6430   -1.2310 C.3    18  ARG18       0.2205
     16  NE        34.8420   13.2360   -1.6130 N.pl3  18  ARG18      -0.0865
     17  CZ        35.8450   12.4430   -1.9250 C.cat  18  ARG18       0.5346
     18  NH1       37.0940   12.8910   -1.7880 N.pl3  18  ARG18       0.1354
     19  NH2       35.6000   11.1750   -2.3360 N.pl3  18  ARG18       0.1354
     20  N         37.6860   14.0220   -4.9580 N.am   19  LEU19      -0.1980
     21  CA        38.2240   13.3440   -6.1180 C.3    19  LEU19       0.1596
     22  C         37.3010   12.2070   -6.5200 C.2    19  LEU19       0.2287
     23  O         36.4830   11.7700   -5.7180 O.2    19  LEU19      -0.2864
     24  CB        39.6070   12.8020   -5.8270 C.3    19  LEU19       0.0297
     25  CG        40.6430   13.7160   -5.3050 C.3    19  LEU19       0.0022
     26  CD1       41.8720   12.8870   -4.8950 C.3    19  LEU19       0.0001
     27  CD2       40.9550   14.8000   -6.2630 C.3    19  LEU19       0.0001
     28  N         39.8550    8.6730   -5.9620 N.3    22  GLY22      -0.1225
     29  CA        41.0970    9.0770   -5.4020 C.3    22  GLY22       0.1811
     30  C         42.0940    9.5940   -6.3620 C.2    22  GLY22       0.2280
     31  O         43.2610    9.7460   -5.9860 O.2    22  GLY22      -0.2866
     32  N         34.9600   13.9710    9.3660 N.3    49  HIS49      -0.1241
     33  CA        36.0640   13.1370    8.9270 C.3    49  HIS49       0.1621
     34  C         36.9820   14.0150    8.1100 C.2    49  HIS49       0.2264
     35  O         36.6700   14.3900    6.9730 O.2    49  HIS49      -0.2867
     36  CB        35.4720   11.9970    8.0980 C.3    49  HIS49       0.0745
     37  CG        36.5000   11.0720    7.5960 C.ar   49  HIS49       0.0817
     38  ND1       37.0810   10.0940    8.3530 N.ar   49  HIS49      -0.2268
     39  CD2       37.0790   10.9880    6.3800 C.ar   49  HIS49       0.1154
     40  CE1       37.9800    9.4420    7.6150 C.ar   49  HIS49       0.1986
     41  NE2       37.9950    9.9690    6.4130 N.ar   49  HIS49      -0.2212
     42  N         40.5380   14.9280    6.4660 N.3    51  VAL51      -0.1245
     43  CA        41.5910   14.2120    5.8420 C.3    51  VAL51       0.1561
     44  C         42.5720   15.2340    5.2570 C.2    51  VAL51       0.2260
     45  O         42.1990   16.0840    4.4860 O.2    51  VAL51      -0.2867
     46  CB        41.0460   13.3790    4.7110 C.3    51  VAL51       0.0252
     47  CG1       42.1890   12.5340    4.1080 C.3    51  VAL51       0.0019
     48  CG2       39.9880   12.4120    5.2470 C.3    51  VAL51       0.0019
     49  N         44.7400   15.3580    2.4900 N.3    53  LEU53      -0.1245
     50  CA        45.0190   14.5980    1.3200 C.3    53  LEU53       0.1561
     51  C         46.3740   14.8740    0.8090 C.2    53  LEU53       0.2260
     52  O         47.0200   13.9730    0.3250 O.2    53  LEU53      -0.2867
     53  CB        44.0040   14.9120    0.1940 C.3    53  LEU53       0.0270
     54  CG        42.7420   14.0910    0.2010 C.3    53  LEU53       0.0019
     55  CD1       41.8670   14.5750   -1.0300 C.3    53  LEU53       0.0001
     56  CD2       43.0510   12.6010    0.1020 C.3    53  LEU53       0.0001
     57  N         48.3530   12.5340    2.7520 N.3    56  ALA56      -0.1231
     58  CA        48.1820   11.1650    2.2910 C.3    56  ALA56       0.1694
     59  C         48.9900   10.8910    0.9940 C.2    56  ALA56       0.2592
     60  O         49.5490    9.8030    0.8730 O.2    56  ALA56      -0.2718
     61  CB        46.7340   10.9000    2.0000 C.3    56  ALA56       0.0304
     62  N         49.0320   11.8640    0.0890 N.am   57  PHE57      -0.1976
     63  CA        49.8200   11.7560   -1.1590 C.3    57  PHE57       0.1639
     64  C         51.2640   12.0950   -0.9540 C.2    57  PHE57       0.2290
     65  O         52.0110   12.0150   -1.9490 O.2    57  PHE57      -0.2864
     66  CB        49.2700   12.7360   -2.1310 C.3    57  PHE57       0.0560
     67  CG        48.0910   12.2450   -2.8610 C.ar   57  PHE57      -0.0200
     68  CD1       48.2390   11.2450   -3.8000 C.ar   57  PHE57      -0.0042
     69  CD2       46.8720   12.8520   -2.7220 C.ar   57  PHE57      -0.0042
     70  CE1       47.1630   10.8020   -4.5420 C.ar   57  PHE57      -0.0003
     71  CE2       45.7260   12.3630   -3.3850 C.ar   57  PHE57      -0.0003
     72  CZ        45.9190   11.3610   -4.3470 C.ar   57  PHE57      -0.0000
     73  N         42.9010   12.2560    9.6400 N.3    80  SER80      -0.1202
     74  CA        43.7840   11.2800    8.9950 C.3    80  SER80       0.2020
     75  C         44.6460   12.0270    7.9380 C.2    80  SER80       0.2619
     76  O         44.4070   13.1780    7.5930 O.2    80  SER80      -0.2717
     77  CB        43.1050   10.1650    8.3280 C.3    80  SER80       0.2103
     78  OG        42.2810   10.6450    7.2940 O.3    80  SER80      -0.2182
     79  N         45.6040   11.2780    7.4520 N.am   81  GLY81      -0.1942
     80  CA        46.5180   11.6860    6.4170 C.3    81  GLY81       0.2014
     81  C         47.8580   11.9540    6.9830 C.2    81  GLY81       0.2639
     82  O         48.0430   12.9010    7.7390 O.2    81  GLY81      -0.2714
     83  N         48.8050   11.1580    6.5480 N.am   82  GLY82      -0.1939
     84  CA        50.2130   11.3430    6.9350 C.3    82  GLY82       0.2014
     85  C         50.5660   10.7800    8.2940 C.2    82  GLY82       0.2639
     86  O         51.6910   10.9900    8.7450 O.2    82  GLY82      -0.2714
     87  N         49.6580   10.0950    8.9670 N.am   83  ILE83      -0.1963
     88  CA        49.9420    9.6650   10.3030 C.3    83  ILE83       0.1727
     89  C         50.6170    8.3240   10.2630 C.2    83  ILE83       0.2616
     90  O         49.9960    7.2300   10.2280 O.2    83  ILE83      -0.2715
     91  CB        48.6970    9.6170   11.1880 C.3    83  ILE83       0.0290
     92  CG1       48.0030   10.9890   11.1860 C.3    83  ILE83       0.0022
     93  CG2       49.0660    9.0130   12.5790 C.3    83  ILE83       0.0023
     94  CD1       46.6080   10.9420   11.7890 C.3    83  ILE83       0.0001
     95  N         51.9330    8.4180   10.2220 N.am   84  ARG84      -0.1977
     96  CA        52.7750    7.3000    9.8210 C.3    84  ARG84       0.1597
     97  C         53.9050    7.0470   10.7680 C.2    84  ARG84       0.2287
     98  O         54.6420    6.1050   10.5660 O.2    84  ARG84      -0.2864
     99  CB        53.3460    7.5720    8.4590 C.3    84  ARG84       0.0334
    100  CG        52.2150    7.6690    7.4320 C.3    84  ARG84       0.0492
    101  CD        52.7270    7.7540    6.1040 C.3    84  ARG84       0.2205
    102  NE        51.6650    8.0680    5.1980 N.pl3  84  ARG84      -0.0865
    103  CZ        51.8690    8.2670    3.9130 C.cat  84  ARG84       0.5346
    104  NH1       53.0840    8.1600    3.4050 N.pl3  84  ARG84       0.1354
    105  NH2       50.8480    8.5940    3.1760 N.pl3  84  ARG84       0.1354
    106  N         42.7560    8.2180   11.9650 N.3   101  ASN101     -0.1225
    107  CA        42.8460    7.0370   11.1820 C.3   101  ASN101      0.1785
    108  C         44.2650    6.8940   10.6220 C.2   101  ASN101      0.2597
    109  O         44.8510    7.8830   10.1320 O.2   101  ASN101     -0.2718
    110  CB        41.9240    7.0040    9.9590 C.3   101  ASN101      0.1169
    111  CG        40.4740    7.0210   10.2570 C.2   101  ASN101      0.2627
    112  OD1       39.7000    7.1620    9.2770 O.2   101  ASN101     -0.2716
    113  ND2       40.0390    6.9350   11.5320 N.am  101  ASN101     -0.0877
    114  N         44.7450    5.6570   10.6260 N.am  102  VAL102     -0.1966
    115  CA        46.0350    5.2320   10.0790 C.3   102  VAL102      0.1727
    116  C         45.6720    4.4980    8.8040 C.2   102  VAL102      0.2617
    117  O         44.7280    3.6910    8.8030 O.2   102  VAL102     -0.2715
    118  CB        46.7870    4.2920   11.0780 C.3   102  VAL102      0.0290
    119  CG1       48.0050    3.5930   10.4810 C.3   102  VAL102      0.0023
    120  CG2       47.2230    5.0880   12.3240 C.3   102  VAL102      0.0023
    121  N         46.3480    4.8290    7.6980 N.am  103  GLY103     -0.1940
    122  CA        46.1980    4.0380    6.4820 C.3   103  GLY103      0.2014
    123  C         47.4470    3.3150    6.0990 C.2   103  GLY103      0.2639
    124  O         47.6190    2.1360    6.3670 O.2   103  GLY103     -0.2714
    125  N         48.3260    4.0370    5.4410 N.am  104  THR104     -0.1950
    126  CA        49.5860    3.4790    4.9190 C.3   104  THR104      0.1897
    127  C         50.3420    2.6980    5.9690 C.2   104  THR104      0.2313
    128  O         50.8740    1.6290    5.6940 O.2   104  THR104     -0.2863
    129  CB        50.4870    4.5980    4.3620 C.3   104  THR104      0.1794
    130  OG1       49.8310    5.2030    3.2670 O.3   104  THR104     -0.2208
    131  CG2       51.8200    4.0720    3.9030 C.3   104  THR104      0.0378
    132  N         42.1620    2.8220    8.5670 N.3   127  GLY127     -0.1225
    133  CA        41.4690    2.9850    7.2910 C.3   127  GLY127      0.1811
    134  C         41.8990    1.8510    6.3940 C.2   127  GLY127      0.2280
    135  O         43.0580    1.8060    6.0300 O.2   127  GLY127     -0.2866
    136  N         41.3110    0.8430    2.7140 N.3   129  ASP129     -0.1239
    137  CA        40.8820    1.3760    1.4540 C.3   129  ASP129      0.1674
    138  C         41.1980    0.2890    0.4200 C.2   129  ASP129      0.2266
    139  O         42.3240   -0.0870    0.1810 O.2   129  ASP129     -0.2867
    140  CB        41.6000    2.6780    1.2490 C.3   129  ASP129      0.1410
    141  CG        41.1750    3.7070    2.2780 C.2   129  ASP129      0.3668
    142  OD1       40.0660    3.5620    2.8530 O.co2 129  ASP129     -0.2456
    143  OD2       41.9420    4.6390    2.4820 O.co2 129  ASP129     -0.2456
    144  N         47.6860    1.8830   -0.2580 N.3   141  GLY141     -0.1210
    145  CA        48.3660    2.8490    0.5370 C.3   141  GLY141      0.1956
    146  C         48.8500    4.0270   -0.2400 C.2   141  GLY141      0.2612
    147  O         48.5920    4.1510   -1.4210 O.2   141  GLY141     -0.2717
    148  N         49.4790    4.9570    0.4650 N.am  142  ARG142     -0.1965
    149  CA        50.1240    6.1220   -0.0670 C.3   142  ARG142      0.1729
    150  C         49.2380    6.8490   -1.0490 C.2   142  ARG142      0.2617
    151  O         49.5730    7.0550   -2.1810 O.2   142  ARG142     -0.2715
    152  CB        51.4520    5.7370   -0.6980 C.3   142  ARG142      0.0348
    153  CG        52.3290    5.0160    0.2940 C.3   142  ARG142      0.0492
    154  CD        53.6550    5.5770    0.1410 C.3   142  ARG142      0.2205
    155  NE        54.5560    5.1120    1.1670 N.pl3 142  ARG142     -0.0865
    156  CZ        55.5500    5.8330    1.6890 C.cat 142  ARG142      0.5346
    157  NH1       55.7230    7.1240    1.3370 N.pl3 142  ARG142      0.1354
    158  NH2       56.3520    5.2350    2.5800 N.pl3 142  ARG142      0.1354
    159  N         48.1030    7.3150   -0.5770 N.am  143  GLY143     -0.1940
    160  CA        47.1860    8.0260   -1.4350 C.3   143  GLY143      0.2014
    161  C         46.5350    7.1600   -2.4820 C.2   143  GLY143      0.2638
    162  O         45.9390    7.6820   -3.4090 O.2   143  GLY143     -0.2714
    163  N         46.5850    5.8540   -2.2560 N.am  144  TRP144     -0.1973
    164  CA        46.0460    4.7770   -3.0190 C.3   144  TRP144      0.1640
    165  C         46.9210    4.4800   -4.2150 C.2   144  TRP144      0.2290
    166  O         46.4300    3.9420   -5.2020 O.2   144  TRP144     -0.2864
    167  CB        44.6070    4.9680   -3.4430 C.3   144  TRP144      0.0576
    168  CG        43.7350    5.1890   -2.2330 C.ar  144  TRP144      0.0006
    169  CD1       44.0200    4.9210   -0.9810 C.ar  144  TRP144      0.0946
    170  CD2       42.4040    5.7180   -2.2310 C.ar  144  TRP144      0.0152
    171  NE1       42.9610    5.2490   -0.1630 N.ar  144  TRP144     -0.2442
    172  CE2       41.9650    5.7620   -0.9340 C.ar  144  TRP144      0.0810
    173  CE3       41.5430    6.1560   -3.2340 C.ar  144  TRP144      0.0012
    174  CZ2       40.6460    6.1690   -0.6080 C.ar  144  TRP144      0.0191
    175  CZ3       40.3220    6.6020   -2.9210 C.ar  144  TRP144      0.0001
    176  CH2       39.8710    6.5980   -1.6380 C.ar  144  TRP144      0.0015
    177  N         36.7190    1.7500    2.8190 N.3   169  THR169     -0.1218
    178  CA        36.4160    2.3720    1.5240 C.3   169  THR169      0.1862
    179  C         36.5320    1.3500    0.4210 C.2   169  THR169      0.2287
    180  O         37.4840    0.6140    0.3760 O.2   169  THR169     -0.2866
    181  CB        37.3950    3.5330    1.2190 C.3   169  THR169      0.1770
    182  OG1       37.4820    4.4300    2.3290 O.3   169  THR169     -0.2211
    183  CG2       36.9190    4.3040   -0.0150 C.3   169  THR169      0.0375
    184  N         34.5430    5.5860   -4.3330 N.3   174  ASP174     -0.1239
    185  CA        34.8110    6.8320   -3.6360 C.3   174  ASP174      0.1674
    186  C         34.6820    7.9610   -4.6580 C.2   174  ASP174      0.2266
    187  O         35.2800    7.9480   -5.7290 O.2   174  ASP174     -0.2867
    188  CB        36.2070    6.7730   -3.0220 C.3   174  ASP174      0.1410
    189  CG        36.3620    7.7670   -1.8800 C.2   174  ASP174      0.3668
    190  OD1       35.8610    7.4370   -0.7580 O.co2 174  ASP174     -0.2456
    191  OD2       36.9660    8.7740   -2.0790 O.co2 174  ASP174     -0.2456
@<TRIPOS>BOND
     1    22    21    1
     2    22    23    2
     3    30    31    2
     4    30    29    1
     5    27    25    1
     6    21    24    1
     7    21    20    1
     8    28    29    1
     9    24    25    1
    10   187   186    2
    11    12    11    2
    12    25    26    1
    13   166   165    2
    14    20    11   am
    15    11    10    1
    16   186   185    1
    17    70    72   ar
    18    70    68   ar
    19    72    71   ar
    20   184   185    1
    21   165   164    1
    22    68    67   ar
    23    13    10    1
    24    13    14    1
    25   185   188    1
    26    10     9    1
    27   167   164    1
    28   167   168    1
    29   162   161    2
    30    71    69   ar
    31   173   175   ar
    32   173   170   ar
    33   188   189    1
    34   164   163    1
    35   175   176   ar
    36    67    69   ar
    37    67    66    1
    38   161   163   am
    39   161   160    1
    40    14    15    1
    41    19    17    1
    42   168   170   ar
    43   168   169   ar
    44   170   172   ar
    45   151   150    2
    46    66    63    1
    47   191   189   ar
    48    65    64    2
    49    17    18    1
    50    17    16    2
    51   189   190   ar
    52   176   174   ar
    53    16    15    1
    54   160   159    1
    55   147   146    2
    56    63    64    1
    57    63    62    1
    58   150   159   am
    59   150   149    1
    60    55    54    1
    61   169   171   ar
    62   172   174   ar
    63   172   171   ar
    64   152   149    1
    65   152   153    1
    66   144   145    1
    67   146   148   am
    68   146   145    1
    69   149   148    1
    70   183   181    1
    71    62    59   am
    72    56    54    1
    73   154   153    1
    74   154   155    1
    75   139   138    2
    76    53    54    1
    77    53    50    1
    78    52    51    2
    79   180   179    2
    80   138   137    1
    81   179   178    1
    82    51    50    1
    83    60    59    2
    84     8     6   am
    85    59    58    1
    86   155   156    2
    87     4     3    2
    88   181   178    1
    89   181   182    1
    90   140   137    1
    91   140   141    1
    92     5     6    1
    93     5     2    1
    94    50    49    1
    95   157   156    1
    96   137   136    1
    97   178   177    1
    98   156   158    1
    99     6     7    2
   100     3     2    1
   101    61    58    1
   102   141   143   ar
   103   141   142   ar
   104    58    57    1
   105     2     1    1
   106   105   103    1
   107   130   129    1
   108   104   103    1
   109   131   129    1
   110   103   102    2
   111    47    46    1
   112   129   126    1
   113    45    44    2
   114    46    48    1
   115    46    43    1
   116   126   125    1
   117   126   127    1
   118   102   101    1
   119    44    43    1
   120   125   123   am
   121   128   127    2
   122    43    42    1
   123   135   134    2
   124   123   124    2
   125   123   122    1
   126   101   100    1
   127    39    41   ar
   128    39    37   ar
   129   134   133    1
   130    41    40   ar
   131    80    81    1
   132    80    79    1
   133   122   121    1
   134    83    84    1
   135    83    81   am
   136    84    85    1
   137    35    34    2
   138    81    82    2
   139   133   132    1
   140    78    77    1
   141   100    99    1
   142    79    75   am
   143    76    75    2
   144    37    36    1
   145    37    38   ar
   146    40    38   ar
   147   121   116   am
   148    75    74    1
   149    36    33    1
   150    34    33    1
   151    85    86    2
   152    85    87   am
   153    77    74    1
   154    99    96    1
   155   117   116    2
   156   116   115    1
   157    33    32    1
   158    87    88    1
   159    74    73    1
   160   112   111    2
   161    96    95    1
   162    96    97    1
   163   110   111    1
   164   110   107    1
   165   115   114    1
   166   115   118    1
   167   109   108    2
   168    95    89   am
   169    90    89    2
   170   111   113   am
   171    89    88    1
   172    88    91    1
   173   119   118    1
   174    98    97    2
   175   108   114   am
   176   108   107    1
   177   118   120    1
   178   107   106    1
   179    92    91    1
   180    92    94    1
   181    91    93    1
