@<TRIPOS>MOLECULE
tmp/2y8cA00.pdb
 130 123 0 0 0
SMALL
GASTEIGER

@<TRIPOS>ATOM
      1  N         -5.2490   22.3620  -10.3640 N.3    46  PHE46      -0.1241
      2  CA        -5.5550   22.2960   -8.9300 C.3    46  PHE46       0.1605
      3  C         -5.6670   20.7970   -8.6300 C.2    46  PHE46       0.2264
      4  O         -6.6570   20.1830   -8.9800 O.2    46  PHE46      -0.2867
      5  CB        -6.8170   23.1540   -8.5920 C.3    46  PHE46       0.0534
      6  CG        -6.5810   24.6070   -8.7600 C.ar   46  PHE46      -0.0203
      7  CD1       -5.8650   25.3130   -7.8060 C.ar   46  PHE46      -0.0042
      8  CD2       -7.0300   25.2770   -9.9110 C.ar   46  PHE46      -0.0042
      9  CE1       -5.5800   26.6550   -7.9890 C.ar   46  PHE46      -0.0003
     10  CE2       -6.7460   26.6220  -10.1130 C.ar   46  PHE46      -0.0003
     11  CZ        -6.0300   27.3250   -9.1570 C.ar   46  PHE46      -0.0000
     12  N         -6.0620   17.5600   -6.4180 N.3    48  LYS48      -0.1245
     13  CA        -6.7030   17.1740   -5.1270 C.3    48  LYS48       0.1561
     14  C         -5.8930   16.0900   -4.5120 C.2    48  LYS48       0.2260
     15  O         -5.5500   15.1300   -5.1940 O.2    48  LYS48      -0.2867
     16  CB        -8.1660   16.6970   -5.3580 C.3    48  LYS48       0.0271
     17  CG        -9.0880   17.8580   -5.7640 C.3    48  LYS48       0.0035
     18  CD       -10.2550   17.2920   -6.5840 C.3    48  LYS48       0.0206
     19  CE       -10.6040   18.1210   -7.7920 C.3    48  LYS48       0.1093
     20  NZ       -11.5450   19.1860   -7.2650 N.3    48  LYS48      -0.1314
     21  N          2.0180   24.2920    3.3770 N.3    66  LEU66      -0.1245
     22  CA         2.1520   23.2720    2.3720 C.3    66  LEU66       0.1561
     23  C          3.3890   23.6680    1.5220 C.2    66  LEU66       0.2260
     24  O          3.3120   24.6280    0.7940 O.2    66  LEU66      -0.2867
     25  CB         0.9020   23.1930    1.4810 C.3    66  LEU66       0.0270
     26  CG         1.0140   22.3060    0.2190 C.3    66  LEU66       0.0019
     27  CD1        1.1040   20.8680    0.6610 C.3    66  LEU66       0.0001
     28  CD2       -0.1610   22.3700   -0.7340 C.3    66  LEU66       0.0001
     29  N          4.9810   25.4880   -7.4100 N.3    79  LEU79      -0.1245
     30  CA         3.7920   25.6430   -6.5910 C.3    79  LEU79       0.1561
     31  C          3.2210   27.0450   -6.8540 C.2    79  LEU79       0.2260
     32  O          3.8520   28.0390   -6.5330 O.2    79  LEU79      -0.2867
     33  CB         4.0710   25.4020   -5.0830 C.3    79  LEU79       0.0270
     34  CG         2.8100   25.0930   -4.2480 C.3    79  LEU79       0.0019
     35  CD1        2.0890   23.7870   -4.6430 C.3    79  LEU79       0.0001
     36  CD2        3.1200   24.9980   -2.7490 C.3    79  LEU79       0.0001
     37  N          1.1870   29.0880   -5.5310 N.3    81  ASN81      -0.1240
     38  CA         1.0210   30.0920   -4.4500 C.3    81  ASN81       0.1653
     39  C          2.2060   30.1820   -3.5570 C.2    81  ASN81       0.2266
     40  O          2.0840   30.7080   -2.4490 O.2    81  ASN81      -0.2867
     41  CB        -0.2650   29.8790   -3.6000 C.3    81  ASN81       0.1155
     42  CG        -0.4780   28.4230   -3.1520 C.2    81  ASN81       0.2627
     43  OD1       -0.0440   27.4260   -3.8390 O.2    81  ASN81      -0.2716
     44  ND2       -1.1400   28.2610   -1.9620 N.am   81  ASN81      -0.0877
     45  N          1.7950   27.0780    0.5060 N.3    84  GLY84      -0.1210
     46  CA         0.3730   27.1280    0.7900 C.3    84  GLY84       0.1956
     47  C          0.1360   27.3860    2.2920 C.2    84  GLY84       0.2612
     48  O          0.8320   26.8030    3.1600 O.2    84  GLY84      -0.2717
     49  N         -0.8570   28.2140    2.6090 N.am   85  LEU85      -0.1965
     50  CA        -1.2030   28.5340    4.0040 C.3    85  LEU85       0.1728
     51  C         -2.5210   27.8250    4.3060 C.2    85  LEU85       0.2616
     52  O         -3.5580   28.1480    3.7320 O.2    85  LEU85      -0.2715
     53  CB        -1.2630   30.0450    4.2510 C.3    85  LEU85       0.0311
     54  CG        -1.7340   30.5380    5.6140 C.3    85  LEU85       0.0022
     55  CD1       -0.8730   30.0520    6.7680 C.3    85  LEU85       0.0001
     56  CD2       -1.7430   32.0630    5.6340 C.3    85  LEU85       0.0001
     57  N         -2.4900   26.7500    5.1000 N.am   86  ILE86      -0.1963
     58  CA        -3.7920   26.0860    5.4120 C.3    86  ILE86       0.1727
     59  C         -4.2700   26.6000    6.7840 C.2    86  ILE86       0.2616
     60  O         -3.5400   26.4910    7.7880 O.2    86  ILE86      -0.2715
     61  CB        -3.7750   24.5470    5.2780 C.3    86  ILE86       0.0290
     62  CG1       -3.4870   24.1410    3.7920 C.3    86  ILE86       0.0022
     63  CG2       -5.1380   23.9270    5.7560 C.3    86  ILE86       0.0023
     64  CD1       -2.0670   23.7610    3.6430 C.3    86  ILE86       0.0001
     65  N         -5.4130   27.2850    6.8030 N.am   87  ASP87      -0.1971
     66  CA        -5.8710   27.9280    8.0890 C.3    87  ASP87       0.1709
     67  C         -6.3440   26.8920    9.0980 C.2    87  ASP87       0.2293
     68  O         -6.8310   25.8160    8.7170 O.2    87  ASP87      -0.2864
     69  CB        -7.0030   28.9540    7.8460 C.3    87  ASP87       0.1436
     70  CG        -6.4520   30.2990    7.3270 C.2    87  ASP87       0.3671
     71  OD1       -5.5880   30.9100    8.0070 O.co2  87  ASP87      -0.2456
     72  OD2       -6.8170   30.7070    6.1990 O.co2  87  ASP87      -0.2456
     73  N         -9.7580   25.2870    8.2890 N.3    90  TYR90      -0.1241
     74  CA       -10.0600   24.7190    6.9910 C.3    90  TYR90       0.1605
     75  C        -10.3840   23.2100    7.1990 C.2    90  TYR90       0.2264
     76  O         -9.6320   22.4480    7.8530 O.2    90  TYR90      -0.2867
     77  CB        -8.8510   24.8920    6.0380 C.3    90  TYR90       0.0534
     78  CG        -9.1070   24.3330    4.6670 C.ar   90  TYR90      -0.0201
     79  CD1      -10.1240   24.8870    3.8550 C.ar   90  TYR90      -0.0009
     80  CD2       -8.3490   23.2800    4.1600 C.ar   90  TYR90      -0.0009
     81  CE1      -10.3840   24.4040    2.5940 C.ar   90  TYR90       0.0417
     82  CE2       -8.6130   22.7860    2.8690 C.ar   90  TYR90       0.0417
     83  CZ        -9.6190   23.3830    2.0910 C.ar   90  TYR90       0.1957
     84  OH        -9.9480   22.9180    0.8270 O.3    90  TYR90      -0.2866
     85  N        -10.8710   19.4160    1.3150 N.3    93  GLU93      -0.1231
     86  CA        -9.8000   18.6250    0.7030 C.3    93  GLU93       0.1699
     87  C         -8.5300   19.4780    0.5170 C.2    93  GLU93       0.2592
     88  O         -8.6190   20.6420    0.0730 O.2    93  GLU93      -0.2718
     89  CB       -10.2730   18.0150   -0.6090 C.3    93  GLU93       0.0402
     90  CG        -9.3110   16.9210   -1.0930 C.3    93  GLU93       0.1161
     91  CD        -9.8050   16.1450   -2.2500 C.2    93  GLU93       0.3649
     92  OE1      -10.8610   16.5390   -2.7320 O.co2  93  GLU93      -0.2457
     93  OE2       -9.1470   15.1580   -2.7190 O.co2  93  GLU93      -0.2457
     94  N         -7.3570   18.9250    0.8350 N.am   94  ILE94      -0.1966
     95  CA        -6.0790   19.6750    0.6680 C.3    94  ILE94       0.1727
     96  C         -5.7580   19.6330   -0.8710 C.2    94  ILE94       0.2616
     97  O         -5.7730   18.5580   -1.4910 O.2    94  ILE94      -0.2715
     98  CB        -4.9100   19.0300    1.4610 C.3    94  ILE94       0.0290
     99  CG1       -4.8560   19.5190    2.9450 C.3    94  ILE94       0.0022
    100  CG2       -3.5930   19.7180    1.1200 C.3    94  ILE94       0.0023
    101  CD1       -5.9470   19.1410    3.8260 C.3    94  ILE94       0.0001
    102  N         -5.4250   20.7580   -1.4670 N.am   95  ILE95      -0.1963
    103  CA        -5.2320   20.7780   -2.9300 C.3    95  ILE95       0.1727
    104  C         -3.8650   21.4000   -3.2400 C.2    95  ILE95       0.2616
    105  O         -3.4850   22.3800   -2.6020 O.2    95  ILE95      -0.2715
    106  CB        -6.3600   21.6960   -3.5480 C.3    95  ILE95       0.0290
    107  CG1       -7.7360   21.0190   -3.4050 C.3    95  ILE95       0.0022
    108  CG2       -6.0810   21.9860   -5.0110 C.3    95  ILE95       0.0023
    109  CD1       -8.8410   22.0540   -3.4330 C.3    95  ILE95       0.0001
    110  N         -3.1030   20.8360   -4.1980 N.am   96  ALA96      -0.1963
    111  CA        -1.8340   21.5550   -4.6270 C.3    96  ALA96       0.1728
    112  C         -2.0380   22.3030   -5.9500 C.2    96  ALA96       0.2616
    113  O         -2.3940   21.6840   -6.9230 O.2    96  ALA96      -0.2715
    114  CB        -0.7320   20.5630   -4.8000 C.3    96  ALA96       0.0334
    115  N         -1.7640   23.5980   -5.9850 N.am   97  ALA97      -0.1977
    116  CA        -1.9380   24.3700   -7.2280 C.3    97  ALA97       0.1597
    117  C         -0.5930   24.2670   -7.9450 C.2    97  ALA97       0.2287
    118  O          0.3280   24.9290   -7.5460 O.2    97  ALA97      -0.2864
    119  CB        -2.2290   25.8600   -6.8760 C.3    97  ALA97       0.0319
    120  N        -18.7730   18.7180    6.4080 N.3   138  ARG138     -0.1245
    121  CA       -17.4860   18.9970    5.7160 C.3   138  ARG138      0.1563
    122  C        -16.2910   18.3530    6.4800 C.2   138  ARG138      0.2260
    123  O        -15.3480   17.8560    5.8380 O.2   138  ARG138     -0.2867
    124  CB       -17.2240   20.5100    5.6030 C.3   138  ARG138      0.0307
    125  CG       -16.1720   20.9050    4.5360 C.3   138  ARG138      0.0489
    126  CD       -16.2550   22.3940    4.1300 C.3   138  ARG138      0.2205
    127  NE       -15.6360   22.5390    2.8000 N.pl3 138  ARG138     -0.0865
    128  CZ       -14.6250   23.3490    2.4560 C.cat 138  ARG138      0.5346
    129  NH1      -14.0870   24.2210    3.3150 N.pl3 138  ARG138      0.1354
    130  NH2      -14.1640   23.3000    1.2040 N.pl3 138  ARG138      0.1354
@<TRIPOS>BOND
     1     1     2    1
     2    10     8   ar
     3    10    11   ar
     4     8     6   ar
     5    11     9   ar
     6     4     3    2
     7     2     3    1
     8     2     5    1
     9     6     5    1
    10     6     7   ar
    11     9     7   ar
    12   117   118    2
    13   117   116    1
    14    19    20    1
    15    19    18    1
    16    29    30    1
    17   116   119    1
    18   116   115    1
    19   113   112    2
    20    31    30    1
    21    31    32    2
    22    30    33    1
    23    18    17    1
    24    12    13    1
    25   115   112   am
    26   112   111    1
    27    17    16    1
    28    37    38    1
    29    16    13    1
    30    15    14    2
    31    13    14    1
    32    33    34    1
    33   108   106    1
    34   114   111    1
    35    35    34    1
    36   111   110    1
    37    38    41    1
    38    38    39    1
    39    34    36    1
    40   110   104   am
    41    43    42    2
    42    41    42    1
    43    39    40    2
    44   106   107    1
    45   106   103    1
    46   109   107    1
    47   104   103    1
    48   104   105    2
    49    42    44   am
    50   103   102    1
    51    92    91   ar
    52    93    91   ar
    53    91    90    1
    54    97    96    2
    55   102    96   am
    56    90    89    1
    57    96    95    1
    58    28    26    1
    59    89    86    1
    60    88    87    2
    61    26    27    1
    62    26    25    1
    63    45    46    1
    64    87    86    1
    65    87    94   am
    66    95    94    1
    67    95    98    1
    68    86    85    1
    69    46    47    1
    70    24    23    2
    71    84    83    1
    72   100    98    1
    73   130   128    1
    74    98    99    1
    75    25    22    1
    76    23    22    1
    77    83    81   ar
    78    83    82   ar
    79    47    49   am
    80    47    48    2
    81    22    21    1
    82   128   127    2
    83   128   129    1
    84    81    79   ar
    85    49    50    1
    86   127   126    1
    87    82    80   ar
    88    99   101    1
    89    64    62    1
    90    52    51    2
    91    62    61    1
    92    79    78   ar
    93    50    53    1
    94    50    51    1
    95   126   125    1
    96    80    78   ar
    97    53    54    1
    98    51    57   am
    99   125   124    1
   100    78    77    1
   101    57    58    1
   102    61    58    1
   103    61    63    1
   104    58    59    1
   105   124   121    1
   106    54    56    1
   107    54    55    1
   108   121   120    1
   109   121   122    1
   110   123   122    2
   111    77    74    1
   112    72    70   ar
   113    59    65   am
   114    59    60    2
   115    65    66    1
   116    74    75    1
   117    74    73    1
   118    75    76    2
   119    70    69    1
   120    70    71   ar
   121    69    66    1
   122    66    67    1
   123    68    67    2
