@<TRIPOS>MOLECULE
tmp/2y8dA00.pdb
 84 81 0 0 0
SMALL
GASTEIGER

@<TRIPOS>ATOM
      1  N         -6.1060   -3.3790    3.6240 N.3    31  SER31      -0.1202
      2  CA        -5.1680   -4.4840    3.6530 C.3    31  SER31       0.2020
      3  C         -3.8490   -3.9520    4.2200 C.2    31  SER31       0.2619
      4  O         -3.5950   -2.7450    4.1510 O.2    31  SER31      -0.2717
      5  CB        -4.9590   -5.0280    2.2430 C.3    31  SER31       0.2103
      6  OG        -6.1610   -5.6180    1.7700 O.3    31  SER31      -0.2182
      7  N         -3.0500   -4.8460    4.8270 N.am   32  TRP32      -0.1961
      8  CA        -1.7190   -4.5580    5.3650 C.3    32  TRP32       0.1771
      9  C         -0.8020   -4.3520    4.1690 C.2    32  TRP32       0.2620
     10  O         -0.9620   -5.0000    3.1410 O.2    32  TRP32      -0.2715
     11  CB        -1.2260   -5.7420    6.2270 C.3    32  TRP32       0.0590
     12  CG        -1.8710   -5.7840    7.5830 C.ar   32  TRP32       0.0006
     13  CD1       -3.2090   -5.7510    7.8660 C.ar   32  TRP32       0.0946
     14  CD2       -1.1930   -5.7520    8.8380 C.ar   32  TRP32       0.0152
     15  NE1       -3.4010   -5.7260    9.2300 N.ar   32  TRP32      -0.2442
     16  CE2       -2.1790   -5.7350    9.8490 C.ar   32  TRP32       0.0810
     17  CE3        0.1600   -5.7860    9.2080 C.ar   32  TRP32       0.0012
     18  CZ2       -1.8550   -5.6820   11.2090 C.ar   32  TRP32       0.0191
     19  CZ3        0.4830   -5.8010   10.5560 C.ar   32  TRP32       0.0001
     20  CH2       -0.5180   -5.7480   11.5390 C.ar   32  TRP32       0.0015
     21  N          0.1560   -3.4530    4.3030 N.am   33  GLU33      -0.1963
     22  CA         1.0520   -3.1130    3.2240 C.3    33  GLU33       0.1733
     23  C          2.4010   -3.7260    3.4960 C.2    33  GLU33       0.2616
     24  O          2.7850   -3.8860    4.6630 O.2    33  GLU33      -0.2715
     25  CB         1.1640   -1.5740    3.1420 C.3    33  GLU33       0.0429
     26  CG         1.6650   -1.0480    1.8100 C.3    33  GLU33       0.1163
     27  CD         1.8600    0.4530    1.7930 C.2    33  GLU33       0.3649
     28  OE1        0.8510    1.1780    1.6270 O.co2  33  GLU33      -0.2457
     29  OE2        3.0170    0.9050    1.9720 O.co2  33  GLU33      -0.2457
     30  N          3.1220   -4.0760    2.4160 N.am   34  ILE34      -0.1977
     31  CA         4.5040   -4.5750    2.4950 C.3    34  ILE34       0.1596
     32  C          5.3680   -3.3920    2.0720 C.2    34  ILE34       0.2287
     33  O          5.2380   -2.9110    0.9390 O.2    34  ILE34      -0.2864
     34  CB         4.7730   -5.8150    1.5990 C.3    34  ILE34       0.0276
     35  CG1        3.6660   -6.8620    1.6720 C.3    34  ILE34       0.0022
     36  CG2        6.1560   -6.4250    1.8450 C.3    34  ILE34       0.0022
     37  CD1        3.5240   -7.5940    0.3520 C.3    34  ILE34       0.0001
     38  N          5.6250   -6.2300    6.8580 N.3    39  LEU39      -0.1245
     39  CA         4.1540   -6.0330    6.8600 C.3    39  LEU39       0.1561
     40  C          3.8880   -4.8620    7.8460 C.2    39  LEU39       0.2260
     41  O          4.3570   -4.8980    8.9940 O.2    39  LEU39      -0.2867
     42  CB         3.4190   -7.2930    7.3830 C.3    39  LEU39       0.0270
     43  CG         2.6530   -8.3250    6.4780 C.3    39  LEU39       0.0019
     44  CD1        2.4970   -7.9490    5.0900 C.3    39  LEU39       0.0001
     45  CD2        3.1580   -9.7860    6.6860 C.3    39  LEU39       0.0001
     46  N         -6.4630  -16.4500    1.6610 N.3   231  LEU231     -0.1231
     47  CA        -5.2020  -16.7030    0.9330 C.3   231  LEU231      0.1693
     48  C         -4.1360  -15.6810    1.3300 C.2   231  LEU231      0.2592
     49  O         -2.9910  -16.0610    1.6240 O.2   231  LEU231     -0.2718
     50  CB        -5.3990  -16.6730   -0.6060 C.3   231  LEU231      0.0284
     51  CG        -6.2370  -17.7980   -1.2660 C.3   231  LEU231      0.0019
     52  CD1       -6.3370  -17.5980   -2.7740 C.3   231  LEU231      0.0001
     53  CD2       -5.6670  -19.1980   -0.9780 C.3   231  LEU231      0.0001
     54  N         -4.5100  -14.3850    1.3240 N.am  232  THR232     -0.1953
     55  CA        -3.5970  -13.2820    1.6960 C.3   232  THR232      0.1897
     56  C         -3.1330  -13.4300    3.1460 C.2   232  THR232      0.2313
     57  O         -1.9310  -13.3750    3.4300 O.2   232  THR232     -0.2863
     58  CB        -4.2760  -11.9020    1.4620 C.3   232  THR232      0.1794
     59  OG1       -4.6980  -11.7990    0.1050 O.3   232  THR232     -0.2208
     60  CG2       -3.3390  -10.7290    1.7950 C.3   232  THR232      0.0378
     61  N         -0.7170  -16.2340    3.9690 N.3   235  THR235     -0.1203
     62  CA         0.6560  -15.8840    3.5760 C.3   235  THR235      0.1994
     63  C          1.2890  -14.8990    4.5690 C.2   235  THR235      0.2617
     64  O          2.4490  -15.0660    4.9680 O.2   235  THR235     -0.2717
     65  CB         0.6910  -15.3910    2.1060 C.3   235  THR235      0.1784
     66  OG1        0.2340  -16.4660    1.2750 O.3   235  THR235     -0.2211
     67  CG2        2.0980  -14.9420    1.6630 C.3   235  THR235      0.0376
     68  N          0.5280  -13.8760    4.9580 N.am  236  GLU236     -0.1979
     69  CA         0.9660  -12.9010    5.9510 C.3   236  GLU236      0.1602
     70  C          1.3310  -13.6140    7.2670 C.2   236  GLU236      0.2287
     71  O          2.3300  -13.2530    7.9050 O.2   236  GLU236     -0.2864
     72  CB        -0.1410  -11.8710    6.1880 C.3   236  GLU236      0.0415
     73  CG        -0.2780  -10.8920    5.0260 C.3   236  GLU236      0.1163
     74  CD        -1.3660   -9.8500    5.1750 C.2   236  GLU236      0.3649
     75  OE1       -1.9180   -9.7070    6.2900 O.co2 236  GLU236     -0.2457
     76  OE2       -1.6410   -9.1480    4.1740 O.co2 236  GLU236     -0.2457
     77  N          4.8010  -15.5690    6.7730 N.3   239  ILE239     -0.1245
     78  CA         5.9020  -14.5940    6.7900 C.3   239  ILE239      0.1561
     79  C          6.1820  -14.1710    8.2470 C.2   239  ILE239      0.2260
     80  O          7.3480  -14.1030    8.6470 O.2   239  ILE239     -0.2867
     81  CB         5.6130  -13.3750    5.8570 C.3   239  ILE239      0.0252
     82  CG1        5.7170  -13.8030    4.3610 C.3   239  ILE239      0.0019
     83  CG2        6.5550  -12.1630    6.1660 C.3   239  ILE239      0.0019
     84  CD1        5.0320  -12.9230    3.3530 C.3   239  ILE239      0.0001
@<TRIPOS>BOND
     1    52    51    1
     2    51    53    1
     3    51    50    1
     4    50    47    1
     5    59    58    1
     6    37    35    1
     7    47    48    1
     8    47    46    1
     9    33    32    2
    10    66    65    1
    11    54    48   am
    12    54    55    1
    13    48    49    2
    14    58    55    1
    15    58    60    1
    16    34    35    1
    17    34    36    1
    18    34    31    1
    19    28    27   ar
    20    67    65    1
    21    55    56    1
    22     6     5    1
    23    27    26    1
    24    27    29   ar
    25    26    25    1
    26    32    31    1
    27    65    62    1
    28     5     2    1
    29    30    31    1
    30    30    23   am
    31    10     9    2
    32    25    22    1
    33    56    57    2
    34    22    23    1
    35    22    21    1
    36    84    82    1
    37    23    24    2
    38    62    61    1
    39    62    63    1
    40     1     2    1
    41     2     3    1
    42     4     3    2
    43     9    21   am
    44     9     8    1
    45    76    74   ar
    46     3     7   am
    47    82    81    1
    48    63    68   am
    49    63    64    2
    50     7     8    1
    51    68    69    1
    52    73    74    1
    53    73    72    1
    54    44    43    1
    55    74    75   ar
    56     8    11    1
    57    81    83    1
    58    81    78    1
    59    69    72    1
    60    69    70    1
    61    11    12    1
    62    43    45    1
    63    43    42    1
    64    77    78    1
    65    78    79    1
    66    38    39    1
    67    39    42    1
    68    39    40    1
    69    70    71    2
    70    12    13   ar
    71    12    14   ar
    72    40    41    2
    73    13    15   ar
    74    79    80    2
    75    14    17   ar
    76    14    16   ar
    77    17    19   ar
    78    15    16   ar
    79    16    18   ar
    80    19    20   ar
    81    18    20   ar
