@<TRIPOS>MOLECULE
tmp/2y8eB00.pdb
 188 183 0 0 0
SMALL
GASTEIGER

@<TRIPOS>ATOM
      1  N        -57.7550  -12.9830   20.1260 N.3    15  GLN15      -0.1231
      2  CA       -56.6670  -13.6950   19.4880 C.3    15  GLN15       0.1698
      3  C        -56.9840  -13.9690   18.0260 C.2    15  GLN15       0.2593
      4  O        -58.0930  -14.3710   17.6600 O.2    15  GLN15      -0.2718
      5  CB       -56.4260  -15.0010   20.2510 C.3    15  GLN15       0.0381
      6  CG       -55.3090  -15.8280   19.7810 C.3    15  GLN15       0.0905
      7  CD       -55.0590  -17.0550   20.6340 C.2    15  GLN15       0.2608
      8  OE1      -55.9300  -17.4670   21.4340 O.2    15  GLN15      -0.2717
      9  NE2      -53.8590  -17.6510   20.4850 N.am   15  GLN15      -0.0878
     10  N        -55.9920  -13.7360   17.1970 N.am   16  SER16      -0.1938
     11  CA       -55.9630  -14.1370   15.8080 C.3    16  SER16       0.2055
     12  C        -56.8400  -13.3100   14.8580 C.2    16  SER16       0.2643
     13  O        -57.0620  -13.7230   13.7250 O.2    16  SER16      -0.2714
     14  CB       -56.2220  -15.6390   15.6670 C.3    16  SER16       0.2130
     15  OG       -55.6960  -16.1390   14.4650 O.3    16  SER16      -0.2179
     16  N        -57.2910  -12.1340   15.2970 N.am   17  VAL17      -0.1963
     17  CA       -58.1220  -11.2940   14.4470 C.3    17  VAL17       0.1727
     18  C        -57.3420  -10.4920   13.4080 C.2    17  VAL17       0.2617
     19  O        -57.9290  -10.0180   12.4260 O.2    17  VAL17      -0.2715
     20  CB       -59.0270  -10.3400   15.2940 C.3    17  VAL17       0.0290
     21  CG1      -60.0050  -11.1430   16.1980 C.3    17  VAL17       0.0023
     22  CG2      -58.2100   -9.2840   16.0870 C.3    17  VAL17       0.0023
     23  N        -56.0440  -10.2890   13.6470 N.am   18  GLY18      -0.1940
     24  CA       -55.1610   -9.6280   12.7210 C.3    18  GLY18       0.2014
     25  C        -54.6080   -8.2970   13.1780 C.2    18  GLY18       0.2639
     26  O        -54.1890   -7.5210   12.3440 O.2    18  GLY18      -0.2714
     27  N        -54.5470   -8.0570   14.4790 N.am   19  LYS19      -0.1963
     28  CA       -53.9130   -6.8500   15.0030 C.3    19  LYS19       0.1728
     29  C        -52.4840   -6.6590   14.4780 C.2    19  LYS19       0.2617
     30  O        -52.1430   -5.6090   13.9060 O.2    19  LYS19      -0.2715
     31  CB       -53.9140   -6.8610   16.5390 C.3    19  LYS19       0.0311
     32  CG       -55.3020   -6.9320   17.1690 C.3    19  LYS19       0.0038
     33  CD       -55.3060   -7.0440   18.6990 C.3    19  LYS19       0.0206
     34  CE       -54.7000   -8.3380   19.2220 C.3    19  LYS19       0.1093
     35  NZ       -55.4450   -9.5230   18.9450 N.3    19  LYS19      -0.1314
     36  N        -51.6570   -7.6630   14.7210 N.am   20  THR20      -0.1937
     37  CA       -50.2400   -7.5730   14.3430 C.3    20  THR20       0.2028
     38  C        -50.1050   -7.4110   12.8280 C.2    20  THR20       0.2642
     39  O        -49.3140   -6.6100   12.3360 O.2    20  THR20      -0.2714
     40  CB       -49.4750   -8.7620   14.9020 C.3    20  THR20       0.1808
     41  OG1      -49.6350   -8.7890   16.3360 O.3    20  THR20      -0.2208
     42  CG2      -47.9770   -8.7400   14.5020 C.3    20  THR20       0.0379
     43  N        -50.9070   -8.1600   12.0880 N.am   21  SER21      -0.1949
     44  CA       -50.8710   -8.1300   10.6390 C.3    21  SER21       0.1924
     45  C        -51.2650   -6.7670   10.0780 C.2    21  SER21       0.2314
     46  O        -50.7100   -6.3400    9.0890 O.2    21  SER21      -0.2863
     47  CB       -51.7740   -9.2330   10.0690 C.3    21  SER21       0.2116
     48  OG       -51.2510  -10.5200   10.3860 O.3    21  SER21      -0.2180
     49  N        -46.9670   -9.1230    4.8940 N.3    31  PHE31      -0.1227
     50  CA       -47.9550  -10.0240    5.4840 C.3    31  PHE31       0.1736
     51  C        -47.4300  -11.4560    5.4870 C.2    31  PHE31       0.2595
     52  O        -46.7480  -11.8640    4.5610 O.2    31  PHE31      -0.2718
     53  CB       -49.2560   -9.9360    4.6780 C.3    31  PHE31       0.0547
     54  CG       -50.3430  -10.9080    5.1300 C.ar   31  PHE31      -0.0202
     55  CD1      -51.2120  -10.5710    6.1550 C.ar   31  PHE31      -0.0042
     56  CD2      -50.4540  -12.1740    4.5590 C.ar   31  PHE31      -0.0042
     57  CE1      -52.1510  -11.4530    6.5970 C.ar   31  PHE31      -0.0003
     58  CE2      -51.4270  -13.0610    5.0010 C.ar   31  PHE31      -0.0003
     59  CZ       -52.2700  -12.7030    6.0230 C.ar   31  PHE31      -0.0000
     60  N        -47.7790  -12.2140    6.5110 N.am   32  ASP32      -0.1960
     61  CA       -47.3630  -13.6080    6.6550 C.3    32  ASP32       0.1840
     62  C        -48.5900  -14.4220    7.0120 C.2    32  ASP32       0.2622
     63  O        -49.3000  -14.0630    7.9450 O.2    32  ASP32      -0.2715
     64  CB       -46.3240  -13.6790    7.7880 C.3    32  ASP32       0.1450
     65  CG       -45.5840  -15.0260    7.9010 C.2    32  ASP32       0.3671
     66  OD1      -45.9620  -16.0570    7.2940 O.co2  32  ASP32      -0.2456
     67  OD2      -44.5770  -15.0160    8.6610 O.co2  32  ASP32      -0.2456
     68  N        -48.8190  -15.5260    6.3000 N.am   33  ASN33      -0.1958
     69  CA       -49.8640  -16.4720    6.6760 C.3    33  ASN33       0.1819
     70  C        -49.6260  -17.1720    8.0070 C.2    33  ASN33       0.2622
     71  O        -50.5930  -17.5820    8.6680 O.2    33  ASN33      -0.2715
     72  CB       -50.0460  -17.5710    5.6200 C.3    33  ASN33       0.1195
     73  CG       -50.8620  -17.1150    4.4340 C.2    33  ASN33       0.2630
     74  OD1      -51.8760  -16.4430    4.5900 O.2    33  ASN33      -0.2716
     75  ND2      -50.4350  -17.4950    3.2310 N.am   33  ASN33      -0.0877
     76  N        -48.3670  -17.3550    8.3820 N.am   34  THR34      -0.1937
     77  CA       -48.0550  -18.1380    9.5670 C.3    34  THR34       0.2028
     78  C        -48.3760  -17.3440   10.8160 C.2    34  THR34       0.2642
     79  O        -47.9590  -16.2060   10.9370 O.2    34  THR34      -0.2714
     80  CB       -46.5650  -18.5360    9.6240 C.3    34  THR34       0.1808
     81  OG1      -46.2420  -19.3400    8.4810 O.3    34  THR34      -0.2208
     82  CG2      -46.2720  -19.3350   10.9050 C.3    34  THR34       0.0379
     83  N        -49.1470  -17.9410   11.7160 N.am   35  TYR35      -0.1959
     84  CA       -49.5990  -17.2850   12.9300 C.3    35  TYR35       0.1771
     85  C        -48.5460  -17.3970   14.0070 C.2    35  TYR35       0.2619
     86  O        -48.1990  -18.5070   14.4340 O.2    35  TYR35      -0.2715
     87  CB       -50.8930  -17.9220   13.4120 C.3    35  TYR35       0.0574
     88  CG       -51.4410  -17.4050   14.7340 C.ar   35  TYR35      -0.0198
     89  CD1      -51.3490  -16.0660   15.0830 C.ar   35  TYR35      -0.0009
     90  CD2      -52.1150  -18.2490   15.6080 C.ar   35  TYR35      -0.0009
     91  CE1      -51.8910  -15.5810   16.2690 C.ar   35  TYR35       0.0417
     92  CE2      -52.6530  -17.7750   16.8070 C.ar   35  TYR35       0.0417
     93  CZ       -52.5360  -16.4340   17.1280 C.ar   35  TYR35       0.1957
     94  OH       -53.0480  -15.9780   18.3150 O.3    35  TYR35      -0.2866
     95  N        -48.0520  -16.2380   14.4310 N.am   36  GLN36      -0.1963
     96  CA       -47.1790  -16.0990   15.5960 C.3    36  GLN36       0.1733
     97  C        -47.8950  -15.2230   16.6190 C.2    36  GLN36       0.2616
     98  O        -47.9400  -14.0120   16.4730 O.2    36  GLN36      -0.2715
     99  CB       -45.8680  -15.4530   15.1820 C.3    36  GLN36       0.0408
    100  CG       -45.0320  -16.2880   14.2210 C.3    36  GLN36       0.0908
    101  CD       -43.7010  -15.6350   13.9170 C.2    36  GLN36       0.2608
    102  OE1      -42.9150  -15.3400   14.8290 O.2    36  GLN36      -0.2717
    103  NE2      -43.4320  -15.4040   12.6280 N.am   36  GLN36      -0.0878
    104  N        -48.4760  -15.8490   17.6340 N.am   37  ALA37      -0.1963
    105  CA       -49.2620  -15.1400   18.6370 C.3    37  ALA37       0.1728
    106  C        -48.4050  -14.1220   19.3650 C.2    37  ALA37       0.2616
    107  O        -47.2790  -14.4070   19.7590 O.2    37  ALA37      -0.2715
    108  CB       -49.8550  -16.1160   19.6330 C.3    37  ALA37       0.0334
    109  N        -48.9480  -12.9300   19.5460 N.am   38  THR38      -0.1951
    110  CA       -48.3230  -11.9340   20.4020 C.3    38  THR38       0.1897
    111  C        -48.3650  -12.4220   21.8600 C.2    38  THR38       0.2313
    112  O        -49.3750  -12.9000   22.3380 O.2    38  THR38      -0.2863
    113  CB       -49.0090  -10.5750   20.2300 C.3    38  THR38       0.1794
    114  OG1      -48.9480  -10.2180   18.8370 O.3    38  THR38      -0.2208
    115  CG2      -48.3750   -9.4810   21.0790 C.3    38  THR38       0.0378
    116  N        -51.0840   -5.4360   21.4770 N.3    62  THR62      -0.1218
    117  CA       -51.4020   -6.2660   22.6150 C.3    62  THR62       0.1862
    118  C        -51.7920   -7.6800   22.1920 C.2    62  THR62       0.2287
    119  O        -52.3150   -7.9010   21.0980 O.2    62  THR62      -0.2866
    120  CB       -52.5180   -5.6470   23.4880 C.3    62  THR62       0.1770
    121  OG1      -53.7840   -5.7460   22.8250 O.3    62  THR62      -0.2211
    122  CG2      -52.2210   -4.2080   23.8880 C.3    62  THR62       0.0375
    123  N        -54.1410  -10.9280   22.2980 N.3    64  GLY64      -0.1210
    124  CA       -55.5860  -11.1800   22.4290 C.3    64  GLY64       0.1956
    125  C        -55.9050  -12.2740   23.4170 C.2    64  GLY64       0.2611
    126  O        -57.0270  -12.3880   23.8310 O.2    64  GLY64      -0.2717
    127  N        -54.9330  -13.1160   23.7600 N.am   65  GLN65      -0.1979
    128  CA       -55.1920  -14.1910   24.7040 C.3    65  GLN65       0.1601
    129  C        -55.5730  -13.6010   26.0410 C.2    65  GLN65       0.2287
    130  O        -54.9240  -12.6570   26.5230 O.2    65  GLN65      -0.2864
    131  CB       -53.9810  -15.1080   24.8160 C.3    65  GLN65       0.0394
    132  CG       -53.7880  -15.9330   23.5800 C.3    65  GLN65       0.0908
    133  CD       -52.6290  -16.8830   23.6650 C.2    65  GLN65       0.2608
    134  OE1      -52.7680  -18.0020   24.1670 O.2    65  GLN65      -0.2717
    135  NE2      -51.4780  -16.4600   23.1530 N.am   65  GLN65      -0.0878
    136  N        -61.7680   -6.9010   10.2880 N.3   119  ASN119     -0.1225
    137  CA       -60.6620   -7.3450    9.4410 C.3   119  ASN119      0.1785
    138  C        -60.9850   -8.6580    8.7010 C.2   119  ASN119      0.2597
    139  O        -61.8730   -9.4550    9.0920 O.2   119  ASN119     -0.2718
    140  CB       -59.3730   -7.4840   10.2780 C.3   119  ASN119      0.1169
    141  CG       -58.1250   -7.7180    9.4460 C.2   119  ASN119      0.2627
    142  OD1      -57.8960   -7.0830    8.4080 O.2   119  ASN119     -0.2716
    143  ND2      -57.2910   -8.6490    9.9200 N.am  119  ASN119     -0.0877
    144  N        -60.2150   -8.8790    7.6380 N.am  120  LYS120     -0.1980
    145  CA       -60.1770  -10.0690    6.8100 C.3   120  LYS120      0.1596
    146  C        -61.2240  -10.0640    5.6930 C.2   120  LYS120      0.2287
    147  O        -61.8050  -11.1080    5.3810 O.2   120  LYS120     -0.2864
    148  CB       -60.2190  -11.3610    7.6170 C.3   120  LYS120      0.0298
    149  CG       -59.2180  -11.4450    8.7590 C.3   120  LYS120      0.0038
    150  CD       -58.9520  -12.8800    9.1840 C.3   120  LYS120      0.0206
    151  CE       -58.1070  -12.9300   10.4480 C.3   120  LYS120      0.1093
    152  NZ       -57.9830  -14.2480   11.0480 N.3   120  LYS120     -0.1314
    153  N        -60.7080  -10.1220    2.6860 N.3   122  ASP122     -0.1225
    154  CA       -60.3000  -11.0800    1.6800 C.3   122  ASP122      0.1805
    155  C        -60.9730  -12.4510    1.8460 C.2   122  ASP122      0.2597
    156  O        -60.9830  -13.2350    0.8960 O.2   122  ASP122     -0.2718
    157  CB       -58.7860  -11.2340    1.6800 C.3   122  ASP122      0.1424
    158  CG       -58.2610  -11.7310    2.9850 C.2   122  ASP122      0.3668
    159  OD1      -58.2690  -10.9550    3.9820 O.co2 122  ASP122     -0.2456
    160  OD2      -57.8810  -12.9190    3.0350 O.co2 122  ASP122     -0.2456
    161  N        -61.5340  -12.7010    3.0310 N.am  123  LEU123     -0.1979
    162  CA       -62.3280  -13.8760    3.3320 C.3   123  LEU123      0.1596
    163  C        -63.8100  -13.5240    3.3520 C.2   123  LEU123      0.2287
    164  O        -64.5940  -14.2030    4.0330 O.2   123  LEU123     -0.2864
    165  CB       -61.9110  -14.4790    4.6810 C.3   123  LEU123      0.0297
    166  CG       -60.4050  -14.7640    4.8580 C.3   123  LEU123      0.0022
    167  CD1      -60.1000  -15.3120    6.2610 C.3   123  LEU123      0.0001
    168  CD2      -59.9450  -15.7020    3.7550 C.3   123  LEU123      0.0001
    169  N        -58.5310   -5.4540    5.1260 N.3   149  SER149     -0.1202
    170  CA       -57.8450   -6.7390    4.9270 C.3   149  SER149      0.2020
    171  C        -56.3560   -6.4730    5.0430 C.2   149  SER149      0.2619
    172  O        -55.7840   -5.8380    4.1490 O.2   149  SER149     -0.2717
    173  CB       -58.1250   -7.3700    3.5490 C.3   149  SER149      0.2103
    174  OG       -57.3240   -8.5050    3.3300 O.3   149  SER149     -0.2182
    175  N        -55.7430   -6.9630    6.1180 N.am  150  ALA150     -0.1965
    176  CA       -54.3000   -6.8790    6.2180 C.3   150  ALA150      0.1728
    177  C        -53.6400   -7.6080    5.0560 C.2   150  ALA150      0.2616
    178  O        -52.5850   -7.1960    4.5650 O.2   150  ALA150     -0.2715
    179  CB       -53.8210   -7.4560    7.5540 C.3   150  ALA150      0.0334
    180  N        -54.2250   -8.7280    4.6350 N.am  151  LYS151     -0.1977
    181  CA       -53.6290   -9.5350    3.5790 C.3   151  LYS151      0.1596
    182  C        -53.6720   -8.8290    2.2390 C.2   151  LYS151      0.2287
    183  O        -52.6480   -8.7590    1.5470 O.2   151  LYS151     -0.2864
    184  CB       -54.3280  -10.8910    3.4660 C.3   151  LYS151      0.0298
    185  CG       -53.6970  -11.8170    2.4310 C.3   151  LYS151      0.0038
    186  CD       -54.3710  -13.1730    2.3910 C.3   151  LYS151      0.0206
    187  CE       -53.6860  -14.0900    1.4050 C.3   151  LYS151      0.1093
    188  NZ       -54.5330  -15.2440    1.0060 N.3   151  LYS151     -0.1314
@<TRIPOS>BOND
     1   156   155    2
     2   188   187    1
     3   187   186    1
     4   183   182    2
     5   154   157    1
     6   154   155    1
     7   154   153    1
     8   157   158    1
     9   155   161   am
    10   182   181    1
    11   186   185    1
    12   185   184    1
    13   158   160   ar
    14   158   159   ar
    15   161   162    1
    16    75    73   am
    17   174   173    1
    18   162   163    1
    19   162   165    1
    20   163   164    2
    21   184   181    1
    22   173   170    1
    23   181   180    1
    24   168   166    1
    25   172   171    2
    26    73    74    2
    27    73    72    1
    28    56    58   ar
    29    56    54   ar
    30    52    51    2
    31   178   177    2
    32   180   177   am
    33    53    54    1
    34    53    50    1
    35   165   166    1
    36   166   167    1
    37    49    50    1
    38   170   171    1
    39   170   169    1
    40    58    59   ar
    41   171   175   am
    42   177   176    1
    43    54    55   ar
    44   147   146    2
    45    50    51    1
    46    51    60   am
    47    72    69    1
    48   146   145    1
    49    59    57   ar
    50   175   176    1
    51    55    57   ar
    52   176   179    1
    53    68    69    1
    54    68    62   am
    55    60    61    1
    56    61    62    1
    57    61    64    1
    58    69    70    1
    59   145   148    1
    60   145   144    1
    61    62    63    2
    62    66    65   ar
    63   148   149    1
    64   144   138   am
    65    64    65    1
    66    65    67   ar
    67    70    76   am
    68    70    71    2
    69    76    77    1
    70   142   141    2
    71    81    80    1
    72   138   139    2
    73   138   137    1
    74   149   150    1
    75    46    45    2
    76   150   151    1
    77   137   140    1
    78   137   136    1
    79   141   143   am
    80   141   140    1
    81    77    80    1
    82    77    78    1
    83    80    82    1
    84    47    48    1
    85    47    44    1
    86    45    44    1
    87   151   152    1
    88    44    43    1
    89    78    79    2
    90    78    83   am
    91    83    84    1
    92    43    38   am
    93    39    38    2
    94    26    25    2
    95    19    18    2
    96   103   101   am
    97    24    25    1
    98    24    23    1
    99    38    37    1
   100    84    87    1
   101    84    85    1
   102    25    27   am
   103    18    23   am
   104    18    17    1
   105    87    88    1
   106    13    12    2
   107    30    29    2
   108   101   100    1
   109   101   102    2
   110    85    95   am
   111    85    86    2
   112   100    99    1
   113    37    36    1
   114    37    40    1
   115    95    96    1
   116    17    20    1
   117    17    16    1
   118    15    14    1
   119    29    36   am
   120    29    28    1
   121    27    28    1
   122    42    40    1
   123    88    89   ar
   124    88    90   ar
   125    12    16   am
   126    12    11    1
   127    40    41    1
   128    28    31    1
   129    89    91   ar
   130    99    96    1
   131    20    22    1
   132    20    21    1
   133    96    97    1
   134    90    92   ar
   135    14    11    1
   136    11    10    1
   137    91    93   ar
   138    98    97    2
   139    31    32    1
   140    97   104   am
   141    92    93   ar
   142    93    94    1
   143    32    33    1
   144    10     3   am
   145   104   105    1
   146     4     3    2
   147     3     2    1
   148   105   106    1
   149   105   108    1
   150    33    34    1
   151   114   113    1
   152    35    34    1
   153   106   109   am
   154   106   107    2
   155     2     1    1
   156     2     5    1
   157   109   110    1
   158     6     5    1
   159     6     7    1
   160   113   110    1
   161   113   115    1
   162   110   111    1
   163     9     7   am
   164     7     8    2
   165   119   118    2
   166   116   117    1
   167   111   112    2
   168   118   117    1
   169   123   124    1
   170   124   125    1
   171   117   120    1
   172   121   120    1
   173   135   133   am
   174   125   127   am
   175   125   126    2
   176   120   122    1
   177   132   133    1
   178   132   131    1
   179   133   134    2
   180   127   128    1
   181   128   131    1
   182   128   129    1
   183   129   130    2
