@<TRIPOS>MOLECULE
tmp/2y8lC01.pdb
 169 161 0 0 0
SMALL
GASTEIGER

@<TRIPOS>ATOM
      1  N          0.9810    0.1630  -36.2250 N.3    47  ARG47      -0.1245
      2  CA         0.0380   -0.8420  -36.7110 C.3    47  ARG47       0.1563
      3  C         -0.5750   -1.6730  -35.6060 C.2    47  ARG47       0.2260
      4  O         -1.5270   -2.4140  -35.8390 O.2    47  ARG47      -0.2867
      5  CB         0.7260   -1.7650  -37.7260 C.3    47  ARG47       0.0307
      6  CG         0.5980   -1.3090  -39.1640 C.3    47  ARG47       0.0489
      7  CD         1.5390   -2.0820  -40.0290 C.3    47  ARG47       0.2205
      8  NE         2.9280   -1.6300  -39.8810 N.pl3  47  ARG47      -0.0865
      9  CZ         3.9950   -2.4220  -39.9660 C.cat  47  ARG47       0.5346
     10  NH1        3.8470   -3.7240  -40.1950 N.pl3  47  ARG47       0.1354
     11  NH2        5.2120   -1.9170  -39.8150 N.pl3  47  ARG47       0.1354
     12  N          1.9890   -9.8530  -34.0640 N.3   129  ARG129     -0.1245
     13  CA         2.5840   -8.8670  -33.1500 C.3   129  ARG129      0.1563
     14  C          2.9490   -9.5320  -31.8420 C.2   129  ARG129      0.2260
     15  O          2.0700   -9.9840  -31.1080 O.2   129  ARG129     -0.2867
     16  CB         1.6460   -7.6830  -32.8950 C.3   129  ARG129      0.0307
     17  CG         0.8930   -7.1710  -34.1230 C.3   129  ARG129      0.0489
     18  CD         1.7930   -6.4410  -35.0950 C.3   129  ARG129      0.2205
     19  NE         1.2260   -6.4030  -36.4400 N.pl3 129  ARG129     -0.0865
     20  CZ         1.7660   -5.7500  -37.4700 C.cat 129  ARG129      0.5346
     21  NH1        2.8950   -5.0490  -37.3200 N.pl3 129  ARG129      0.1354
     22  NH2        1.1720   -5.7950  -38.6570 N.pl3 129  ARG129      0.1354
     23  N          8.4140   -9.6000  -40.3830 N.3   147  LYS147     -0.1245
     24  CA         9.2350   -8.8370  -41.3220 C.3   147  LYS147      0.1561
     25  C         10.5760   -8.5010  -40.6800 C.2   147  LYS147      0.2260
     26  O         11.6240   -8.6830  -41.2820 O.2   147  LYS147     -0.2867
     27  CB         8.5220   -7.5550  -41.7570 C.3   147  LYS147      0.0271
     28  CG         9.1870   -6.8280  -42.9200 C.3   147  LYS147      0.0035
     29  CD         8.5500   -5.4870  -43.2410 C.3   147  LYS147      0.0206
     30  CE         7.0560   -5.6190  -43.4970 C.3   147  LYS147      0.1093
     31  NZ         6.3950   -4.3020  -43.7340 N.3   147  LYS147     -0.1314
     32  N         -4.4080  -11.4640  -44.7200 N.3   203  SER203     -0.1217
     33  CA        -4.0250  -10.0500  -44.5930 C.3   203  SER203      0.1889
     34  C         -4.0600   -9.2280  -45.9010 C.2   203  SER203      0.2288
     35  O         -4.0990   -7.9920  -45.8390 O.2   203  SER203     -0.2866
     36  CB        -2.6910   -9.8890  -43.8350 C.3   203  SER203      0.2089
     37  OG        -1.6890  -10.7640  -44.3250 O.3   203  SER203     -0.2183
     38  N         -3.1380   -4.9970  -55.4990 N.3   217  ILE217     -0.1245
     39  CA        -3.3120   -5.7620  -54.2840 C.3   217  ILE217      0.1561
     40  C         -3.9890   -4.9080  -53.2140 C.2   217  ILE217      0.2260
     41  O         -3.6730   -3.7260  -53.0660 O.2   217  ILE217     -0.2867
     42  CB        -1.9550   -6.3890  -53.8300 C.3   217  ILE217      0.0252
     43  CG1       -2.1430   -7.2580  -52.5910 C.3   217  ILE217      0.0019
     44  CG2       -0.8750   -5.3210  -53.6350 C.3   217  ILE217      0.0019
     45  CD1       -1.1340   -8.3490  -52.4890 C.3   217  ILE217      0.0001
     46  N         -4.7140   -4.5740  -49.2500 N.3   219  SER219     -0.1217
     47  CA        -4.1520   -5.0550  -47.9900 C.3   219  SER219      0.1889
     48  C         -4.9240   -4.5920  -46.7490 C.2   219  SER219      0.2288
     49  O         -5.8210   -3.7420  -46.8380 O.2   219  SER219     -0.2866
     50  CB        -2.7020   -4.5980  -47.8930 C.3   219  SER219      0.2089
     51  OG        -2.0310   -5.2160  -46.8130 O.3   219  SER219     -0.2183
     52  N         -3.2730   -3.1890  -44.1530 N.3   221  PHE221     -0.1227
     53  CA        -2.6000   -1.8990  -43.9900 C.3   221  PHE221      0.1736
     54  C         -3.3240   -0.7980  -44.7750 C.2   221  PHE221      0.2595
     55  O         -3.2620    0.3720  -44.3990 O.2   221  PHE221     -0.2718
     56  CB        -1.1250   -2.0090  -44.4200 C.3   221  PHE221      0.0547
     57  CG        -0.3330   -0.7260  -44.2600 C.ar  221  PHE221     -0.0202
     58  CD1        0.1870   -0.3570  -43.0120 C.ar  221  PHE221     -0.0042
     59  CD2       -0.1130    0.1160  -45.3500 C.ar  221  PHE221     -0.0042
     60  CE1        0.9050    0.8240  -42.8580 C.ar  221  PHE221     -0.0003
     61  CE2        0.6070    1.3030  -45.1990 C.ar  221  PHE221     -0.0003
     62  CZ         1.1180    1.6530  -43.9540 C.ar  221  PHE221     -0.0000
     63  N         -4.0270   -1.1860  -45.8430 N.am  222  ASP222     -0.1974
     64  CA        -4.7390   -0.2360  -46.7070 C.3   222  ASP222      0.1709
     65  C         -6.0690    0.1790  -46.1140 C.2   222  ASP222      0.2293
     66  O         -6.7190    1.0750  -46.6370 O.2   222  ASP222     -0.2864
     67  CB        -4.9780   -0.8200  -48.1100 C.3   222  ASP222      0.1436
     68  CG        -3.6820   -1.1220  -48.8640 C.2   222  ASP222      0.3671
     69  OD1       -2.6920   -0.3570  -48.7380 O.co2 222  ASP222     -0.2456
     70  OD2       -3.6610   -2.1310  -49.6010 O.co2 222  ASP222     -0.2456
     71  N         -3.5580    5.7220  -51.6860 N.3   246  ARG246     -0.1231
     72  CA        -2.3130    5.1200  -51.1910 C.3   246  ARG246      0.1694
     73  C         -1.2130    6.1730  -50.9800 C.2   246  ARG246      0.2592
     74  O         -1.2490    7.2600  -51.5680 O.2   246  ARG246     -0.2718
     75  CB        -1.8430    3.9820  -52.1100 C.3   246  ARG246      0.0321
     76  CG        -0.7090    3.1070  -51.5430 C.3   246  ARG246      0.0489
     77  CD        -0.9040    1.6020  -51.8200 C.3   246  ARG246      0.2205
     78  NE        -1.2760    1.3140  -53.2080 N.pl3 246  ARG246     -0.0865
     79  CZ        -1.6130    0.1130  -53.6760 C.cat 246  ARG246      0.5346
     80  NH1       -1.6290   -0.9540  -52.8820 N.pl3 246  ARG246      0.1354
     81  NH2       -1.9420   -0.0170  -54.9530 N.pl3 246  ARG246      0.1354
     82  N         -0.2530    5.8330  -50.1220 N.am  247  SER247     -0.1952
     83  CA         0.8330    6.7250  -49.7160 C.3   247  SER247      0.1924
     84  C          1.6180    7.3480  -50.8780 C.2   247  SER247      0.2314
     85  O          1.6430    8.5740  -51.0120 O.2   247  SER247     -0.2863
     86  CB         1.7790    5.9980  -48.7470 C.3   247  SER247      0.2116
     87  OG         2.0510    4.6710  -49.1810 O.3   247  SER247     -0.2180
     88  N          2.8340    3.9860  -57.1240 N.3   250  PHE250     -0.1241
     89  CA         2.7520    2.5350  -56.9550 C.3   250  PHE250      0.1605
     90  C          3.4060    1.8090  -58.1310 C.2   250  PHE250      0.2264
     91  O          2.9500    1.9130  -59.2670 O.2   250  PHE250     -0.2867
     92  CB         1.2730    2.1660  -56.7550 C.3   250  PHE250      0.0534
     93  CG         0.9470    0.7150  -56.9480 C.ar  250  PHE250     -0.0203
     94  CD1        1.2320   -0.2200  -55.9640 C.ar  250  PHE250     -0.0042
     95  CD2        0.2960    0.2960  -58.0950 C.ar  250  PHE250     -0.0042
     96  CE1        0.9080   -1.5430  -56.1440 C.ar  250  PHE250     -0.0003
     97  CE2       -0.0310   -1.0270  -58.2750 C.ar  250  PHE250     -0.0003
     98  CZ         0.2750   -1.9450  -57.3010 C.ar  250  PHE250     -0.0000
     99  N          3.7860   -1.4050  -58.9120 N.3   252  GLY252     -0.1210
    100  CA         3.0980   -2.5550  -59.4740 C.3   252  GLY252      0.1956
    101  C          3.1080   -3.5370  -58.3490 C.2   252  GLY252      0.2612
    102  O          3.7000   -3.2560  -57.3240 O.2   252  GLY252     -0.2717
    103  N          2.4670   -4.6780  -58.5150 N.am  253  VAL253     -0.1965
    104  CA         2.4920   -5.6710  -57.4520 C.3   253  VAL253      0.1727
    105  C          3.7490   -6.5320  -57.4660 C.2   253  VAL253      0.2616
    106  O          4.2770   -6.8720  -58.5100 O.2   253  VAL253     -0.2715
    107  CB         1.1790   -6.5020  -57.3540 C.3   253  VAL253      0.0290
    108  CG1        0.3640   -6.3720  -58.5870 C.3   253  VAL253      0.0023
    109  CG2        1.4520   -7.9410  -57.0280 C.3   253  VAL253      0.0023
    110  N          4.2200   -6.8510  -56.2780 N.am  254  LEU254     -0.1977
    111  CA         5.3750   -7.6920  -56.1090 C.3   254  LEU254      0.1596
    112  C          4.9930   -9.1670  -56.2450 C.2   254  LEU254      0.2287
    113  O          4.2050   -9.7220  -55.4570 O.2   254  LEU254     -0.2864
    114  CB         6.0670   -7.3670  -54.7860 C.3   254  LEU254      0.0297
    115  CG         6.3710   -5.8610  -54.6610 C.3   254  LEU254      0.0022
    116  CD1        6.5870   -5.4410  -53.2210 C.3   254  LEU254      0.0001
    117  CD2        7.5600   -5.4170  -55.5280 C.3   254  LEU254      0.0001
    118  N         10.3760   -5.1970  -48.4930 N.3   273  GLU273     -0.1231
    119  CA         9.8000   -4.8150  -47.1870 C.3   273  GLU273      0.1699
    120  C          8.2710   -4.9640  -47.1920 C.2   273  GLU273      0.2592
    121  O          7.5280   -4.1880  -46.5740 O.2   273  GLU273     -0.2718
    122  CB        10.2470   -3.4010  -46.7510 C.3   273  GLU273      0.0402
    123  CG        11.7700   -3.1720  -46.7980 C.3   273  GLU273      0.1161
    124  CD        12.2220   -1.8640  -46.1250 C.2   273  GLU273      0.3649
    125  OE1       11.8050   -0.7670  -46.5500 O.co2 273  GLU273     -0.2457
    126  OE2       13.0270   -1.9400  -45.1730 O.co2 273  GLU273     -0.2457
    127  N          7.8310   -6.0050  -47.8830 N.am  274  VAL274     -0.1966
    128  CA         6.4320   -6.3450  -48.0060 C.3   274  VAL274      0.1727
    129  C          6.1540   -7.6690  -47.2790 C.2   274  VAL274      0.2616
    130  O          7.0720   -8.4650  -47.0650 O.2   274  VAL274     -0.2715
    131  CB         6.0500   -6.3360  -49.5070 C.3   274  VAL274      0.0290
    132  CG1        5.2330   -7.5180  -49.8900 C.3   274  VAL274      0.0023
    133  CG2        5.3410   -5.0380  -49.8520 C.3   274  VAL274      0.0023
    134  N          4.9010   -7.8990  -46.8860 N.am  275  HIS275     -0.1959
    135  CA         4.5650   -9.0860  -46.0990 C.3   275  HIS275      0.1787
    136  C          4.4350  -10.3650  -46.9400 C.2   275  HIS275      0.2620
    137  O          4.5750  -11.4690  -46.4070 O.2   275  HIS275     -0.2715
    138  CB         3.3060   -8.8560  -45.2300 C.3   275  HIS275      0.0785
    139  CG         3.0910   -9.9120  -44.1780 C.ar  275  HIS275      0.0821
    140  ND1        3.3890   -9.7140  -42.8450 N.ar  275  HIS275     -0.2267
    141  CD2        2.6280  -11.1860  -44.2710 C.ar  275  HIS275      0.1154
    142  CE1        3.1090  -10.8110  -42.1610 C.ar  275  HIS275      0.1986
    143  NE2        2.6600  -11.7270  -43.0050 N.ar  275  HIS275     -0.2212
    144  N          4.1900  -10.2260  -48.2430 N.am  276  ARG276     -0.1963
    145  CA         4.0030  -11.3970  -49.1160 C.3   276  ARG276      0.1729
    146  C          4.1970  -11.0810  -50.5950 C.2   276  ARG276      0.2616
    147  O          4.0380   -9.9360  -51.0230 O.2   276  ARG276     -0.2715
    148  CB         2.6160  -12.0350  -48.9160 C.3   276  ARG276      0.0348
    149  CG         1.5050  -11.5760  -49.9130 C.3   276  ARG276      0.0492
    150  CD         1.0550  -10.1540  -49.6210 C.3   276  ARG276      0.2205
    151  NE         0.5740  -10.0500  -48.2530 N.pl3 276  ARG276     -0.0865
    152  CZ         0.5380   -8.9320  -47.5370 C.cat 276  ARG276      0.5346
    153  NH1        0.9720   -7.7860  -48.0470 N.pl3 276  ARG276      0.1354
    154  NH2        0.0520   -8.9710  -46.3060 N.pl3 276  ARG276      0.1354
    155  N          4.5280  -12.1160  -51.3620 N.am  277  LEU277     -0.1963
    156  CA         4.5600  -12.0200  -52.8070 C.3   277  LEU277      0.1728
    157  C          3.3530  -12.7580  -53.3440 C.2   277  LEU277      0.2616
    158  O          2.9530  -13.7820  -52.7810 O.2   277  LEU277     -0.2715
    159  CB         5.8470  -12.6430  -53.3650 C.3   277  LEU277      0.0311
    160  CG         7.1820  -12.0650  -52.8720 C.3   277  LEU277      0.0022
    161  CD1        8.3560  -12.7750  -53.5550 C.3   277  LEU277      0.0001
    162  CD2        7.2610  -10.5600  -53.0800 C.3   277  LEU277      0.0001
    163  N          2.7600  -12.2380  -54.4130 N.am  278  VAL278     -0.1977
    164  CA         1.7320  -12.9760  -55.1300 C.3   278  VAL278      0.1596
    165  C          2.4220  -13.9210  -56.1140 C.2   278  VAL278      0.2287
    166  O          3.1850  -13.4740  -56.9840 O.2   278  VAL278     -0.2864
    167  CB         0.7850  -12.0350  -55.8980 C.3   278  VAL278      0.0276
    168  CG1       -0.2590  -12.8270  -56.6630 C.3   278  VAL278      0.0022
    169  CG2        0.1200  -11.0330  -54.9320 C.3   278  VAL278      0.0022
@<TRIPOS>BOND
     1   100    99    1
     2   100   101    1
     3    91    90    2
     4   108   107    1
     5   103   101   am
     6   103   104    1
     7   106   105    2
     8   101   102    2
     9    97    95   ar
    10    97    98   ar
    11    90    89    1
    12    95    93   ar
    13   105   104    1
    14   105   110   am
    15   104   107    1
    16   107   109    1
    17    98    96   ar
    18    88    89    1
    19   166   165    2
    20    89    92    1
    21    93    92    1
    22    93    94   ar
    23   168   167    1
    24   110   111    1
    25   112   111    1
    26   112   113    2
    27    96    94   ar
    28   165   164    1
    29   111   114    1
    30   167   164    1
    31   167   169    1
    32   117   115    1
    33    38    39    1
    34   164   163    1
    35    81    79    1
    36   114   115    1
    37   115   116    1
    38   163   157   am
    39    39    42    1
    40    39    40    1
    41    42    44    1
    42    42    43    1
    43    79    78    2
    44    79    80    1
    45   161   160    1
    46   159   160    1
    47   159   156    1
    48   157   156    1
    49   157   158    2
    50    40    41    2
    51    78    77    1
    52   162   160    1
    53   156   155    1
    54    43    45    1
    55    75    76    1
    56    75    72    1
    57    77    76    1
    58    71    72    1
    59    74    73    2
    60   155   146   am
    61    72    73    1
    62   147   146    2
    63    85    84    2
    64    73    82   am
    65    84    83    1
    66   146   145    1
    67    82    83    1
    68   149   150    1
    69   149   148    1
    70   132   131    1
    71   133   131    1
    72    83    86    1
    73   150   151    1
    74    70    68   ar
    75   131   128    1
    76    46    47    1
    77    87    86    1
    78   145   148    1
    79   145   144    1
    80    68    69   ar
    81    68    67    1
    82   118   119    1
    83   151   152    2
    84   144   136   am
    85    67    64    1
    86   153   152    1
    87   128   127    1
    88   128   129    1
    89    47    50    1
    90    47    48    1
    91    50    51    1
    92   127   120   am
    93   152   154    1
    94   129   130    2
    95   129   134   am
    96   120   119    1
    97   120   121    2
    98   119   122    1
    99   136   137    2
   100   136   135    1
   101   134   135    1
   102    49    48    2
   103   123   122    1
   104   123   124    1
   105    64    65    1
   106    64    63    1
   107    66    65    2
   108   125   124   ar
   109   124   126   ar
   110   135   138    1
   111    34    35    2
   112    34    33    1
   113    63    54   am
   114    59    61   ar
   115    59    57   ar
   116   138   139    1
   117    61    62   ar
   118    54    55    2
   119    54    53    1
   120    32    33    1
   121    33    36    1
   122    56    57    1
   123    56    53    1
   124    37    36    1
   125   141   139   ar
   126   141   143   ar
   127    57    58   ar
   128   139   140   ar
   129    52    53    1
   130    62    60   ar
   131    31    30    1
   132    30    29    1
   133    29    28    1
   134    58    60   ar
   135   143   142   ar
   136    28    27    1
   137   140   142   ar
   138    27    24    1
   139    24    25    1
   140    24    23    1
   141    26    25    2
   142    10     9    1
   143     7     8    1
   144     7     6    1
   145     9     8    2
   146     9    11    1
   147     6     5    1
   148    22    20    1
   149     5     2    1
   150    20    21    1
   151    20    19    2
   152     2     1    1
   153     2     3    1
   154    19    18    1
   155     4     3    2
   156    18    17    1
   157    17    16    1
   158    12    13    1
   159    13    16    1
   160    13    14    1
   161    14    15    2
