@<TRIPOS>MOLECULE
tmp/2y8lC00.pdb
 172 167 0 0 0
SMALL
GASTEIGER

@<TRIPOS>ATOM
      1  N          0.9810    0.1630  -36.2250 N.3    47  ARG47      -0.1245
      2  CA         0.0380   -0.8420  -36.7110 C.3    47  ARG47       0.1563
      3  C         -0.5750   -1.6730  -35.6060 C.2    47  ARG47       0.2260
      4  O         -1.5270   -2.4140  -35.8390 O.2    47  ARG47      -0.2867
      5  CB         0.7260   -1.7650  -37.7260 C.3    47  ARG47       0.0307
      6  CG         0.5980   -1.3090  -39.1640 C.3    47  ARG47       0.0489
      7  CD         1.5390   -2.0820  -40.0290 C.3    47  ARG47       0.2205
      8  NE         2.9280   -1.6300  -39.8810 N.pl3  47  ARG47      -0.0865
      9  CZ         3.9950   -2.4220  -39.9660 C.cat  47  ARG47       0.5346
     10  NH1        3.8470   -3.7240  -40.1950 N.pl3  47  ARG47       0.1354
     11  NH2        5.2120   -1.9170  -39.8150 N.pl3  47  ARG47       0.1354
     12  N         -3.7370   -7.4720  -23.6760 N.3    61  GLY61      -0.1210
     13  CA        -3.9230   -7.7880  -25.0910 C.3    61  GLY61       0.1956
     14  C         -3.3510   -6.7460  -26.0430 C.2    61  GLY61       0.2611
     15  O         -2.6530   -5.8080  -25.6180 O.2    61  GLY61      -0.2717
     16  N         -3.6510   -6.9220  -27.3300 N.am   62  MET62      -0.1979
     17  CA        -3.2090   -6.0140  -28.3870 C.3    62  MET62       0.1605
     18  C         -4.4070   -5.4650  -29.1460 C.2    62  MET62       0.2287
     19  O         -5.4740   -6.0760  -29.1530 O.2    62  MET62      -0.2864
     20  CB        -2.3060   -6.7480  -29.3900 C.3    62  MET62       0.0413
     21  CG        -0.9840   -7.2020  -28.8510 C.3    62  MET62       0.0598
     22  SD         0.1960   -5.8530  -28.6540 S.3    62  MET62      -0.1393
     23  CE         0.8040   -6.3040  -27.0560 C.3    62  MET62       0.0692
     24  N         -4.9970   -4.3030  -33.0630 N.3    64  THR64      -0.1203
     25  CA        -4.3840   -4.3000  -34.3740 C.3    64  THR64       0.1994
     26  C         -5.3960   -3.8910  -35.4560 C.2    64  THR64       0.2618
     27  O         -6.5780   -3.6150  -35.1570 O.2    64  THR64      -0.2717
     28  CB        -3.8080   -5.6920  -34.7100 C.3    64  THR64       0.1784
     29  OG1       -4.8800   -6.6380  -34.8200 O.3    64  THR64      -0.2211
     30  CG2       -2.8250   -6.1440  -33.6330 C.3    64  THR64       0.0376
     31  N         -4.9180   -3.8430  -36.7030 N.am   65  ILE65      -0.1965
     32  CA        -5.7700   -3.5470  -37.8400 C.3    65  ILE65       0.1727
     33  C         -6.8260   -4.6240  -38.0370 C.2    65  ILE65       0.2617
     34  O         -7.9520   -4.2980  -38.4060 O.2    65  ILE65      -0.2715
     35  CB        -4.9910   -3.3630  -39.1670 C.3    65  ILE65       0.0290
     36  CG1       -3.8330   -2.3760  -39.0060 C.3    65  ILE65       0.0022
     37  CG2       -5.9500   -2.9680  -40.3290 C.3    65  ILE65       0.0023
     38  CD1       -4.1790   -1.1550  -38.2490 C.3    65  ILE65       0.0001
     39  N         -6.4730   -5.8870  -37.7960 N.am   66  THR66      -0.1937
     40  CA        -7.4630   -6.9690  -37.8550 C.3    66  THR66       0.2028
     41  C         -8.6730   -6.6390  -36.9670 C.2    66  THR66       0.2642
     42  O         -9.8140   -6.8480  -37.3730 O.2    66  THR66      -0.2714
     43  CB        -6.8840   -8.3590  -37.4840 C.3    66  THR66       0.1808
     44  OG1       -5.8210   -8.6870  -38.3810 O.3    66  THR66      -0.2208
     45  CG2       -7.9520   -9.4410  -37.5850 C.3    66  THR66       0.0379
     46  N         -8.4170   -6.0950  -35.7820 N.am   67  ASP67      -0.1971
     47  CA        -9.4970   -5.7200  -34.8730 C.3    67  ASP67       0.1709
     48  C        -10.3390   -4.6080  -35.4810 C.2    67  ASP67       0.2293
     49  O        -11.5760   -4.6680  -35.4720 O.2    67  ASP67      -0.2864
     50  CB        -8.9420   -5.3110  -33.5110 C.3    67  ASP67       0.1436
     51  CG        -8.0710   -6.3870  -32.8940 C.2    67  ASP67       0.3671
     52  OD1       -8.5890   -7.4800  -32.6160 O.co2  67  ASP67      -0.2456
     53  OD2       -6.8470   -6.1570  -32.7180 O.co2  67  ASP67      -0.2456
     54  N        -12.5090   -6.2130  -38.2000 N.3    70  ASN70      -0.1240
     55  CA       -13.6480   -6.8310  -37.5410 C.3    70  ASN70       0.1653
     56  C        -14.7140   -5.8040  -37.1430 C.2    70  ASN70       0.2266
     57  O        -15.8960   -5.9400  -37.4840 O.2    70  ASN70      -0.2867
     58  CB       -13.2050   -7.6040  -36.2960 C.3    70  ASN70       0.1155
     59  CG       -12.5100   -8.8900  -36.6290 C.2    70  ASN70       0.2627
     60  OD1      -12.8220   -9.5310  -37.6170 O.2    70  ASN70      -0.2716
     61  ND2      -11.5640   -9.2830  -35.7980 N.am   70  ASN70      -0.0877
     62  N        -16.4920   -9.2410  -28.3970 N.3    98  TYR98      -0.1241
     63  CA       -15.8740  -10.1330  -29.3820 C.3    98  TYR98       0.1605
     64  C        -15.2700  -11.4010  -28.7890 C.2    98  TYR98       0.2264
     65  O        -15.4040  -12.4750  -29.3700 O.2    98  TYR98      -0.2867
     66  CB       -14.8310   -9.3920  -30.2220 C.3    98  TYR98       0.0534
     67  CG       -14.1900  -10.2320  -31.3230 C.ar   98  TYR98      -0.0201
     68  CD1      -14.9700  -10.8240  -32.3300 C.ar   98  TYR98      -0.0009
     69  CD2      -12.7990  -10.4230  -31.3670 C.ar   98  TYR98      -0.0009
     70  CE1      -14.3820  -11.5960  -33.3460 C.ar   98  TYR98       0.0417
     71  CE2      -12.1980  -11.1900  -32.3830 C.ar   98  TYR98       0.0417
     72  CZ       -12.9940  -11.7710  -33.3660 C.ar   98  TYR98       0.1957
     73  OH       -12.4020  -12.5260  -34.3590 O.3    98  TYR98      -0.2866
     74  N         -8.5520  -16.1320  -24.4720 N.3   104  LYS104     -0.1231
     75  CA        -7.4720  -15.5180  -25.2940 C.3   104  LYS104      0.1678
     76  C         -6.5710  -14.4830  -24.6020 C.2   104  LYS104      0.2434
     77  O         -6.7560  -13.2830  -24.7870 O.2   104  LYS104     -0.2733
     78  CB        -8.0340  -14.9410  -26.6080 C.3   104  LYS104      0.0284
     79  CG        -8.7370  -15.9570  -27.5240 C.3   104  LYS104      0.0035
     80  CD        -7.7540  -16.8020  -28.3350 C.3   104  LYS104      0.0206
     81  CE        -8.4880  -17.6910  -29.3330 C.3   104  LYS104      0.1093
     82  NZ        -7.5730  -18.7050  -29.9190 N.3   104  LYS104     -0.1314
     83  N         -5.5770  -14.9470  -23.8230 N.am  105  PRO105     -0.2718
     84  CA        -4.6980  -14.0230  -23.1050 C.3   105  PRO105      0.1535
     85  C         -3.7030  -13.3200  -24.0330 C.2   105  PRO105      0.2598
     86  O         -3.5790  -13.6920  -25.2020 O.2   105  PRO105     -0.2715
     87  CB        -3.9500  -14.9440  -22.1410 C.3   105  PRO105      0.0310
     88  CG        -3.8960  -16.2540  -22.8530 C.3   105  PRO105      0.0237
     89  CD        -5.1760  -16.3550  -23.6300 C.3   105  PRO105      0.0939
     90  N         -3.0110  -12.3110  -23.5100 N.am  106  LEU106     -0.1964
     91  CA        -1.9400  -11.6500  -24.2460 C.3   106  LEU106      0.1728
     92  C         -0.7380  -12.5700  -24.3020 C.2   106  LEU106      0.2616
     93  O         -0.2430  -13.0090  -23.2650 O.2   106  LEU106     -0.2715
     94  CB        -1.5420  -10.3190  -23.5930 C.3   106  LEU106      0.0311
     95  CG        -0.2170   -9.6950  -24.0670 C.3   106  LEU106      0.0022
     96  CD1       -0.3510   -9.0060  -25.4080 C.3   106  LEU106      0.0001
     97  CD2        0.3030   -8.7250  -23.0480 C.3   106  LEU106      0.0001
     98  N         -0.2750  -12.8680  -25.5110 N.am  107  VAL107     -0.1977
     99  CA         0.9750  -13.6020  -25.6630 C.3   107  VAL107      0.1596
    100  C          2.1450  -12.6310  -25.8290 C.2   107  VAL107      0.2287
    101  O          2.0600  -11.6570  -26.5820 O.2   107  VAL107     -0.2864
    102  CB         0.8900  -14.7150  -26.7660 C.3   107  VAL107      0.0276
    103  CG1       -0.4200  -14.6400  -27.5460 C.3   107  VAL107      0.0022
    104  CG2        2.1310  -14.7340  -27.6810 C.3   107  VAL107      0.0022
    105  N         -0.5500  -17.9980  -34.0000 N.3   126  LYS126     -0.1231
    106  CA        -1.0840  -17.4580  -35.2510 C.3   126  LYS126      0.1693
    107  C         -1.2730  -15.9620  -35.0980 C.2   126  LYS126      0.2592
    108  O         -2.3600  -15.4150  -35.2220 O.2   126  LYS126     -0.2718
    109  CB        -2.3540  -18.2110  -35.7010 C.3   126  LYS126      0.0285
    110  CG        -2.0330  -19.5930  -36.2460 C.3   126  LYS126      0.0035
    111  CD        -3.2570  -20.3640  -36.7090 C.3   126  LYS126      0.0206
    112  CE        -2.8210  -21.5700  -37.5390 C.3   126  LYS126      0.1093
    113  NZ        -3.9690  -22.4020  -38.0150 N.3   126  LYS126     -0.1314
    114  N         -0.1580  -15.3120  -34.8210 N.am  127  ILE127     -0.1966
    115  CA        -0.1540  -13.9180  -34.4590 C.3   127  ILE127      0.1727
    116  C          0.9320  -13.1930  -35.2570 C.2   127  ILE127      0.2616
    117  O          1.8690  -13.8350  -35.7470 O.2   127  ILE127     -0.2715
    118  CB        -0.0630  -13.8060  -32.8910 C.3   127  ILE127      0.0290
    119  CG1       -1.0430  -12.7790  -32.3730 C.3   127  ILE127      0.0022
    120  CG2        1.3650  -13.7790  -32.3280 C.3   127  ILE127      0.0023
    121  CD1       -2.4610  -13.2460  -32.5770 C.3   127  ILE127      0.0001
    122  N          0.7730  -11.8790  -35.4330 N.am  128  HIS128     -0.1959
    123  CA         1.7440  -11.0450  -36.1780 C.3   128  HIS128      0.1787
    124  C          2.4650  -10.0280  -35.2920 C.2   128  HIS128      0.2620
    125  O          3.4250   -9.3880  -35.7260 O.2   128  HIS128     -0.2715
    126  CB         1.0670  -10.2920  -37.3360 C.3   128  HIS128      0.0785
    127  CG         0.5190  -11.1820  -38.4080 C.ar  128  HIS128      0.0821
    128  ND1       -0.8320  -11.3200  -38.6410 N.ar  128  HIS128     -0.2267
    129  CD2        1.1360  -11.9850  -39.3070 C.ar  128  HIS128      0.1154
    130  CE1       -1.0230  -12.1590  -39.6420 C.ar  128  HIS128      0.1986
    131  NE2        0.1550  -12.5750  -40.0650 N.ar  128  HIS128     -0.2212
    132  N          1.9890   -9.8530  -34.0640 N.am  129  ARG129     -0.1963
    133  CA         2.5840   -8.8670  -33.1500 C.3   129  ARG129      0.1729
    134  C          2.9490   -9.5320  -31.8420 C.2   129  ARG129      0.2616
    135  O          2.0700   -9.9840  -31.1080 O.2   129  ARG129     -0.2715
    136  CB         1.6460   -7.6830  -32.8950 C.3   129  ARG129      0.0348
    137  CG         0.8930   -7.1710  -34.1230 C.3   129  ARG129      0.0492
    138  CD         1.7930   -6.4410  -35.0950 C.3   129  ARG129      0.2205
    139  NE         1.2260   -6.4030  -36.4400 N.pl3 129  ARG129     -0.0865
    140  CZ         1.7660   -5.7500  -37.4700 C.cat 129  ARG129      0.5346
    141  NH1        2.8950   -5.0490  -37.3200 N.pl3 129  ARG129      0.1354
    142  NH2        1.1720   -5.7950  -38.6570 N.pl3 129  ARG129      0.1354
    143  N          4.2490   -9.5970  -31.5640 N.am  130  LEU130     -0.1964
    144  CA         4.7610  -10.1880  -30.3440 C.3   130  LEU130      0.1713
    145  C          5.4810   -9.1120  -29.5150 C.2   130  LEU130      0.2458
    146  O          6.6600   -8.8170  -29.7550 O.2   130  LEU130     -0.2730
    147  CB         5.7140  -11.3290  -30.6990 C.3   130  LEU130      0.0310
    148  CG         6.2180  -12.2350  -29.5720 C.3   130  LEU130      0.0022
    149  CD1        5.0480  -12.8390  -28.7950 C.3   130  LEU130      0.0001
    150  CD2        7.1080  -13.3320  -30.1410 C.3   130  LEU130      0.0001
    151  N          4.7830   -8.5130  -28.5410 N.am  131  PRO131     -0.2727
    152  CA         5.4590   -7.5270  -27.7120 C.3   131  PRO131      0.1402
    153  C          6.5470   -8.1760  -26.8770 C.2   131  PRO131      0.2269
    154  O          6.3320   -9.2400  -26.2730 O.2   131  PRO131     -0.2865
    155  CB         4.3340   -7.0040  -26.8080 C.3   131  PRO131      0.0296
    156  CG         3.4160   -8.1440  -26.6810 C.3   131  PRO131      0.0237
    157  CD         3.4140   -8.7730  -28.0590 C.3   131  PRO131      0.0939
    158  N         -4.4080  -11.4640  -44.7200 N.3   203  SER203     -0.1217
    159  CA        -4.0250  -10.0500  -44.5930 C.3   203  SER203      0.1889
    160  C         -4.0600   -9.2280  -45.9010 C.2   203  SER203      0.2288
    161  O         -4.0990   -7.9920  -45.8390 O.2   203  SER203     -0.2866
    162  CB        -2.6910   -9.8890  -43.8350 C.3   203  SER203      0.2089
    163  OG        -1.6890  -10.7640  -44.3250 O.3   203  SER203     -0.2183
    164  N         -4.5720   -5.1630  -45.5940 N.3   220  LYS220     -0.1245
    165  CA        -5.1380   -4.7340  -44.3130 C.3   220  LYS220      0.1561
    166  C         -4.5750   -3.3680  -43.9240 C.2   220  LYS220      0.2260
    167  O         -5.3080   -2.5000  -43.4450 O.2   220  LYS220     -0.2867
    168  CB        -4.8910   -5.7740  -43.2050 C.3   220  LYS220      0.0271
    169  CG        -5.8670   -6.9560  -43.2300 C.3   220  LYS220      0.0035
    170  CD        -5.8070   -7.7880  -41.9550 C.3   220  LYS220      0.0206
    171  CE        -6.9020   -8.8570  -41.9560 C.3   220  LYS220      0.1093
    172  NZ        -6.7570   -9.8730  -40.8700 N.3   220  LYS220     -0.1314
@<TRIPOS>BOND
     1   160   161    2
     2   160   159    1
     3   164   165    1
     4   158   159    1
     5   159   162    1
     6   163   162    1
     7   165   166    1
     8   165   168    1
     9   166   167    2
    10   169   168    1
    11   169   170    1
    12   171   170    1
    13   171   172    1
    14    37    35    1
    15    10     9    1
    16   131   130   ar
    17   131   129   ar
    18     7     8    1
    19     7     6    1
    20     9     8    2
    21     9    11    1
    22   130   128   ar
    23   129   127   ar
    24    35    36    1
    25    35    32    1
    26     6     5    1
    27    36    38    1
    28   142   140    1
    29   128   127   ar
    30   127   126    1
    31    34    33    2
    32    44    43    1
    33    54    55    1
    34    33    32    1
    35    33    39   am
    36   113   112    1
    37    40    39    1
    38    40    43    1
    39    40    41    1
    40    32    31    1
    41     5     2    1
    42    60    59    2
    43    45    43    1
    44    55    56    1
    45    55    58    1
    46   112   111    1
    47    57    56    2
    48   140   141    1
    49   140   139    2
    50    42    41    2
    51   126   123    1
    52    41    46   am
    53     2     1    1
    54     2     3    1
    55   111   110    1
    56    31    26   am
    57    59    58    1
    58    59    61   am
    59   139   138    1
    60   110   109    1
    61   123   122    1
    62   123   124    1
    63     4     3    2
    64    46    47    1
    65   117   116    2
    66   125   124    2
    67   109   106    1
    68    48    49    2
    69    48    47    1
    70    26    27    2
    71    26    25    1
    72   122   116   am
    73   124   132   am
    74   116   115    1
    75   106   107    1
    76   106   105    1
    77   108   107    2
    78   107   114   am
    79   138   137    1
    80    47    50    1
    81   114   115    1
    82    29    28    1
    83    28    25    1
    84    28    30    1
    85   115   118    1
    86    25    24    1
    87    73    72    1
    88   137   136    1
    89   132   133    1
    90    50    51    1
    91    72    70   ar
    92    72    71   ar
    93    70    68   ar
    94   133   136    1
    95   133   134    1
    96    51    53   ar
    97    51    52   ar
    98   118   119    1
    99   118   120    1
   100   121   119    1
   101    71    69   ar
   102    68    67   ar
   103   134   143   am
   104   134   135    2
   105   143   144    1
   106    69    67   ar
   107    67    66    1
   108   147   144    1
   109   147   148    1
   110   144   145    1
   111    66    63    1
   112   150   148    1
   113    82    81    1
   114   146   145    2
   115   148   149    1
   116   145   151   am
   117    20    21    1
   118    20    17    1
   119    63    64    1
   120    63    62    1
   121    65    64    2
   122    81    80    1
   123    19    18    2
   124    18    17    1
   125    21    22    1
   126    22    23    1
   127   151   157    1
   128   151   152    1
   129    17    16    1
   130    80    79    1
   131   157   156    1
   132   152   153    1
   133   152   155    1
   134   104   102    1
   135   103   102    1
   136    79    78    1
   137    16    14   am
   138   153   154    2
   139   155   156    1
   140   102    99    1
   141    78    75    1
   142   101   100    2
   143    14    15    2
   144    14    13    1
   145   100    99    1
   146    99    98    1
   147    98    92   am
   148    96    95    1
   149    75    76    1
   150    75    74    1
   151    86    85    2
   152    13    12    1
   153    77    76    2
   154    76    83   am
   155    92    91    1
   156    92    93    2
   157    91    94    1
   158    91    90    1
   159    95    94    1
   160    95    97    1
   161    85    90   am
   162    85    84    1
   163    83    89    1
   164    83    84    1
   165    89    88    1
   166    84    87    1
   167    88    87    1
