@<TRIPOS>MOLECULE
tmp/2y8lC02.pdb
 132 125 0 0 0
SMALL
GASTEIGER

@<TRIPOS>ATOM
      1  N          0.7730  -11.8790  -35.4330 N.3   128  HIS128     -0.1241
      2  CA         1.7440  -11.0450  -36.1780 C.3   128  HIS128      0.1621
      3  C          2.4650  -10.0280  -35.2920 C.2   128  HIS128      0.2264
      4  O          3.4250   -9.3880  -35.7260 O.2   128  HIS128     -0.2867
      5  CB         1.0670  -10.2920  -37.3360 C.3   128  HIS128      0.0745
      6  CG         0.5190  -11.1820  -38.4080 C.ar  128  HIS128      0.0817
      7  ND1       -0.8320  -11.3200  -38.6410 N.ar  128  HIS128     -0.2268
      8  CD2        1.1360  -11.9850  -39.3070 C.ar  128  HIS128      0.1154
      9  CE1       -1.0230  -12.1590  -39.6420 C.ar  128  HIS128      0.1986
     10  NE2        0.1550  -12.5750  -40.0650 N.ar  128  HIS128     -0.2212
     11  N          0.7980  -20.8280  -50.1130 N.3   177  THR177     -0.1218
     12  CA        -0.5570  -21.3390  -50.2920 C.3   177  THR177      0.1862
     13  C         -0.9010  -21.3200  -51.7670 C.2   177  THR177      0.2287
     14  O         -0.6810  -20.3100  -52.4210 O.2   177  THR177     -0.2866
     15  CB        -1.5750  -20.5020  -49.5080 C.3   177  THR177      0.1770
     16  OG1       -1.0970  -20.3200  -48.1740 O.3   177  THR177     -0.2211
     17  CG2       -2.9250  -21.1970  -49.4600 C.3   177  THR177      0.0375
     18  N         -7.5900  -22.0830  -52.9430 N.3   180  ASN180     -0.1225
     19  CA        -8.5820  -21.3070  -52.2210 C.3   180  ASN180      0.1785
     20  C         -8.0600  -19.9030  -51.9440 C.2   180  ASN180      0.2597
     21  O         -8.2010  -19.3850  -50.8380 O.2   180  ASN180     -0.2718
     22  CB        -8.9620  -22.0070  -50.9000 C.3   180  ASN180      0.1169
     23  CG        -9.4150  -23.4620  -51.0950 C.2   180  ASN180      0.2627
     24  OD1       -8.8300  -24.3860  -50.5110 O.2   180  ASN180     -0.2716
     25  ND2      -10.4590  -23.6680  -51.9040 N.am  180  ASN180     -0.0877
     26  N         -7.4400  -19.3020  -52.9550 N.am  181  ILE181     -0.1966
     27  CA        -6.8410  -17.9920  -52.8100 C.3   181  ILE181      0.1727
     28  C         -7.9090  -16.9040  -52.8340 C.2   181  ILE181      0.2616
     29  O         -8.6750  -16.8060  -53.7840 O.2   181  ILE181     -0.2715
     30  CB        -5.7580  -17.7500  -53.8790 C.3   181  ILE181      0.0290
     31  CG1       -4.7340  -18.8970  -53.8830 C.3   181  ILE181      0.0022
     32  CG2       -5.0650  -16.3920  -53.6700 C.3   181  ILE181      0.0023
     33  CD1       -3.9720  -19.1190  -52.5800 C.3   181  ILE181      0.0001
     34  N         -7.9610  -16.1000  -51.7720 N.am  182  ALA182     -0.1977
     35  CA        -8.9670  -15.0490  -51.6630 C.3   182  ALA182      0.1597
     36  C         -8.5430  -13.8470  -52.4920 C.2   182  ALA182      0.2287
     37  O         -7.4480  -13.3130  -52.3180 O.2   182  ALA182     -0.2864
     38  CB        -9.2070  -14.6640  -50.2130 C.3   182  ALA182      0.0319
     39  N         -9.5010  -14.6490  -42.7440 N.3   201  ARG201     -0.1231
     40  CA        -8.3970  -14.3820  -41.8140 C.3   201  ARG201      0.1694
     41  C         -7.1070  -14.3400  -42.6140 C.2   201  ARG201      0.2592
     42  O         -6.2060  -15.1710  -42.4560 O.2   201  ARG201     -0.2718
     43  CB        -8.3150  -15.4350  -40.7010 C.3   201  ARG201      0.0321
     44  CG        -9.5910  -15.6350  -39.8960 C.3   201  ARG201      0.0489
     45  CD        -9.3300  -16.5470  -38.7060 C.3   201  ARG201      0.2205
     46  NE       -10.5610  -16.8740  -37.9980 N.pl3 201  ARG201     -0.0865
     47  CZ       -10.6340  -17.1570  -36.6970 C.cat 201  ARG201      0.5346
     48  NH1       -9.5400  -17.1520  -35.9440 N.pl3 201  ARG201      0.1354
     49  NH2      -11.8080  -17.4420  -36.1440 N.pl3 201  ARG201      0.1354
     50  N         -7.0470  -13.3630  -43.4980 N.am  202  VAL202     -0.1966
     51  CA        -5.9990  -13.2840  -44.4980 C.3   202  VAL202      0.1727
     52  C         -5.6870  -11.8040  -44.6330 C.2   202  VAL202      0.2617
     53  O         -6.6020  -10.9680  -44.6170 O.2   202  VAL202     -0.2715
     54  CB        -6.4900  -13.9510  -45.8160 C.3   202  VAL202      0.0290
     55  CG1       -6.1590  -13.1310  -47.0300 C.3   202  VAL202      0.0023
     56  CG2       -5.9580  -15.3800  -45.9260 C.3   202  VAL202      0.0023
     57  N         -4.4080  -11.4640  -44.7200 N.am  203  SER203     -0.1936
     58  CA        -4.0250  -10.0500  -44.5930 C.3   203  SER203      0.2055
     59  C         -4.0600   -9.2280  -45.9010 C.2   203  SER203      0.2642
     60  O         -4.0990   -7.9920  -45.8390 O.2   203  SER203     -0.2714
     61  CB        -2.6910   -9.8890  -43.8350 C.3   203  SER203      0.2130
     62  OG        -1.6890  -10.7640  -44.3250 O.3   203  SER203     -0.2179
     63  N         -4.0670   -9.8950  -47.0610 N.am  204  ALA204     -0.1977
     64  CA        -4.1050   -9.1920  -48.3470 C.3   204  ALA204      0.1597
     65  C         -4.8750   -9.9430  -49.4290 C.2   204  ALA204      0.2287
     66  O         -4.8690  -11.1810  -49.4670 O.2   204  ALA204     -0.2864
     67  CB        -2.7100   -8.8970  -48.8240 C.3   204  ALA204      0.0319
     68  N         -5.2720  -10.2060  -53.6050 N.3   206  PRO206     -0.2116
     69  CA        -4.8700   -9.8180  -54.9400 C.3   206  PRO206      0.1372
     70  C         -6.0820   -9.3280  -55.7090 C.2   206  PRO206      0.2244
     71  O         -7.1650   -9.9180  -55.6070 O.2   206  PRO206     -0.2868
     72  CB        -4.3510  -11.1250  -55.5420 C.3   206  PRO206      0.0268
     73  CG        -3.9690  -11.9710  -54.3560 C.3   206  PRO206      0.0207
     74  CD        -5.0420  -11.6420  -53.3660 C.3   206  PRO206      0.0892
     75  N          4.9010   -7.8990  -46.8860 N.3   275  HIS275     -0.1226
     76  CA         4.5650   -9.0860  -46.0990 C.3   275  HIS275      0.1752
     77  C          4.4350  -10.3650  -46.9400 C.2   275  HIS275      0.2595
     78  O          4.5750  -11.4690  -46.4070 O.2   275  HIS275     -0.2718
     79  CB         3.3060   -8.8560  -45.2300 C.3   275  HIS275      0.0759
     80  CG         3.0910   -9.9120  -44.1780 C.ar  275  HIS275      0.0818
     81  ND1        3.3890   -9.7140  -42.8450 N.ar  275  HIS275     -0.2268
     82  CD2        2.6280  -11.1860  -44.2710 C.ar  275  HIS275      0.1154
     83  CE1        3.1090  -10.8110  -42.1610 C.ar  275  HIS275      0.1986
     84  NE2        2.6600  -11.7270  -43.0050 N.ar  275  HIS275     -0.2212
     85  N          4.1900  -10.2260  -48.2430 N.am  276  ARG276     -0.1980
     86  CA         4.0030  -11.3970  -49.1160 C.3   276  ARG276      0.1597
     87  C          4.1970  -11.0810  -50.5950 C.2   276  ARG276      0.2287
     88  O          4.0380   -9.9360  -51.0230 O.2   276  ARG276     -0.2864
     89  CB         2.6160  -12.0350  -48.9160 C.3   276  ARG276      0.0334
     90  CG         1.5050  -11.5760  -49.9130 C.3   276  ARG276      0.0492
     91  CD         1.0550  -10.1540  -49.6210 C.3   276  ARG276      0.2205
     92  NE         0.5740  -10.0500  -48.2530 N.pl3 276  ARG276     -0.0865
     93  CZ         0.5380   -8.9320  -47.5370 C.cat 276  ARG276      0.5346
     94  NH1        0.9720   -7.7860  -48.0470 N.pl3 276  ARG276      0.1354
     95  NH2        0.0520   -8.9710  -46.3060 N.pl3 276  ARG276      0.1354
     96  N          0.2170  -17.5610  -53.0030 N.3   289  ILE289     -0.1245
     97  CA         0.7990  -16.5250  -52.1640 C.3   289  ILE289      0.1561
     98  C          1.9210  -17.1180  -51.3670 C.2   289  ILE289      0.2260
     99  O          1.8190  -18.2380  -50.8820 O.2   289  ILE289     -0.2867
    100  CB        -0.2390  -15.8990  -51.1710 C.3   289  ILE289      0.0252
    101  CG1       -1.0840  -14.8490  -51.8830 C.3   289  ILE289      0.0019
    102  CG2        0.4750  -15.1370  -50.0150 C.3   289  ILE289      0.0019
    103  CD1       -2.2820  -15.3760  -52.4420 C.3   289  ILE289      0.0001
    104  N          4.0080  -15.9360  -48.0800 N.3   291  SER291     -0.1217
    105  CA         3.9440  -14.9780  -46.9870 C.3   291  SER291      0.1889
    106  C          5.2240  -15.0740  -46.1630 C.2   291  SER291      0.2288
    107  O          5.9700  -16.0560  -46.2840 O.2   291  SER291     -0.2866
    108  CB         2.7470  -15.3490  -46.1230 C.3   291  SER291      0.2089
    109  OG         2.5780  -14.4910  -45.0050 O.3   291  SER291     -0.2183
    110  N          5.1520  -15.4880  -42.9550 N.3   293  SER293     -0.1202
    111  CA         4.8270  -16.6120  -42.0780 C.3   293  SER293      0.2020
    112  C          5.2180  -17.9500  -42.7490 C.2   293  SER293      0.2618
    113  O          5.8020  -18.8200  -42.0950 O.2   293  SER293     -0.2717
    114  CB         3.3330  -16.6360  -41.6980 C.3   293  SER293      0.2103
    115  OG         2.6090  -15.4670  -42.1150 O.3   293  SER293     -0.2182
    116  N          4.9090  -18.1120  -44.0430 N.am  294  ASP294     -0.1973
    117  CA         5.2800  -19.3330  -44.7660 C.3   294  ASP294      0.1709
    118  C          6.7820  -19.5560  -44.6990 C.2   294  ASP294      0.2293
    119  O          7.2410  -20.6420  -44.3460 O.2   294  ASP294     -0.2864
    120  CB         4.8830  -19.2770  -46.2360 C.3   294  ASP294      0.1436
    121  CG         3.4000  -19.2090  -46.4430 C.2   294  ASP294      0.3671
    122  OD1        2.6640  -19.9210  -45.7310 O.co2 294  ASP294     -0.2456
    123  OD2        2.9800  -18.4550  -47.3450 O.co2 294  ASP294     -0.2456
    124  N          7.8050  -25.6510  -44.3980 N.3   305  GLU305     -0.1301
    125  CA         6.6760  -24.7010  -44.7130 C.3   305  GLU305      0.1252
    126  C          6.6170  -24.3590  -46.1430 C.3   305  GLU305      0.2009
    127  O          5.5830  -24.0700  -46.8630 O.3   305  GLU305     -0.2188
    128  CB         6.8670  -23.4320  -43.8330 C.3   305  GLU305      0.0335
    129  CG         5.5350  -22.6420  -43.7350 C.3   305  GLU305      0.1156
    130  CD         4.2790  -23.3190  -44.3940 C.2   305  GLU305      0.3649
    131  OE1        3.9540  -24.5020  -44.0940 O.co2 305  GLU305     -0.2457
    132  OE2        3.5670  -22.6420  -45.1890 O.co2 305  GLU305     -0.2457
@<TRIPOS>BOND
     1    70    71    2
     2    70    69    1
     3    72    69    1
     4    72    73    1
     5    69    68    1
     6    73    74    1
     7    31    30    1
     8    31    33    1
     9    30    32    1
    10    30    27    1
    11    29    28    2
    12    68    74    1
    13    96    97    1
    14    26    27    1
    15    26    20   am
    16    18    19    1
    17    28    27    1
    18    28    34   am
    19    36    37    2
    20    36    35    1
    21   103   101    1
    22    14    13    2
    23    19    20    1
    24    19    22    1
    25    97    98    1
    26    97   100    1
    27    20    21    2
    28    25    23   am
    29   101   100    1
    30    34    35    1
    31    13    12    1
    32    35    38    1
    33    98    99    2
    34   100   102    1
    35    23    22    1
    36    23    24    2
    37    88    87    2
    38    87    86    1
    39    12    11    1
    40    12    15    1
    41    90    91    1
    42    90    89    1
    43    91    92    1
    44    15    17    1
    45    15    16    1
    46    66    65    2
    47    65    64    1
    48    86    89    1
    49    86    85    1
    50    67    64    1
    51    64    63    1
    52    92    93    2
    53    85    77   am
    54   104   105    1
    55    94    93    1
    56    93    95    1
    57   123   121   ar
    58    63    59   am
    59    55    54    1
    60   105   106    1
    61   105   108    1
    62    77    78    2
    63    77    76    1
    64    75    76    1
    65   127   126    1
    66   121   120    1
    67   121   122   ar
    68   107   106    2
    69   120   117    1
    70   126   125    1
    71   108   109    1
    72    76    79    1
    73    56    54    1
    74    59    60    2
    75    59    58    1
    76    54    51    1
    77    79    80    1
    78   132   130   ar
    79   117   118    1
    80   117   116    1
    81    57    52   am
    82    57    58    1
    83   125   124    1
    84   125   128    1
    85   118   119    2
    86    52    53    2
    87    52    51    1
    88    58    61    1
    89    51    50    1
    90   130   131   ar
    91   130   129    1
    92    62    61    1
    93    82    80   ar
    94    82    84   ar
    95    80    81   ar
    96   116   112   am
    97   128   129    1
    98    50    41   am
    99    84    83   ar
   100   110   111    1
   101    81    83   ar
   102   112   113    2
   103   112   111    1
   104    39    40    1
   105    41    42    2
   106    41    40    1
   107   115   114    1
   108   111   114    1
   109    40    43    1
   110    43    44    1
   111    10     9   ar
   112    10     8   ar
   113    44    45    1
   114     9     7   ar
   115     8     6   ar
   116    45    46    1
   117     7     6   ar
   118     6     5    1
   119    46    47    2
   120     5     2    1
   121    47    49    1
   122    47    48    1
   123     2     1    1
   124     2     3    1
   125     4     3    2
