@<TRIPOS>MOLECULE
tmp/2y8oA00.pdb
 151 146 0 0 0
SMALL
GASTEIGER

@<TRIPOS>ATOM
      1  N        -23.1980   36.6710    1.3190 N.3   107  GLY107     -0.1210
      2  CA       -23.8370   37.0620    2.5690 C.3   107  GLY107      0.1956
      3  C        -24.2180   35.9470    3.5290 C.2   107  GLY107      0.2611
      4  O        -23.3760   35.2080    4.0170 O.2   107  GLY107     -0.2717
      5  N        -25.5100   35.8540    3.8190 N.am  108  ALA108     -0.1979
      6  CA       -26.0390   34.8900    4.7780 C.3   108  ALA108      0.1597
      7  C        -27.4030   34.4710    4.2660 C.2   108  ALA108      0.2287
      8  O        -27.9450   35.1270    3.3920 O.2   108  ALA108     -0.2864
      9  CB       -26.1860   35.5370    6.1340 C.3   108  ALA108      0.0319
     10  N        -30.6380   33.5200    8.9580 N.3   112  ASN112     -0.1225
     11  CA       -29.5850   34.1790    9.7180 C.3   112  ASN112      0.1785
     12  C        -29.7790   35.6810    9.7320 C.2   112  ASN112      0.2597
     13  O        -29.4270   36.3510   10.6870 O.2   112  ASN112     -0.2718
     14  CB       -28.1990   33.8570    9.1320 C.3   112  ASN112      0.1169
     15  CG       -27.8940   32.3860    9.1440 C.2   112  ASN112      0.2627
     16  OD1      -27.3010   31.8760    8.2020 O.2   112  ASN112     -0.2716
     17  ND2      -28.3190   31.6850   10.1920 N.am  112  ASN112     -0.0877
     18  N        -30.3230   36.2230    8.6530 N.am  113  ILE113     -0.1980
     19  CA       -30.6320   37.6310    8.6440 C.3   113  ILE113      0.1595
     20  C        -31.6410   37.9540    9.7680 C.2   113  ILE113      0.2287
     21  O        -31.4530   38.9010   10.5470 O.2   113  ILE113     -0.2864
     22  CB       -31.2330   38.0380    7.2920 C.3   113  ILE113      0.0276
     23  CG1      -30.1500   37.9690    6.2060 C.3   113  ILE113      0.0022
     24  CG2      -31.8660   39.4370    7.3750 C.3   113  ILE113      0.0022
     25  CD1      -29.0330   39.0020    6.3910 C.3   113  ILE113      0.0001
     26  N        -30.4540   38.2030   13.4150 N.3   116  CYS116     -0.1221
     27  CA       -29.5870   39.3120   13.8110 C.3   116  CYS116      0.1808
     28  C        -30.2740   40.6320   13.9030 C.2   116  CYS116      0.2601
     29  O        -29.6480   41.5990   14.2680 O.2   116  CYS116     -0.2717
     30  CB       -28.4500   39.5310   12.8000 C.3   116  CYS116      0.0970
     31  SG       -27.3290   38.2260   12.8110 S.3   116  CYS116     -0.0800
     32  N        -31.5470   40.7050   13.4810 N.am  117  GLN117     -0.1979
     33  CA       -32.2050   42.0000   13.4710 C.3   117  GLN117      0.1601
     34  C        -33.6740   41.9260   13.1750 C.2   117  GLN117      0.2287
     35  O        -34.1710   40.9120   12.7180 O.2   117  GLN117     -0.2864
     36  CB       -31.5410   42.9100   12.4310 C.3   117  GLN117      0.0394
     37  CG       -31.7370   42.4080   10.9920 C.3   117  GLN117      0.0908
     38  CD       -30.4510   42.4770   10.1900 C.2   117  GLN117      0.2608
     39  OE1      -29.9740   43.5670    9.8630 O.2   117  GLN117     -0.2717
     40  NE2      -29.8600   41.3260    9.9080 N.am  117  GLN117     -0.0878
     41  N        -36.5440   43.1010   10.8220 N.3   119  LEU119     -0.1231
     42  CA       -36.7820   43.6710    9.4950 C.3   119  LEU119      0.1693
     43  C        -37.8680   44.7380    9.5600 C.2   119  LEU119      0.2592
     44  O        -38.8270   44.5710   10.2910 O.2   119  LEU119     -0.2718
     45  CB       -37.2670   42.5720    8.5460 C.3   119  LEU119      0.0284
     46  CG       -36.2820   41.4130    8.3620 C.3   119  LEU119      0.0019
     47  CD1      -36.8090   40.3920    7.3360 C.3   119  LEU119      0.0001
     48  CD2      -34.9320   41.9520    7.9600 C.3   119  LEU119      0.0001
     49  N        -37.7340   45.8080    8.7740 N.am  120  THR120     -0.1953
     50  CA       -38.8110   46.7930    8.5940 C.3   120  THR120      0.1897
     51  C        -39.7100   46.3920    7.4300 C.2   120  THR120      0.2313
     52  O        -39.3530   45.5030    6.6460 O.2   120  THR120     -0.2863
     53  CB       -38.2450   48.1870    8.2790 C.3   120  THR120      0.1794
     54  OG1      -37.6630   48.1880    6.9650 O.3   120  THR120     -0.2208
     55  CG2      -37.1760   48.5860    9.3200 C.3   120  THR120      0.0378
     56  N        -40.1400   47.9520    4.8800 N.3   122  ASP122     -0.1225
     57  CA       -39.3940   48.2860    3.6730 C.3   122  ASP122      0.1805
     58  C        -38.4810   47.1220    3.2820 C.2   122  ASP122      0.2597
     59  O        -38.3680   46.7880    2.1020 O.2   122  ASP122     -0.2718
     60  CB       -38.5810   49.5670    3.8680 C.3   122  ASP122      0.1424
     61  CG       -39.4350   50.8310    3.7790 C.2   122  ASP122      0.3668
     62  OD1      -40.5350   50.7910    3.1870 O.co2 122  ASP122     -0.2456
     63  OD2      -38.9930   51.8770    4.2950 O.co2 122  ASP122     -0.2456
     64  N        -37.8370   46.5070    4.2770 N.am  123  HIS123     -0.1975
     65  CA       -37.0240   45.3180    4.0410 C.3   123  HIS123      0.1656
     66  C        -37.8480   44.2190    3.4290 C.2   123  HIS123      0.2291
     67  O        -37.4070   43.5450    2.4940 O.2   123  HIS123     -0.2864
     68  CB       -36.4540   44.7550    5.3570 C.3   123  HIS123      0.0771
     69  CG       -35.3100   45.5370    5.9170 C.ar  123  HIS123      0.0820
     70  ND1      -35.2850   45.9880    7.2200 N.ar  123  HIS123     -0.2267
     71  CD2      -34.1340   45.9160    5.3670 C.ar  123  HIS123      0.1154
     72  CE1      -34.1560   46.6330    7.4390 C.ar  123  HIS123      0.1986
     73  NE2      -33.4320   46.5970    6.3320 N.ar  123  HIS123     -0.2212
     74  N        -38.6910   44.8230   -0.2000 N.3   126  PHE126     -0.1227
     75  CA       -37.5490   44.6830   -1.1110 C.3   126  PHE126      0.1736
     76  C        -37.1240   43.2030   -1.2490 C.2   126  PHE126      0.2595
     77  O        -36.8480   42.7310   -2.3560 O.2   126  PHE126     -0.2718
     78  CB       -36.3880   45.5590   -0.6450 C.3   126  PHE126      0.0547
     79  CG       -35.2080   45.5870   -1.5970 C.ar  126  PHE126     -0.0202
     80  CD1      -35.4000   45.7190   -2.9660 C.ar  126  PHE126     -0.0042
     81  CD2      -33.9080   45.4940   -1.1070 C.ar  126  PHE126     -0.0042
     82  CE1      -34.2950   45.7500   -3.8580 C.ar  126  PHE126     -0.0003
     83  CE2      -32.7890   45.5340   -1.9820 C.ar  126  PHE126     -0.0003
     84  CZ       -32.9970   45.6560   -3.3670 C.ar  126  PHE126     -0.0000
     85  N        -37.0940   42.4690   -0.1340 N.am  127  LEU127     -0.1980
     86  CA       -36.7180   41.0510   -0.1620 C.3   127  LEU127      0.1596
     87  C        -37.7220   40.2160   -0.9590 C.2   127  LEU127      0.2287
     88  O        -37.3430   39.4290   -1.8450 O.2   127  LEU127     -0.2864
     89  CB       -36.5610   40.4910    1.2720 C.3   127  LEU127      0.0297
     90  CG       -35.3990   41.1070    2.0670 C.3   127  LEU127      0.0022
     91  CD1      -35.4790   40.7310    3.5570 C.3   127  LEU127      0.0001
     92  CD2      -34.0260   40.7160    1.4890 C.3   127  LEU127      0.0001
     93  N        -28.6850   36.4870    1.1440 N.3   155  VAL155     -0.1231
     94  CA       -28.8810   37.9260    1.2690 C.3   155  VAL155      0.1692
     95  C        -27.5910   38.5950    1.7370 C.2   155  VAL155      0.2592
     96  O        -26.9520   38.0840    2.6510 O.2   155  VAL155     -0.2718
     97  CB       -29.9900   38.2260    2.2990 C.3   155  VAL155      0.0266
     98  CG1      -30.2040   39.7340    2.4320 C.3   155  VAL155      0.0020
     99  CG2      -31.3080   37.5180    1.8950 C.3   155  VAL155      0.0020
    100  N        -27.2260   39.7290    1.1370 N.am  156  ASN156     -0.1960
    101  CA       -26.0230   40.4640    1.5530 C.3   156  ASN156      0.1819
    102  C        -26.3560   41.7360    2.3380 C.2   156  ASN156      0.2621
    103  O        -27.5230   42.0220    2.5940 O.2   156  ASN156     -0.2715
    104  CB       -25.0900   40.7750    0.3530 C.3   156  ASN156      0.1195
    105  CG       -25.6770   41.7750   -0.6180 C.2   156  ASN156      0.2630
    106  OD1      -26.5630   42.5700   -0.2770 O.2   156  ASN156     -0.2716
    107  ND2      -25.1650   41.7570   -1.8540 N.am  156  ASN156     -0.0877
    108  N        -25.3360   42.5060    2.7140 N.am  157  GLU157     -0.1963
    109  CA       -25.5540   43.6860    3.5570 C.3   157  GLU157      0.1733
    110  C        -26.3160   44.8240    2.8680 C.2   157  GLU157      0.2616
    111  O        -26.8240   45.7320    3.5500 O.2   157  GLU157     -0.2715
    112  CB       -24.2240   44.2000    4.1240 C.3   157  GLU157      0.0429
    113  CG       -23.3120   44.8620    3.1150 C.3   157  GLU157      0.1163
    114  CD       -21.9500   45.2000    3.7120 C.2   157  GLU157      0.3649
    115  OE1      -21.6610   44.7410    4.8420 O.co2 157  GLU157     -0.2457
    116  OE2      -21.1720   45.9250    3.0560 O.co2 157  GLU157     -0.2457
    117  N        -26.4050   44.7930    1.5320 N.am  158  ASP158     -0.1957
    118  CA       -27.2660   45.7390    0.8050 C.3   158  ASP158      0.1840
    119  C        -28.6800   45.1860    0.5750 C.2   158  ASP158      0.2623
    120  O        -29.4590   45.7380   -0.2170 O.2   158  ASP158     -0.2715
    121  CB       -26.6470   46.1490   -0.5440 C.3   158  ASP158      0.1450
    122  CG       -25.2870   46.8330   -0.3820 C.2   158  ASP158      0.3671
    123  OD1      -25.1650   47.7420    0.4640 O.co2 158  ASP158     -0.2456
    124  OD2      -24.3330   46.4440   -1.0830 O.co2 158  ASP158     -0.2456
    125  N        -29.0160   44.1170    1.2950 N.am  159  SER159     -0.1936
    126  CA       -30.3300   43.4730    1.1810 C.3   159  SER159      0.2055
    127  C        -30.5790   42.8950   -0.2240 C.2   159  SER159      0.2642
    128  O        -31.7220   42.6310   -0.6050 O.2   159  SER159     -0.2714
    129  CB       -31.4720   44.4380    1.5400 C.3   159  SER159      0.2130
    130  OG       -31.3580   44.9030    2.8760 O.3   159  SER159     -0.2179
    131  N        -29.5180   42.6950   -0.9960 N.am  160  GLU160     -0.1976
    132  CA       -29.6710   42.0600   -2.3060 C.3   160  GLU160      0.1602
    133  C        -29.8480   40.5660   -2.1030 C.2   160  GLU160      0.2287
    134  O        -29.2020   39.9680   -1.2330 O.2   160  GLU160     -0.2864
    135  CB       -28.4450   42.3570   -3.1810 C.3   160  GLU160      0.0415
    136  CG       -28.3430   43.8490   -3.4750 C.3   160  GLU160      0.1163
    137  CD       -27.0940   44.2120   -4.2570 C.2   160  GLU160      0.3649
    138  OE1      -26.0930   43.4790   -4.1350 O.co2 160  GLU160     -0.2457
    139  OE2      -27.1260   45.2300   -4.9820 O.co2 160  GLU160     -0.2457
    140  N        -40.5320   49.6720   -5.8080 N.3   297  TYR297     -0.1241
    141  CA       -39.4520   48.8480   -6.3790 C.3   297  TYR297      0.1605
    142  C        -39.7360   48.3840   -7.8030 C.2   297  TYR297      0.2264
    143  O        -38.8030   48.1130   -8.5660 O.2   297  TYR297     -0.2867
    144  CB       -39.1740   47.6270   -5.4810 C.3   297  TYR297      0.0534
    145  CG       -38.5870   48.0280   -4.1440 C.ar  297  TYR297     -0.0201
    146  CD1      -37.3210   48.5850   -4.0700 C.ar  297  TYR297     -0.0009
    147  CD2      -39.3150   47.9010   -2.9690 C.ar  297  TYR297     -0.0009
    148  CE1      -36.7830   48.9780   -2.8740 C.ar  297  TYR297      0.0417
    149  CE2      -38.7830   48.2980   -1.7600 C.ar  297  TYR297      0.0417
    150  CZ       -37.5110   48.8370   -1.7180 C.ar  297  TYR297      0.1957
    151  OH       -36.9520   49.2480   -0.5240 O.3   297  TYR297     -0.2866
@<TRIPOS>BOND
     1   143   142    2
     2   142   141    1
     3   141   140    1
     4   141   144    1
     5   144   145    1
     6   139   137   ar
     7   137   138   ar
     8   137   136    1
     9   145   146   ar
    10   145   147   ar
    11   146   148   ar
    12    82    84   ar
    13    82    80   ar
    14   136   135    1
    15    84    83   ar
    16   135   132    1
    17   147   149   ar
    18    80    79   ar
    19   148   150   ar
    20    77    76    2
    21   132   133    1
    22   132   131    1
    23   133   134    2
    24    83    81   ar
    25   107   105   am
    26    88    87    2
    27   149   150   ar
    28   150   151    1
    29    79    81   ar
    30    79    78    1
    31    76    75    1
    32    76    85   am
    33    75    78    1
    34    75    74    1
    35   124   122   ar
    36   131   127   am
    37    87    86    1
    38   105   106    2
    39   105   104    1
    40   128   127    2
    41   121   122    1
    42   121   118    1
    43   122   123   ar
    44   127   126    1
    45   120   119    2
    46    86    85    1
    47    86    89    1
    48   104   101    1
    49   119   118    1
    50   119   125   am
    51   118   117    1
    52   100   101    1
    53   100    95   am
    54    93    94    1
    55   126   125    1
    56   126   129    1
    57    94    95    1
    58    94    97    1
    59    89    90    1
    60     1     2    1
    61    92    90    1
    62   117   110   am
    63   129   130    1
    64   101   102    1
    65    95    96    2
    66    99    97    1
    67    90    91    1
    68    59    58    2
    69    97    98    1
    70   102   103    2
    71   102   108   am
    72    67    66    2
    73     2     3    1
    74   108   109    1
    75   110   111    2
    76   110   109    1
    77   116   114   ar
    78   113   114    1
    79   113   112    1
    80    62    61   ar
    81    58    57    1
    82    58    64   am
    83     8     7    2
    84    66    65    1
    85     3     5   am
    86     3     4    2
    87   109   112    1
    88    57    60    1
    89    57    56    1
    90   114   115   ar
    91    61    60    1
    92    61    63   ar
    93     5     6    1
    94    65    64    1
    95    65    68    1
    96     7     6    1
    97     6     9    1
    98    68    69    1
    99    71    69   ar
   100    71    73   ar
   101    69    70   ar
   102    23    25    1
   103    23    22    1
   104    73    72   ar
   105    52    51    2
   106    54    53    1
   107    70    72   ar
   108    22    24    1
   109    22    19    1
   110    47    46    1
   111    51    50    1
   112    48    46    1
   113    16    15    2
   114    53    50    1
   115    53    55    1
   116    46    45    1
   117    45    42    1
   118    50    49    1
   119    19    18    1
   120    19    20    1
   121    18    12   am
   122    49    43   am
   123    10    11    1
   124    14    15    1
   125    14    11    1
   126    15    17   am
   127    42    43    1
   128    42    41    1
   129    43    44    2
   130    11    12    1
   131    12    13    2
   132    20    21    2
   133    39    38    2
   134    40    38   am
   135    38    37    1
   136    37    36    1
   137    36    33    1
   138    35    34    2
   139    30    31    1
   140    30    27    1
   141    34    33    1
   142    26    27    1
   143    33    32    1
   144    32    28   am
   145    27    28    1
   146    28    29    2
