@<TRIPOS>MOLECULE
tmp/2y91A02.pdb
 122 118 0 0 0
SMALL
GASTEIGER

@<TRIPOS>ATOM
      1  N         37.0140    5.9300   21.3290 N.3    14  LYS14      -0.1245
      2  CA        36.2990    6.8630   22.1820 C.3    14  LYS14       0.1561
      3  C         35.0840    6.1590   22.8010 C.2    14  LYS14       0.2260
      4  O         34.3430    5.4730   22.1000 O.2    14  LYS14      -0.2867
      5  CB        35.8880    8.0940   21.3640 C.3    14  LYS14       0.0271
      6  CG        34.9490    9.0630   22.0840 C.3    14  LYS14       0.0035
      7  CD        35.0170   10.4920   21.5120 C.3    14  LYS14       0.0206
      8  CE        34.7720   10.5520   20.0150 C.3    14  LYS14       0.1093
      9  NZ        33.3290   10.6460   19.6690 N.3    14  LYS14      -0.1314
     10  N         28.3550   12.9160   20.8690 N.3    35  ARG35      -0.1231
     11  CA        27.5810   12.2540   19.8280 C.3    35  ARG35       0.1694
     12  C         28.3100   11.0690   19.2110 C.2    35  ARG35       0.2592
     13  O         29.5170   11.1240   18.9840 O.2    35  ARG35      -0.2718
     14  CB        27.1760   13.2500   18.7400 C.3    35  ARG35       0.0321
     15  CG        26.0340   14.1870   19.1550 C.3    35  ARG35       0.0489
     16  CD        25.5670   15.0430   17.9640 C.3    35  ARG35       0.2205
     17  NE        24.4720   15.9210   18.3700 N.pl3  35  ARG35      -0.0865
     18  CZ        23.1880   15.5710   18.4050 C.cat  35  ARG35       0.5346
     19  NH1       22.7950   14.3510   18.0300 N.pl3  35  ARG35       0.1354
     20  NH2       22.2890   16.4590   18.7860 N.pl3  35  ARG35       0.1354
     21  N         27.5600    9.9950   18.9770 N.am   36  PHE36      -0.1962
     22  CA        28.0270    8.8050   18.2800 C.3    36  PHE36       0.1771
     23  C         26.9300    8.4060   17.3070 C.2    36  PHE36       0.2619
     24  O         25.7490    8.6230   17.5900 O.2    36  PHE36      -0.2715
     25  CB        28.2200    7.6170   19.2630 C.3    36  PHE36       0.0574
     26  CG        29.3420    7.8150   20.2730 C.ar   36  PHE36      -0.0200
     27  CD1       29.1490    8.5880   21.4260 C.ar   36  PHE36      -0.0042
     28  CD2       30.5860    7.2020   20.0810 C.ar   36  PHE36      -0.0042
     29  CE1       30.1880    8.7770   22.3660 C.ar   36  PHE36      -0.0003
     30  CE2       31.6280    7.3790   21.0120 C.ar   36  PHE36      -0.0003
     31  CZ        31.4290    8.1720   22.1550 C.ar   36  PHE36      -0.0000
     32  N         27.3050    7.7860   16.1850 N.am   37  ALA37      -0.1977
     33  CA        26.3190    7.1390   15.3360 C.3    37  ALA37       0.1597
     34  C         25.5430    6.1540   16.2000 C.2    37  ALA37       0.2287
     35  O         26.1590    5.3120   16.8710 O.2    37  ALA37      -0.2864
     36  CB        27.0170    6.4120   14.2160 C.3    37  ALA37       0.0319
     37  N         28.1010    7.3250    9.6020 N.3   139  VAL139     -0.1231
     38  CA        28.1840    8.7180   10.0430 C.3   139  VAL139      0.1692
     39  C         29.6540    9.1840   10.0510 C.2   139  VAL139      0.2592
     40  O         30.5240    8.5260   10.6210 O.2   139  VAL139     -0.2718
     41  CB        27.5360    8.9040   11.4210 C.3   139  VAL139      0.0266
     42  CG1       27.6240   10.3700   11.8740 C.3   139  VAL139      0.0020
     43  CG2       26.0690    8.4430   11.3910 C.3   139  VAL139      0.0020
     44  N         29.9100   10.3120    9.4000 N.am  140  ASN140     -0.1961
     45  CA        31.2520   10.8760    9.3000 C.3   140  ASN140      0.1804
     46  C         31.5440   11.8230   10.4590 C.2   140  ASN140      0.2463
     47  O         30.6050   12.3300   11.0860 O.2   140  ASN140     -0.2730
     48  CB        31.4130   11.5690    7.9490 C.3   140  ASN140      0.1195
     49  CG        31.4260   10.5850    6.8070 C.2   140  ASN140      0.2630
     50  OD1       31.9900    9.5000    6.9260 O.2   140  ASN140     -0.2716
     51  ND2       30.8010   10.9510    5.6910 N.am  140  ASN140     -0.0877
     52  N         32.8450   12.0530   10.7650 N.am  141  PRO141     -0.2716
     53  CA        33.1570   12.8670   11.9490 C.3   141  PRO141      0.1536
     54  C         32.6050   14.2870   11.8370 C.2   141  PRO141      0.2599
     55  O         32.6240   14.8800   10.7540 O.2   141  PRO141     -0.2715
     56  CB        34.6940   12.8460   12.0220 C.3   141  PRO141      0.0310
     57  CG        35.1630   12.3550   10.6940 C.3   141  PRO141      0.0237
     58  CD        34.0570   11.5410   10.0950 C.3   141  PRO141      0.0939
     59  N         32.0780   14.8020   12.9440 N.am  142  GLY142     -0.1941
     60  CA        31.4710   16.1320   12.9600 C.3   142  GLY142      0.2014
     61  C         29.9740   16.1440   12.6640 C.2   142  GLY142      0.2638
     62  O         29.2740   17.0720   13.0760 O.2   142  GLY142     -0.2714
     63  N         29.4880   15.1140   11.9640 N.am  143  GLU143     -0.1977
     64  CA        28.0740   14.9860   11.5650 C.3   143  GLU143      0.1602
     65  C         27.1440   14.6630   12.7280 C.2   143  GLU143      0.2287
     66  O         27.5400   13.9650   13.6630 O.2   143  GLU143     -0.2864
     67  CB        27.9080   13.9130   10.4760 C.3   143  GLU143      0.0415
     68  CG        28.3750   14.3490    9.1030 C.3   143  GLU143      0.1163
     69  CD        27.8790   13.4330    8.0020 C.2   143  GLU143      0.3649
     70  OE1       27.9600   12.1920    8.1470 O.co2 143  GLU143     -0.2457
     71  OE2       27.4020   13.9590    6.9760 O.co2 143  GLU143     -0.2457
     72  N         22.7590   10.4280   14.7230 N.3   147  THR147     -0.1218
     73  CA        23.5240   10.3100   15.9710 C.3   147  THR147      0.1862
     74  C         22.6380   10.5280   17.1820 C.2   147  THR147      0.2287
     75  O         21.5170   11.0460   17.0700 O.2   147  THR147     -0.2866
     76  CB        24.6800   11.3580   16.0570 C.3   147  THR147      0.1770
     77  OG1       24.1280   12.6850   16.0690 O.3   147  THR147     -0.2211
     78  CG2       25.6180   11.2230   14.8600 C.3   147  THR147      0.0375
     79  N         33.4290    3.7530   11.2280 N.3   207  TYR207     -0.1241
     80  CA        34.4370    4.1970   12.1960 C.3   207  TYR207      0.1605
     81  C         34.4950    3.2710   13.4090 C.2   207  TYR207      0.2264
     82  O         34.7270    3.7210   14.5260 O.2   207  TYR207     -0.2867
     83  CB        34.2300    5.6760   12.6140 C.3   207  TYR207      0.0534
     84  CG        34.6360    6.6240   11.5150 C.ar  207  TYR207     -0.0201
     85  CD1       33.7410    6.9760   10.5100 C.ar  207  TYR207     -0.0009
     86  CD2       35.9350    7.1250   11.4510 C.ar  207  TYR207     -0.0009
     87  CE1       34.1160    7.8300    9.4770 C.ar  207  TYR207      0.0417
     88  CE2       36.3260    7.9780   10.4100 C.ar  207  TYR207      0.0417
     89  CZ        35.4100    8.3200    9.4310 C.ar  207  TYR207      0.1957
     90  OH        35.7910    9.1570    8.4000 O.3   207  TYR207     -0.2866
     91  N         32.2450    1.8410   15.0880 N.3   209  THR209     -0.1218
     92  CA        31.2420    2.1700   16.0960 C.3   209  THR209      0.1862
     93  C         30.6290    0.8860   16.6600 C.2   209  THR209      0.2287
     94  O         30.2010    0.0130   15.9020 O.2   209  THR209     -0.2866
     95  CB        30.1580    3.1190   15.5360 C.3   209  THR209      0.1770
     96  OG1       30.7370    4.4050   15.2850 O.3   209  THR209     -0.2211
     97  CG2       28.9790    3.2720   16.5140 C.3   209  THR209      0.0375
     98  N         33.3370    4.5790   19.2990 N.3   231  SER231     -0.1202
     99  CA        33.7430    4.8040   17.9240 C.3   231  SER231      0.2020
    100  C         35.2550    4.9530   17.8820 C.2   231  SER231      0.2619
    101  O         35.9110    5.1000   18.9200 O.2   231  SER231     -0.2717
    102  CB        33.0630    6.0460   17.3410 C.3   231  SER231      0.2103
    103  OG        33.4360    7.2080   18.0530 O.3   231  SER231     -0.2182
    104  N         35.8040    4.9140   16.6760 N.am  232  ARG232     -0.1965
    105  CA        37.2460    4.8770   16.4990 C.3   232  ARG232      0.1729
    106  C         37.6170    5.8980   15.4210 C.2   232  ARG232      0.2616
    107  O         36.7310    6.5320   14.8310 O.2   232  ARG232     -0.2715
    108  CB        37.6970    3.4420   16.1540 C.3   232  ARG232      0.0348
    109  CG        37.1650    2.3880   17.1670 C.3   232  ARG232      0.0492
    110  CD        37.8540    1.0240   17.0230 C.3   232  ARG232      0.2205
    111  NE        39.2850    1.1550   17.2980 N.pl3 232  ARG232     -0.0865
    112  CZ        40.2330    0.3660   16.8110 C.cat 232  ARG232      0.5346
    113  NH1       39.9220   -0.6510   16.0020 N.pl3 232  ARG232      0.1354
    114  NH2       41.5030    0.6150   17.1310 N.pl3 232  ARG232      0.1354
    115  N         38.9100    6.0740   15.1680 N.am  233  ASP233     -0.1971
    116  CA        39.3370    7.2030   14.3450 C.3   233  ASP233      0.1709
    117  C         39.3930    6.9390   12.8330 C.2   233  ASP233      0.2293
    118  O         39.4620    7.8800   12.0520 O.2   233  ASP233     -0.2864
    119  CB        40.6280    7.8420   14.8920 C.3   233  ASP233      0.1436
    120  CG        41.7000    6.8230   15.2240 C.2   233  ASP233      0.3671
    121  OD1       41.7610    5.7690   14.5400 O.co2 233  ASP233     -0.2456
    122  OD2       42.4990    7.0820   16.1630 O.co2 233  ASP233     -0.2456
@<TRIPOS>BOND
     1    51    49   am
     2    49    50    2
     3    49    48    1
     4    71    69   ar
     5    48    45    1
     6    69    70   ar
     7    69    68    1
     8    90    89    1
     9    68    67    1
    10    45    44    1
    11    45    46    1
    12    44    39   am
    13    89    87   ar
    14    89    88   ar
    15    87    85   ar
    16    37    38    1
    17    38    39    1
    18    38    41    1
    19    39    40    2
    20    58    57    1
    21    58    52    1
    22    88    86   ar
    23    46    52   am
    24    46    47    2
    25    67    64    1
    26    85    84   ar
    27    57    56    1
    28    55    54    2
    29    52    53    1
    30    79    80    1
    31    43    41    1
    32    41    42    1
    33    86    84   ar
    34    84    83    1
    35    64    63    1
    36    64    65    1
    37    54    53    1
    38    54    59   am
    39    53    56    1
    40    63    61   am
    41   118   117    2
    42    80    83    1
    43    80    81    1
    44    61    60    1
    45    61    62    2
    46    65    66    2
    47   117   116    1
    48    59    60    1
    49    81    82    2
    50    36    33    1
    51   116   119    1
    52   116   115    1
    53   121   120   ar
    54    72    73    1
    55   107   106    2
    56    78    76    1
    57   119   120    1
    58    91    92    1
    59   115   106   am
    60   120   122   ar
    61    96    95    1
    62    33    32    1
    63    33    34    1
    64   106   105    1
    65    95    92    1
    66    95    97    1
    67    94    93    2
    68    73    76    1
    69    73    74    1
    70   113   112    1
    71    76    77    1
    72    92    93    1
    73   108   105    1
    74   108   109    1
    75    32    23   am
    76    34    35    2
    77   105   104    1
    78   104   100   am
    79   112   114    1
    80   112   111    2
    81   110   109    1
    82   110   111    1
    83    75    74    2
    84    23    24    2
    85    23    22    1
    86   102    99    1
    87   102   103    1
    88   100    99    1
    89   100   101    2
    90    99    98    1
    91    16    17    1
    92    16    15    1
    93    19    18    1
    94    22    21    1
    95    22    25    1
    96    17    18    2
    97    18    20    1
    98    14    15    1
    99    14    11    1
   100    21    12   am
   101    13    12    2
   102    12    11    1
   103    25    26    1
   104     9     8    1
   105    11    10    1
   106     8     7    1
   107    28    26   ar
   108    28    30   ar
   109    26    27   ar
   110    30    31   ar
   111     1     2    1
   112     5     6    1
   113     5     2    1
   114    27    29   ar
   115     7     6    1
   116     4     3    2
   117    31    29   ar
   118     2     3    1
