@<TRIPOS>MOLECULE
tmp/2y91A00.pdb
 82 77 0 0 0
SMALL
GASTEIGER

@<TRIPOS>ATOM
      1  N         16.7720    0.8070   16.6510 N.3    42  LYS42      -0.1245
      2  CA        15.7390   -0.2200   16.5610 C.3    42  LYS42       0.1561
      3  C         14.8910   -0.3590   17.8350 C.2    42  LYS42       0.2260
      4  O         13.6730   -0.5460   17.7450 O.2    42  LYS42      -0.2867
      5  CB        16.3560   -1.5650   16.1540 C.3    42  LYS42       0.0271
      6  CG        16.9370   -1.4920   14.7190 C.3    42  LYS42       0.0035
      7  CD        17.6850   -2.7390   14.2910 C.3    42  LYS42       0.0206
      8  CE        18.0760   -2.5980   12.8120 C.3    42  LYS42       0.1093
      9  NZ        19.2640   -3.3700   12.4570 N.3    42  LYS42      -0.1314
     10  N         21.5250   -6.8540    5.3370 N.3    72  TYR72      -0.1241
     11  CA        21.5200   -7.7980    6.4640 C.3    72  TYR72       0.1605
     12  C         20.1030   -8.1660    6.8890 C.2    72  TYR72       0.2264
     13  O         19.4920   -7.4940    7.7330 O.2    72  TYR72      -0.2867
     14  CB        22.2670   -7.2050    7.6630 C.3    72  TYR72       0.0534
     15  CG        22.5370   -8.1830    8.7970 C.ar   72  TYR72      -0.0201
     16  CD1       23.4010   -9.2680    8.6210 C.ar   72  TYR72      -0.0009
     17  CD2       21.9410   -8.0090   10.0590 C.ar   72  TYR72      -0.0009
     18  CE1       23.6550  -10.1550    9.6580 C.ar   72  TYR72       0.0417
     19  CE2       22.1940   -8.8920   11.1090 C.ar   72  TYR72       0.0417
     20  CZ        23.0520   -9.9620   10.8960 C.ar   72  TYR72       0.1957
     21  OH        23.3150  -10.8390   11.9170 O.3    72  TYR72      -0.2866
     22  N         18.4880   -8.0050   14.9530 N.3    97  SER97      -0.1217
     23  CA        18.9720   -6.7660   14.3210 C.3    97  SER97       0.1889
     24  C         18.7720   -6.7970   12.7930 C.2    97  SER97       0.2288
     25  O         19.6060   -6.2770   12.0190 O.2    97  SER97      -0.2866
     26  CB        20.4360   -6.4610   14.6740 C.3    97  SER97       0.2089
     27  OG        20.6590   -5.0450   14.6420 O.3    97  SER97      -0.2183
     28  N         22.0880  -10.9200   19.9990 N.3   183  THR183     -0.1218
     29  CA        23.3090  -10.2800   19.4570 C.3   183  THR183      0.1862
     30  C         24.2780   -9.6530   20.4950 C.2   183  THR183      0.2287
     31  O         25.3610   -9.1830   20.1360 O.2   183  THR183     -0.2866
     32  CB        22.9680   -9.1640   18.4220 C.3   183  THR183      0.1770
     33  OG1       22.3750   -8.0500   19.1010 O.3   183  THR183     -0.2211
     34  CG2       22.0470   -9.6560   17.3240 C.3   183  THR183      0.0375
     35  N         19.8730   -3.8230   23.3400 N.3   201  LYS201     -0.1231
     36  CA        19.9410   -3.7530   21.8750 C.3   201  LYS201      0.1693
     37  C         21.3120   -3.1940   21.4790 C.2   201  LYS201      0.2593
     38  O         21.7520   -2.1590   21.9910 O.2   201  LYS201     -0.2718
     39  CB        18.8240   -2.8570   21.2860 C.3   201  LYS201      0.0285
     40  CG        18.8490   -2.7340   19.7500 C.3   201  LYS201      0.0035
     41  CD        18.4800   -4.0670   19.0500 C.3   201  LYS201      0.0206
     42  CE        18.8750   -4.0680   17.5600 C.3   201  LYS201      0.1093
     43  NZ        20.3390   -4.3370   17.4190 N.3   201  LYS201     -0.1314
     44  N         21.9430   -3.8750   20.5330 N.am  202  THR202     -0.1939
     45  CA        23.2920   -3.5910   20.0840 C.3   202  THR202      0.2028
     46  C         23.2650   -2.7430   18.8220 C.2   202  THR202      0.2643
     47  O         22.2100   -2.5500   18.2060 O.2   202  THR202     -0.2714
     48  CB        24.0520   -4.9080   19.7550 C.3   202  THR202      0.1808
     49  OG1       23.3700   -5.6100   18.7050 O.3   202  THR202     -0.2208
     50  CG2       24.1340   -5.7980   20.9850 C.3   202  THR202      0.0379
     51  N         24.4290   -2.2150   18.4580 N.am  203  GLY203     -0.1939
     52  CA        24.5840   -1.4890   17.2020 C.3   203  GLY203      0.2014
     53  C         26.0290   -1.5490   16.7580 C.2   203  GLY203      0.2638
     54  O         26.9300   -1.6630   17.5810 O.2   203  GLY203     -0.2714
     55  N         26.2290   -1.5220   15.4460 N.am  204  ALA204     -0.1977
     56  CA        27.5440   -1.4870   14.8520 C.3   204  ALA204      0.1597
     57  C         27.4660   -0.5420   13.6590 C.2   204  ALA204      0.2287
     58  O         26.5240   -0.6080   12.8820 O.2   204  ALA204     -0.2864
     59  CB        27.9810   -2.8970   14.4150 C.3   204  ALA204      0.0319
     60  N         30.6010    0.7650   17.9900 N.3   210  ARG210     -0.1245
     61  CA        30.0530   -0.4250   18.6030 C.3   210  ARG210      0.1563
     62  C         29.3400   -0.0310   19.8770 C.2   210  ARG210      0.2260
     63  O         29.9680    0.4680   20.8170 O.2   210  ARG210     -0.2867
     64  CB        31.1460   -1.4810   18.8230 C.3   210  ARG210      0.0307
     65  CG        30.6590   -2.8560   19.3320 C.3   210  ARG210      0.0489
     66  CD        29.6050   -3.4520   18.4090 C.3   210  ARG210      0.2205
     67  NE        29.4940   -4.9010   18.5520 N.pl3 210  ARG210     -0.0865
     68  CZ        28.4520   -5.6280   18.1570 C.cat 210  ARG210      0.5346
     69  NH1       27.3710   -5.0440   17.6320 N.pl3 210  ARG210      0.1354
     70  NH2       28.4870   -6.9490   18.3070 N.pl3 210  ARG210      0.1354
     71  N         35.7970   -3.1520   15.3480 N.3   239  TYR239     -0.1241
     72  CA        35.5560   -2.9510   16.7780 C.3   239  TYR239      0.1605
     73  C         35.9410   -4.2010   17.5790 C.2   239  TYR239      0.2264
     74  O         36.1350   -5.2690   17.0170 O.2   239  TYR239     -0.2867
     75  CB        34.0920   -2.5840   17.0290 C.3   239  TYR239      0.0534
     76  CG        33.1100   -3.5990   16.4930 C.ar  239  TYR239     -0.0201
     77  CD1       32.8880   -4.8090   17.1560 C.ar  239  TYR239     -0.0009
     78  CD2       32.4010   -3.3480   15.3200 C.ar  239  TYR239     -0.0009
     79  CE1       31.9860   -5.7560   16.6570 C.ar  239  TYR239      0.0417
     80  CE2       31.4980   -4.2790   14.8090 C.ar  239  TYR239      0.0417
     81  CZ        31.2960   -5.4710   15.4830 C.ar  239  TYR239      0.1957
     82  OH        30.3990   -6.3700   14.9820 O.3   239  TYR239     -0.2866
@<TRIPOS>BOND
     1    10    11    1
     2    11    12    1
     3    11    14    1
     4    12    13    2
     5    14    15    1
     6    16    15   ar
     7    16    18   ar
     8    15    17   ar
     9    18    20   ar
    10    17    19   ar
    11    20    19   ar
    12    20    21    1
    13    25    24    2
    14     9     8    1
    15    24    23    1
    16     8     7    1
    17    58    57    2
    18    57    56    1
    19     7     6    1
    20    23    26    1
    21    23    22    1
    22    59    56    1
    23    27    26    1
    24     6     5    1
    25    80    78   ar
    26    80    81   ar
    27    56    55    1
    28    82    81    1
    29    78    76   ar
    30    71    72    1
    31    55    53   am
    32    81    79   ar
    33     5     2    1
    34    76    75    1
    35    76    77   ar
    36     2     1    1
    37     2     3    1
    38    79    77   ar
    39    53    52    1
    40    53    54    2
    41    72    75    1
    42    72    73    1
    43    74    73    2
    44    52    51    1
    45    34    32    1
    46    43    42    1
    47    42    41    1
    48    69    68    1
    49     4     3    2
    50    60    61    1
    51    68    70    1
    52    68    67    2
    53    47    46    2
    54    66    67    1
    55    66    65    1
    56    32    33    1
    57    32    29    1
    58    51    46   am
    59    61    64    1
    60    61    62    1
    61    49    48    1
    62    46    45    1
    63    64    65    1
    64    41    40    1
    65    29    28    1
    66    29    30    1
    67    40    39    1
    68    48    45    1
    69    48    50    1
    70    62    63    2
    71    45    44    1
    72    31    30    2
    73    44    37   am
    74    39    36    1
    75    37    36    1
    76    37    38    2
    77    36    35    1
