@<TRIPOS>MOLECULE
tmp/2y92A00.pdb
 104 100 0 0 0
SMALL
GASTEIGER

@<TRIPOS>ATOM
      1  N        -13.6640   28.0730   -7.5470 N.3    13  CYS13      -0.1221
      2  CA       -14.1140   26.6870   -7.4080 C.3    13  CYS13       0.1808
      3  C        -12.9140   25.7470   -7.4980 C.2    13  CYS13       0.2601
      4  O        -12.1990   25.7450   -8.5020 O.2    13  CYS13      -0.2717
      5  CB       -15.1890   26.3440   -8.4370 C.3    13  CYS13       0.0970
      6  SG       -15.9230   24.6980   -8.2240 S.3    13  CYS13      -0.0800
      7  N        -12.6820   24.9740   -6.4260 N.am   14  HIS14      -0.1961
      8  CA       -11.5420   24.0650   -6.3050 C.3    14  HIS14       0.1787
      9  C        -11.8830   22.7880   -5.5270 C.2    14  HIS14       0.2620
     10  O        -12.8360   22.7750   -4.7440 O.2    14  HIS14      -0.2715
     11  CB       -10.3900   24.8010   -5.5920 C.3    14  HIS14       0.0785
     12  CG       -10.6730   25.0890   -4.1470 C.ar   14  HIS14       0.0821
     13  ND1      -11.5890   26.0540   -3.7680 N.ar   14  HIS14      -0.2267
     14  CD2      -10.1610   24.5130   -3.0360 C.ar   14  HIS14       0.1154
     15  CE1      -11.6090   26.0290   -2.4460 C.ar   14  HIS14       0.1986
     16  NE2      -10.7620   25.1220   -1.9610 N.ar   14  HIS14      -0.2212
     17  N        -11.0680   21.7330   -5.7160 N.am   15  SER15      -0.1950
     18  CA       -11.1980   20.4670   -4.9930 C.3    15  SER15       0.1924
     19  C        -10.4760   20.6030   -3.6430 C.2    15  SER15       0.2314
     20  O         -9.6370   21.4940   -3.4930 O.2    15  SER15      -0.2863
     21  CB       -10.6070   19.3180   -5.8050 C.3    15  SER15       0.2116
     22  OG        -9.2290   19.5100   -6.0760 O.3    15  SER15      -0.2180
     23  N        -15.3460   29.6460   -3.4280 N.3    44  CYS44      -0.1221
     24  CA       -16.6580   29.0990   -3.8100 C.3    44  CYS44       0.1808
     25  C        -17.3430   28.2580   -2.7390 C.2    44  CYS44       0.2601
     26  O        -16.7690   27.2860   -2.2430 O.2    44  CYS44      -0.2717
     27  CB       -16.6000   28.3650   -5.1480 C.3    44  CYS44       0.0970
     28  SG       -16.7690   29.4290   -6.6110 S.3    44  CYS44      -0.0800
     29  N        -18.5790   28.6490   -2.3950 N.am   45  GLN45      -0.1979
     30  CA       -19.4230   27.9900   -1.3980 C.3    45  GLN45       0.1601
     31  C        -20.7940   27.6650   -2.0000 C.2    45  GLN45       0.2287
     32  O        -21.1060   28.1280   -3.1020 O.2    45  GLN45      -0.2864
     33  CB       -19.5820   28.8880   -0.1560 C.3    45  GLN45       0.0394
     34  CG       -18.3280   28.9900    0.7050 C.3    45  GLN45       0.0908
     35  CD       -18.5430   29.9030    1.8830 C.2    45  GLN45       0.2608
     36  OE1      -18.4890   31.1320    1.7670 O.2    45  GLN45      -0.2717
     37  NE2      -18.7940   29.3210    3.0460 N.am   45  GLN45      -0.0878
     38  N        -16.7600   33.2080  -12.1260 N.3    53  ARG53      -0.1245
     39  CA       -16.4510   31.9540  -11.4470 C.3    53  ARG53       0.1563
     40  C        -15.1780   31.3700  -12.0520 C.2    53  ARG53       0.2260
     41  O        -15.1290   31.1070  -13.2550 O.2    53  ARG53      -0.2867
     42  CB       -17.6300   30.9700  -11.5530 C.3    53  ARG53       0.0307
     43  CG       -17.6500   29.9100  -10.4610 C.3    53  ARG53       0.0489
     44  CD       -18.9190   29.0840  -10.5170 C.3    53  ARG53       0.2205
     45  NE       -19.0490   28.1960   -9.3600 N.pl3  53  ARG53      -0.0865
     46  CZ       -19.7600   28.4750   -8.2710 C.cat  53  ARG53       0.5346
     47  NH1      -20.4120   29.6270   -8.1720 N.pl3  53  ARG53       0.1354
     48  NH2      -19.8180   27.6070   -7.2700 N.pl3  53  ARG53       0.1354
     49  N        -12.6120   28.3220  -12.2440 N.3    55  LEU55      -0.1245
     50  CA       -12.4870   26.8870  -12.0210 C.3    55  LEU55       0.1561
     51  C        -11.0070   26.5190  -11.9990 C.2    55  LEU55       0.2260
     52  O        -10.3330   26.5880  -13.0300 O.2    55  LEU55      -0.2867
     53  CB       -13.2450   26.0870  -13.1000 C.3    55  LEU55       0.0270
     54  CG       -14.7540   26.3190  -13.1980 C.3    55  LEU55       0.0019
     55  CD1      -15.2390   26.0810  -14.6020 C.3    55  LEU55       0.0001
     56  CD2      -15.5210   25.4430  -12.2160 C.3    55  LEU55       0.0001
     57  N         -8.7910   17.9120   -9.3750 N.3    61  PHE61      -0.1241
     58  CA       -10.1000   18.4340   -9.7890 C.3    61  PHE61       0.1605
     59  C        -10.7560   17.4670  -10.7820 C.2    61  PHE61       0.2264
     60  O        -11.9440   17.1720  -10.6520 O.2    61  PHE61      -0.2867
     61  CB        -9.9380   19.8360  -10.4180 C.3    61  PHE61       0.0534
     62  CG       -11.2070   20.5750  -10.7860 C.ar   61  PHE61      -0.0203
     63  CD1      -11.8080   20.3870  -12.0260 C.ar   61  PHE61      -0.0042
     64  CD2      -11.7620   21.5100   -9.9210 C.ar   61  PHE61      -0.0042
     65  CE1      -12.9710   21.0820  -12.3720 C.ar   61  PHE61      -0.0003
     66  CE2      -12.9220   22.2110  -10.2710 C.ar   61  PHE61      -0.0003
     67  CZ       -13.5180   21.9930  -11.4940 C.ar   61  PHE61      -0.0000
     68  N        -12.0010   14.0060   -9.2090 N.3    64  ASP64      -0.1239
     69  CA       -13.2690   14.0920   -8.4860 C.3    64  ASP64       0.1674
     70  C        -14.4380   14.2740   -9.4700 C.2    64  ASP64       0.2266
     71  O        -14.4490   15.2600  -10.2130 O.2    64  ASP64      -0.2867
     72  CB       -13.2320   15.2270   -7.4390 C.3    64  ASP64       0.1410
     73  CG       -14.4700   15.3440   -6.5600 C.2    64  ASP64       0.3668
     74  OD1      -14.9950   14.2950   -6.1250 O.co2  64  ASP64      -0.2456
     75  OD2      -14.8940   16.4850   -6.2830 O.co2  64  ASP64      -0.2456
     76  N        -17.5260   15.1210   -8.8530 N.3    66  TRP66      -0.1227
     77  CA       -18.3580   16.2460   -8.4190 C.3    66  TRP66       0.1737
     78  C        -17.8500   17.5760   -8.9780 C.2    66  TRP66       0.2595
     79  O        -18.6640   18.4180   -9.3610 O.2    66  TRP66      -0.2718
     80  CB       -18.4900   16.2920   -6.8870 C.3    66  TRP66       0.0564
     81  CG       -19.3650   17.4030   -6.3800 C.ar   66  TRP66       0.0003
     82  CD1      -18.9640   18.5150   -5.7010 C.ar   66  TRP66       0.0946
     83  CD2      -20.7840   17.5300   -6.5580 C.ar   66  TRP66       0.0152
     84  NE1      -20.0470   19.3170   -5.4220 N.ar   66  TRP66      -0.2442
     85  CE2      -21.1770   18.7380   -5.9410 C.ar   66  TRP66       0.0810
     86  CE3      -21.7660   16.7350   -7.1740 C.ar   66  TRP66       0.0012
     87  CZ2      -22.5080   19.1710   -5.9200 C.ar   66  TRP66       0.0191
     88  CZ3      -23.0850   17.1610   -7.1480 C.ar   66  TRP66       0.0001
     89  CH2      -23.4450   18.3680   -6.5320 C.ar   66  TRP66       0.0015
     90  N        -16.5120   17.7520   -9.0410 N.am   67  CYS67      -0.1970
     91  CA       -15.8620   18.9500   -9.5820 C.3    67  CYS67       0.1712
     92  C        -16.1590   19.1080  -11.0720 C.2    67  CYS67       0.2296
     93  O        -16.3650   20.2300  -11.5370 O.2    67  CYS67      -0.2864
     94  CB       -14.3620   18.9300   -9.3090 C.3    67  CYS67       0.0983
     95  SG       -13.9100   19.3620   -7.6100 S.3    67  CYS67      -0.0798
     96  N        -19.7730   20.3130  -11.3050 N.3    70  GLN70      -0.1245
     97  CA       -19.7910   21.7320  -10.9310 C.3    70  GLN70       0.1566
     98  C        -19.2520   22.6220  -12.0570 C.2    70  GLN70       0.2260
     99  O        -19.6890   23.7660  -12.1850 O.2    70  GLN70      -0.2867
    100  CB       -19.0260   21.9780   -9.6160 C.3    70  GLN70       0.0367
    101  CG       -19.7190   21.4360   -8.3630 C.3    70  GLN70       0.0905
    102  CD       -20.9710   22.1950   -8.0010 C.2    70  GLN70       0.2608
    103  OE1      -20.9220   23.3040   -7.4610 O.2    70  GLN70      -0.2717
    104  NE2      -22.1230   21.6050   -8.2800 N.am   70  GLN70      -0.0878
@<TRIPOS>BOND
     1    55    54    1
     2    41    40    2
     3    54    53    1
     4    54    56    1
     5    53    50    1
     6    52    51    2
     7    65    63   ar
     8    65    67   ar
     9    49    50    1
    10    99    98    2
    11    38    39    1
    12    98    97    1
    13    40    39    1
    14    63    62   ar
    15    50    51    1
    16    42    39    1
    17    42    43    1
    18    93    92    2
    19    67    66   ar
    20    96    97    1
    21    92    91    1
    22    97   100    1
    23    62    61    1
    24    62    64   ar
    25    59    60    2
    26    59    58    1
    27    44    43    1
    28    44    45    1
    29    61    58    1
    30    66    64   ar
    31    71    70    2
    32    58    57    1
    33   100   101    1
    34    91    94    1
    35    91    90    1
    36    70    69    1
    37    79    78    2
    38    45    46    2
    39    94    95    1
    40    68    69    1
    41    90    78   am
    42    78    77    1
    43    76    77    1
    44     4     3    2
    45    69    72    1
    46     5     6    1
    47     5     2    1
    48    77    80    1
    49   101   102    1
    50   104   102   am
    51    46    47    1
    52    46    48    1
    53   102   103    2
    54     1     2    1
    55     3     2    1
    56     3     7   am
    57    72    73    1
    58    86    88   ar
    59    86    83   ar
    60    88    89   ar
    61    80    81    1
    62    28    27    1
    63    73    75   ar
    64    73    74   ar
    65    83    81   ar
    66    83    85   ar
    67    89    87   ar
    68     7     8    1
    69    81    82   ar
    70     8    11    1
    71     8     9    1
    72    22    21    1
    73    85    87   ar
    74    85    84   ar
    75    21    18    1
    76    17     9   am
    77    17    18    1
    78    82    84   ar
    79    11    12    1
    80     9    10    2
    81    27    24    1
    82    18    19    1
    83    12    13   ar
    84    12    14   ar
    85    24    23    1
    86    24    25    1
    87    13    15   ar
    88    19    20    2
    89    32    31    2
    90    14    16   ar
    91    25    29   am
    92    25    26    2
    93    15    16   ar
    94    29    30    1
    95    31    30    1
    96    30    33    1
    97    33    34    1
    98    34    35    1
    99    36    35    2
   100    35    37   am
