@<TRIPOS>MOLECULE
tmp/2y9gA01.pdb
 144 142 0 0 0
SMALL
GASTEIGER

@<TRIPOS>ATOM
      1  N          0.9540   14.5560   -4.5730 N.3    74  ARG74      -0.1245
      2  CA        -0.2660   15.3170   -4.3910 C.3    74  ARG74       0.1563
      3  C         -1.2280   14.7800   -5.4620 C.2    74  ARG74       0.2260
      4  O         -0.7960   14.3370   -6.5070 O.2    74  ARG74      -0.2867
      5  CB        -0.0440   16.8300   -4.6300 C.3    74  ARG74       0.0307
      6  CG         0.8430   17.4740   -3.5880 C.3    74  ARG74       0.0489
      7  CD         0.8500   18.9980   -3.6400 C.3    74  ARG74       0.2205
      8  NE         1.7830   19.4580   -2.6070 N.pl3  74  ARG74      -0.0865
      9  CZ         1.6750   20.6560   -2.0080 C.cat  74  ARG74       0.5346
     10  NH1        0.7160   21.4990   -2.4040 N.pl3  74  ARG74       0.1354
     11  NH2        2.4920   20.9490   -1.0490 N.pl3  74  ARG74       0.1354
     12  N          1.3640   14.0700    2.1730 N.3    79  TYR79      -0.1241
     13  CA         2.0600   14.2470    0.9030 C.3    79  TYR79       0.1605
     14  C          3.3720   13.5060    0.8100 C.2    79  TYR79       0.2264
     15  O          3.9220   13.2790   -0.2890 O.2    79  TYR79      -0.2867
     16  CB         2.3150   15.7280    0.6790 C.3    79  TYR79       0.0534
     17  CG         1.1050   16.5370    0.3270 C.ar   79  TYR79      -0.0201
     18  CD1       -0.1380   15.9380   -0.0400 C.ar   79  TYR79      -0.0009
     19  CD2        1.1530   17.9360    0.4640 C.ar   79  TYR79      -0.0009
     20  CE1       -1.3000   16.7090   -0.3280 C.ar   79  TYR79       0.0417
     21  CE2        0.0030   18.7060    0.2140 C.ar   79  TYR79       0.0417
     22  CZ        -1.1960   18.1140   -0.2110 C.ar   79  TYR79       0.1957
     23  OH        -2.2800   18.9310   -0.4160 O.3    79  TYR79      -0.2866
     24  N         10.6520   18.9560    0.7240 N.3   119  VAL119     -0.1301
     25  CA        10.9230   20.1410    1.5380 C.3   119  VAL119      0.1246
     26  C         11.5420   19.6720    2.8490 C.3   119  VAL119      0.2009
     27  O         10.9860   18.7070    3.5060 O.3   119  VAL119     -0.2188
     28  CB         9.5920   20.8790    1.7790 C.3   119  VAL119      0.0202
     29  CG1        9.6880   22.0130    2.8650 C.3   119  VAL119      0.0016
     30  CG2        9.0970   21.5540    0.4870 C.3   119  VAL119      0.0016
     31  N         12.7170   21.9010    6.2790 N.3   121  ARG121     -0.1245
     32  CA        12.7070   23.2970    6.7290 C.3   121  ARG121      0.1563
     33  C         12.4710   23.3640    8.2430 C.2   121  ARG121      0.2260
     34  O         12.1060   22.3520    8.9270 O.2   121  ARG121     -0.2867
     35  CB        11.6480   24.1150    6.0040 C.3   121  ARG121      0.0307
     36  CG        10.2000   23.5480    6.3760 C.3   121  ARG121      0.0489
     37  CD         9.1340   24.2010    5.4810 C.3   121  ARG121      0.2205
     38  NE         7.8540   23.4660    5.6390 N.pl3 121  ARG121     -0.0865
     39  CZ         6.7730   23.7520    4.9000 C.cat 121  ARG121      0.5346
     40  NH1        6.7950   24.7470    4.0010 N.pl3 121  ARG121      0.1354
     41  NH2        5.6470   23.0710    5.1050 N.pl3 121  ARG121      0.1354
     42  N         10.9530   26.5830    9.3870 N.3   123  HIS123     -0.1226
     43  CA        10.1570   27.7490    9.7300 C.3   123  HIS123      0.1752
     44  C          8.6400   27.5650    9.7270 C.2   123  HIS123      0.2596
     45  O          7.8930   28.4800   10.1830 O.2   123  HIS123     -0.2718
     46  CB        10.4870   28.9210    8.8100 C.3   123  HIS123      0.0759
     47  CG        10.2820   28.5810    7.3800 C.ar  123  HIS123      0.0818
     48  ND1       11.1360   27.7360    6.7050 N.ar  123  HIS123     -0.2268
     49  CD2        9.3110   28.9310    6.4930 C.ar  123  HIS123      0.1154
     50  CE1       10.7330   27.6330    5.4520 C.ar  123  HIS123      0.1986
     51  NE2        9.6330   28.3510    5.3010 N.ar  123  HIS123     -0.2212
     52  N          8.2230   26.4500    9.1680 N.am  124  LEU124     -0.1966
     53  CA         6.7930   26.1630    9.0360 C.3   124  LEU124      0.1728
     54  C          6.6590   24.6240    9.0440 C.2   124  LEU124      0.2616
     55  O          7.5500   23.9000    8.6040 O.2   124  LEU124     -0.2715
     56  CB         6.3250   26.6980    7.7110 C.3   124  LEU124      0.0311
     57  CG         4.9640   27.2590    7.4150 C.3   124  LEU124      0.0022
     58  CD1        4.5850   26.7390    6.0790 C.3   124  LEU124      0.0001
     59  CD2        3.9060   27.0520    8.4990 C.3   124  LEU124      0.0001
     60  N          5.5390   24.1580    9.5920 N.am  125  GLN125     -0.1964
     61  CA         5.2190   22.7300    9.5940 C.3   125  GLN125      0.1718
     62  C          4.2500   22.4260    8.4640 C.2   125  GLN125      0.2458
     63  O          3.4410   23.3150    8.0900 O.2   125  GLN125     -0.2730
     64  CB         4.5630   22.2960   10.9310 C.3   125  GLN125      0.0407
     65  CG         5.5190   22.4720   12.1830 C.3   125  GLN125      0.0908
     66  CD         4.8030   22.2920   13.5090 C.2   125  GLN125      0.2608
     67  OE1        4.7310   21.2030   14.0280 O.2   125  GLN125     -0.2717
     68  NE2        4.2950   23.3650   14.0600 N.am  125  GLN125     -0.0878
     69  N          4.2730   21.1650    7.9370 N.am  126  PRO126     -0.2727
     70  CA         5.2160   20.0790    8.3150 C.3   126  PRO126      0.1402
     71  C          6.6340   20.3820    7.9290 C.2   126  PRO126      0.2269
     72  O          6.9080   21.0460    6.8820 O.2   126  PRO126     -0.2865
     73  CB         4.7490   18.8540    7.4700 C.3   126  PRO126      0.0296
     74  CG         3.2330   19.1380    7.3440 C.3   126  PRO126      0.0237
     75  CD         3.2340   20.6560    7.0010 C.3   126  PRO126      0.0939
     76  N          8.1870   17.7940    4.0670 N.3   129  TRP129     -0.1227
     77  CA         6.9400   17.9560    3.2670 C.3   129  TRP129      0.1737
     78  C          7.2630   17.9800    1.7960 C.2   129  TRP129      0.2595
     79  O          8.3330   17.5290    1.4300 O.2   129  TRP129     -0.2718
     80  CB         6.1810   19.2130    3.7580 C.3   129  TRP129      0.0564
     81  CG         4.6640   19.1980    3.5500 C.ar  129  TRP129      0.0003
     82  CD1        3.9110   20.1780    2.9420 C.ar  129  TRP129      0.0946
     83  CD2        3.7450   18.1850    3.9790 C.ar  129  TRP129      0.0152
     84  NE1        2.5460   19.8320    2.9860 N.ar  129  TRP129     -0.2442
     85  CE2        2.4290   18.5920    3.5770 C.ar  129  TRP129      0.0810
     86  CE3        3.9020   16.9390    4.6330 C.ar  129  TRP129      0.0012
     87  CZ2        1.2490   17.8350    3.8570 C.ar  129  TRP129      0.0191
     88  CZ3        2.7150   16.1860    4.9220 C.ar  129  TRP129      0.0001
     89  CH2        1.4300   16.6110    4.5300 C.ar  129  TRP129      0.0015
     90  N          6.3330   18.4640    0.9670 N.am  130  ASN130     -0.1960
     91  CA         6.6660   18.6900   -0.4310 C.3   130  ASN130      0.1819
     92  C          6.0160   20.0090   -0.8620 C.2   130  ASN130      0.2621
     93  O          5.3810   20.7190   -0.0220 O.2   130  ASN130     -0.2715
     94  CB         6.2990   17.5010   -1.3160 C.3   130  ASN130      0.1195
     95  CG         4.8370   17.2720   -1.5090 C.2   130  ASN130      0.2630
     96  OD1        3.9630   18.1320   -1.2300 O.2   130  ASN130     -0.2716
     97  ND2        4.5390   16.0830   -2.1020 N.am  130  ASN130     -0.0877
     98  N          6.3100   20.4340   -2.0830 N.am  131  HIS131     -0.1973
     99  CA         5.8040   21.6970   -2.6080 C.3   131  HIS131      0.1656
    100  C          5.6930   21.5560   -4.0920 C.2   131  HIS131      0.2291
    101  O          6.4600   20.7920   -4.6760 O.2   131  HIS131     -0.2864
    102  CB         6.7880   22.8290   -2.2950 C.3   131  HIS131      0.0771
    103  CG         6.1650   24.1910   -2.4480 C.ar  131  HIS131      0.0820
    104  ND1        5.2470   24.7010   -1.5470 N.ar  131  HIS131     -0.2267
    105  CD2        6.3330   25.1320   -3.4160 C.ar  131  HIS131      0.1154
    106  CE1        4.8940   25.9150   -1.9540 C.ar  131  HIS131      0.1986
    107  NE2        5.5460   26.2020   -3.0820 N.ar  131  HIS131     -0.2212
    108  N          7.4950   26.1340   -8.0910 N.3   135  GLU135     -0.1245
    109  CA         7.8350   27.2540   -7.2150 C.3   135  GLU135      0.1567
    110  C          9.0300   26.8840   -6.3030 C.2   135  GLU135      0.2260
    111  O          8.9210   26.0340   -5.4170 O.2   135  GLU135     -0.2867
    112  CB         6.6320   27.7320   -6.3810 C.3   135  GLU135      0.0388
    113  CG         7.0230   28.9700   -5.5140 C.3   135  GLU135      0.1160
    114  CD         5.7950   29.5740   -4.7310 C.2   135  GLU135      0.3649
    115  OE1        4.9780   28.7370   -4.2860 O.co2 135  GLU135     -0.2457
    116  OE2        5.7070   30.8320   -4.5460 O.co2 135  GLU135     -0.2457
    117  N         12.1590   27.1020   -3.6500 N.3   137  PHE137     -0.1241
    118  CA        12.6810   27.7030   -2.4220 C.3   137  PHE137      0.1605
    119  C         13.9260   26.9560   -1.9900 C.2   137  PHE137      0.2264
    120  O         14.0890   25.7440   -2.2930 O.2   137  PHE137     -0.2867
    121  CB        11.6040   27.5810   -1.2930 C.3   137  PHE137      0.0534
    122  CG        10.4080   28.5190   -1.5360 C.ar  137  PHE137     -0.0203
    123  CD1       10.4940   29.8660   -1.1510 C.ar  137  PHE137     -0.0042
    124  CD2        9.1890   28.0400   -2.0380 C.ar  137  PHE137     -0.0042
    125  CE1        9.4550   30.7950   -1.3570 C.ar  137  PHE137     -0.0003
    126  CE2        8.1050   28.9230   -2.2540 C.ar  137  PHE137     -0.0003
    127  CZ         8.1970   30.2680   -1.9100 C.ar  137  PHE137     -0.0000
    128  N         14.5530   25.7320    0.8100 N.3   139  ASP139     -0.1225
    129  CA        14.3580   24.6040    1.7150 C.3   139  ASP139      0.1805
    130  C         13.9390   23.3690    0.9260 C.2   139  ASP139      0.2597
    131  O         13.6520   22.3350    1.5160 O.2   139  ASP139     -0.2718
    132  CB        13.2740   24.9150    2.8040 C.3   139  ASP139      0.1424
    133  CG        11.8970   25.1920    2.1990 C.2   139  ASP139      0.3668
    134  OD1       11.6170   24.9650    0.9900 O.co2 139  ASP139     -0.2456
    135  OD2       11.0540   25.7290    2.9530 O.co2 139  ASP139     -0.2456
    136  N         13.9560   23.4260   -0.4170 N.am  140  GLN140     -0.1979
    137  CA        13.7930   22.1980   -1.2150 C.3   140  GLN140      0.1601
    138  C         15.1690   21.6020   -1.5570 C.2   140  GLN140      0.2287
    139  O         15.2210   20.6270   -2.3250 O.2   140  GLN140     -0.2864
    140  CB        13.0350   22.5410   -2.5280 C.3   140  GLN140      0.0394
    141  CG        11.6410   22.9980   -2.2520 C.3   140  GLN140      0.0908
    142  CD        11.0250   23.8020   -3.4130 C.2   140  GLN140      0.2608
    143  OE1       11.6220   23.8940   -4.5370 O.2   140  GLN140     -0.2717
    144  NE2        9.8330   24.4010   -3.1710 N.am  140  GLN140     -0.0878
@<TRIPOS>BOND
     1   108   109    1
     2   109   112    1
     3   109   110    1
     4     4     3    2
     5   112   113    1
     6   110   111    2
     7   113   114    1
     8     3     2    1
     9   114   116   ar
    10   114   115   ar
    11   101   100    2
    12     5     2    1
    13     5     6    1
    14     1     2    1
    15   143   142    2
    16   100    99    1
    17   117   118    1
    18     7     6    1
    19     7     8    1
    20   105   107   ar
    21   105   103   ar
    22   142   144   am
    23   142   141    1
    24   107   106   ar
    25    99   102    1
    26    99    98    1
    27     8     9    2
    28   140   141    1
    29   140   137    1
    30   103   102    1
    31   103   104   ar
    32   118   119    1
    33   118   121    1
    34    10     9    1
    35   139   138    2
    36   120   119    2
    37   126   124   ar
    38   126   127   ar
    39    97    95   am
    40    98    92   am
    41   124   122   ar
    42     9    11    1
    43   106   104   ar
    44   127   125   ar
    45   138   137    1
    46   122   121    1
    47   122   123   ar
    48    95    94    1
    49    95    96    2
    50   125   123   ar
    51    94    91    1
    52   137   136    1
    53    92    91    1
    54    92    93    2
    55    91    90    1
    56   136   130   am
    57    23    22    1
    58    20    22   ar
    59    20    18   ar
    60    15    14    2
    61    22    21   ar
    62    18    17   ar
    63    21    19   ar
    64    17    19   ar
    65    17    16    1
    66    30    28    1
    67    16    13    1
    68    24    25    1
    69   128   129    1
    70    14    13    1
    71    13    12    1
    72   130   131    2
    73   130   129    1
    74    90    78   am
    75   134   133   ar
    76    79    78    2
    77    25    28    1
    78    25    26    1
    79   129   132    1
    80    28    29    1
    81    78    77    1
    82   133   132    1
    83   133   135   ar
    84    26    27    1
    85    82    84   ar
    86    82    81   ar
    87    84    85   ar
    88    77    80    1
    89    77    76    1
    90    81    80    1
    91    81    83   ar
    92    85    87   ar
    93    85    83   ar
    94    87    89   ar
    95    83    86   ar
    96    40    39    1
    97    89    88   ar
    98    86    88   ar
    99    39    41    1
   100    39    38    2
   101    51    50   ar
   102    51    49   ar
   103    50    48   ar
   104    37    38    1
   105    37    36    1
   106    35    36    1
   107    35    32    1
   108    58    57    1
   109    31    32    1
   110    49    47   ar
   111    48    47   ar
   112    32    33    1
   113    72    71    2
   114    75    74    1
   115    75    69    1
   116    74    73    1
   117    47    46    1
   118    57    56    1
   119    57    59    1
   120    73    70    1
   121    56    53    1
   122    71    70    1
   123    69    70    1
   124    69    62   am
   125    63    62    2
   126    33    34    2
   127    62    61    1
   128    55    54    2
   129    46    43    1
   130    53    54    1
   131    53    52    1
   132    54    60   am
   133    52    44   am
   134    42    43    1
   135    60    61    1
   136    61    64    1
   137    44    43    1
   138    44    45    2
   139    64    65    1
   140    65    66    1
   141    66    67    2
   142    66    68   am
