@<TRIPOS>MOLECULE
tmp/2y9rA00.pdb
 74 71 0 0 0
SMALL
GASTEIGER

@<TRIPOS>ATOM
      1  N          0.7780  -11.4160   -0.2510 N.3     9  ALA9       -0.1231
      2  CA         1.1510  -10.3160    0.6390 C.3     9  ALA9        0.1694
      3  C         -0.0200   -9.3790    0.8780 C.2     9  ALA9        0.2592
      4  O         -0.6520   -8.9130   -0.0720 O.2     9  ALA9       -0.2718
      5  CB         2.3170   -9.5440    0.0350 C.3     9  ALA9        0.0304
      6  N         -0.3160   -9.1300    2.1480 N.am   10  LEU10      -0.1966
      7  CA        -1.2880   -8.1630    2.5950 C.3    10  LEU10       0.1713
      8  C         -0.7620   -7.7090    3.9670 C.2    10  LEU10       0.2458
      9  O         -0.2900   -8.5510    4.7740 O.2    10  LEU10      -0.2730
     10  CB        -2.6940   -8.7840    2.7200 C.3    10  LEU10       0.0310
     11  CG        -3.8520   -7.9650    3.2710 C.3    10  LEU10       0.0022
     12  CD1       -4.3160   -6.8080    2.3120 C.3    10  LEU10       0.0001
     13  CD2       -5.0860   -8.8410    3.6270 C.3    10  LEU10       0.0001
     14  N         -0.7660   -6.3910    4.2190 N.am   11  PRO11      -0.2727
     15  CA        -0.3040   -5.9550    5.5320 C.3    11  PRO11       0.1402
     16  C         -1.2960   -6.3680    6.6340 C.2    11  PRO11       0.2269
     17  O         -2.4970   -6.5250    6.3690 O.2    11  PRO11      -0.2865
     18  CB        -0.1840   -4.4300    5.3720 C.3    11  PRO11       0.0296
     19  CG        -1.1050   -4.0820    4.3130 C.3    11  PRO11       0.0237
     20  CD        -1.1810   -5.2540    3.3750 C.3    11  PRO11       0.0939
     21  N         -2.6610   -1.0730    8.9430 N.3    14  ILE14      -0.1245
     22  CA        -2.3350    0.1820    8.2800 C.3    14  ILE14       0.1561
     23  C         -2.9940    1.3610    9.0410 C.2    14  ILE14       0.2260
     24  O         -4.1780    1.2900    9.3750 O.2    14  ILE14      -0.2867
     25  CB        -2.8050    0.2420    6.8180 C.3    14  ILE14       0.0252
     26  CG1       -2.2750   -0.9360    5.9960 C.3    14  ILE14       0.0019
     27  CG2       -2.3710    1.5770    6.1450 C.3    14  ILE14       0.0019
     28  CD1       -3.0380   -1.1520    4.6630 C.3    14  ILE14       0.0001
     29  N         -6.8170    6.2690    1.0200 N.3    22  LEU22      -0.1231
     30  CA        -6.1810    5.0290    1.4370 C.3    22  LEU22       0.1693
     31  C         -6.1830    4.0680    0.2600 C.2    22  LEU22       0.2593
     32  O         -7.1670    3.9470   -0.4330 O.2    22  LEU22      -0.2718
     33  CB        -6.9280    4.4320    2.6240 C.3    22  LEU22       0.0284
     34  CG        -6.5280    3.0330    3.1070 C.3    22  LEU22       0.0019
     35  CD1       -5.1060    2.9870    3.7010 C.3    22  LEU22       0.0001
     36  CD2       -7.5210    2.5310    4.1070 C.3    22  LEU22       0.0001
     37  N         -5.0690    3.3690    0.0670 N.am   23  THR23      -0.1939
     38  CA        -4.9170    2.3760   -0.9710 C.3    23  THR23       0.2028
     39  C         -4.3940    1.1350   -0.2600 C.2    23  THR23       0.2642
     40  O         -3.3990    1.2130    0.4710 O.2    23  THR23      -0.2714
     41  CB        -3.9360    2.8910   -2.0380 C.3    23  THR23       0.1808
     42  OG1       -4.5750    3.9380   -2.7600 O.3    23  THR23      -0.2208
     43  CG2       -3.5630    1.8400   -3.0150 C.3    23  THR23       0.0379
     44  N         -5.1040    0.0130   -0.3790 N.am   24  VAL24      -0.1963
     45  CA        -4.6290   -1.2430    0.2090 C.3    24  VAL24       0.1727
     46  C         -4.5010   -2.2460   -0.9120 C.2    24  VAL24       0.2616
     47  O         -5.4790   -2.5530   -1.5960 O.2    24  VAL24      -0.2715
     48  CB        -5.5480   -1.7960    1.3000 C.3    24  VAL24       0.0290
     49  CG1       -4.9440   -3.0800    1.9020 C.3    24  VAL24       0.0023
     50  CG2       -5.7520   -0.7600    2.3750 C.3    24  VAL24       0.0023
     51  N         -3.2900   -2.7430   -1.1000 N.am   25  ALA25      -0.1963
     52  CA        -3.0230   -3.6790   -2.1820 C.3    25  ALA25       0.1728
     53  C         -2.6270   -5.0380   -1.6570 C.2    25  ALA25       0.2616
     54  O         -2.0870   -5.2100   -0.5340 O.2    25  ALA25      -0.2715
     55  CB        -1.9510   -3.1540   -3.1160 C.3    25  ALA25       0.0334
     56  N         -2.8990   -6.0120   -2.5140 N.am   26  CYS26      -0.1954
     57  CA        -2.6600   -7.3900   -2.1960 C.3    26  CYS26       0.1843
     58  C         -2.3250   -8.1040   -3.4830 C.2    26  CYS26       0.2625
     59  O         -3.0530   -7.9830   -4.4600 O.2    26  CYS26      -0.2714
     60  CB        -3.9120   -7.9800   -1.5570 C.3    26  CYS26       0.0997
     61  SG        -3.7710   -9.7190   -1.1930 S.3    26  CYS26      -0.0797
     62  N         -1.2290   -8.8490   -3.4740 N.am   27  ALA27      -0.1977
     63  CA        -0.9040   -9.7330   -4.5640 C.3    27  ALA27       0.1597
     64  C         -1.4850  -11.1120   -4.2370 C.2    27  ALA27       0.2287
     65  O         -1.4530  -11.5570   -3.0710 O.2    27  ALA27      -0.2864
     66  CB         0.6180   -9.8150   -4.7300 C.3    27  ALA27       0.0319
     67  N         -3.6040   -8.9780   -8.7900 N.3    61  LEU61      -0.1245
     68  CA        -3.5830   -7.8950   -7.8000 C.3    61  LEU61       0.1561
     69  C         -5.0010   -7.4500   -7.5580 C.2    61  LEU61       0.2260
     70  O         -5.8190   -7.4190   -8.4710 O.2    61  LEU61      -0.2867
     71  CB        -2.7700   -6.6800   -8.2830 C.3    61  LEU61       0.0270
     72  CG        -1.2400   -6.7570   -8.2460 C.3    61  LEU61       0.0019
     73  CD1       -0.5930   -6.0690   -9.4530 C.3    61  LEU61       0.0001
     74  CD2       -0.6910   -6.1620   -6.9240 C.3    61  LEU61       0.0001
@<TRIPOS>BOND
     1    73    72    1
     2    67    68    1
     3    70    69    2
     4    71    72    1
     5    71    68    1
     6    72    74    1
     7    68    69    1
     8    66    63    1
     9    63    64    1
    10    63    62    1
    11    59    58    2
    12    64    65    2
    13    58    62   am
    14    58    57    1
    15    55    52    1
    16    43    41    1
    17    42    41    1
    18    56    57    1
    19    56    53   am
    20    57    60    1
    21    52    53    1
    22    52    51    1
    23    41    38    1
    24    53    54    2
    25    47    46    2
    26    60    61    1
    27    51    46   am
    28    38    39    1
    29    38    37    1
    30    46    45    1
    31    32    31    2
    32    44    39   am
    33    44    45    1
    34    39    40    2
    35     1     2    1
    36     4     3    2
    37     5     2    1
    38    37    31   am
    39    45    48    1
    40    31    30    1
    41     2     3    1
    42     3     6   am
    43    29    30    1
    44    48    49    1
    45    48    50    1
    46    30    33    1
    47     6     7    1
    48    12    11    1
    49     7    10    1
    50     7     8    1
    51    33    34    1
    52    10    11    1
    53    34    35    1
    54    34    36    1
    55    11    13    1
    56    20    14    1
    57    20    19    1
    58     8    14   am
    59     8     9    2
    60    14    15    1
    61    19    18    1
    62    28    26    1
    63    18    15    1
    64    15    16    1
    65    26    25    1
    66    27    25    1
    67    17    16    2
    68    25    22    1
    69    22    21    1
    70    22    23    1
    71    23    24    2
