@<TRIPOS>MOLECULE
tmp/2y9xB00.pdb
 112 109 0 0 0
SMALL
GASTEIGER

@<TRIPOS>ATOM
      1  N          7.6370   21.5710  -36.3300 N.3    60  HIS60      -0.1241
      2  CA         6.7720   21.9110  -37.4630 C.3    60  HIS60       0.1621
      3  C          7.5560   22.4480  -38.6630 C.2    60  HIS60       0.2264
      4  O          7.7060   21.7620  -39.6730 O.2    60  HIS60      -0.2867
      5  CB         5.6870   22.9000  -37.0170 C.3    60  HIS60       0.0745
      6  CG         4.5430   23.0290  -37.9750 C.ar   60  HIS60       0.0817
      7  ND1        4.2800   24.1910  -38.6680 N.ar   60  HIS60      -0.2268
      8  CD2        3.5850   22.1470  -38.3440 C.ar   60  HIS60       0.1154
      9  CE1        3.2140   24.0160  -39.4290 C.ar   60  HIS60       0.1986
     10  NE2        2.7740   22.7840  -39.2520 N.ar   60  HIS60      -0.2212
     11  N          2.2640   18.5680  -45.5870 N.3    84  HIS84      -0.1241
     12  CA         1.1580   19.3820  -46.0760 C.3    84  HIS84       0.1621
     13  C          0.8730   19.0930  -47.5420 C.2    84  HIS84       0.2264
     14  O          1.7940   18.9820  -48.3540 O.2    84  HIS84      -0.2867
     15  CB         1.4270   20.8700  -45.8340 C.3    84  HIS84       0.0745
     16  CG         1.6950   21.2040  -44.3980 C.ar   84  HIS84       0.0817
     17  ND1        2.9700   21.3070  -43.8820 N.ar   84  HIS84      -0.2268
     18  CD2        0.8510   21.4300  -43.3620 C.ar   84  HIS84       0.1154
     19  CE1        2.9010   21.5950  -42.5950 C.ar   84  HIS84       0.1986
     20  NE2        1.6260   21.6750  -42.2540 N.ar   84  HIS84      -0.2212
     21  N         -5.2360   19.3380  -49.5870 N.3   243  HIS243     -0.1241
     22  CA        -5.6880   20.4430  -50.4470 C.3   243  HIS243      0.1621
     23  C         -5.3990   20.2810  -51.9550 C.2   243  HIS243      0.2264
     24  O         -5.7120   21.1750  -52.7530 O.2   243  HIS243     -0.2867
     25  CB        -5.2090   21.8100  -49.9180 C.3   243  HIS243      0.0745
     26  CG        -3.7240   21.9290  -49.7420 C.ar  243  HIS243      0.0817
     27  ND1       -2.8220   21.6370  -50.7430 N.ar  243  HIS243     -0.2268
     28  CD2       -2.9880   22.3630  -48.6910 C.ar  243  HIS243      0.1154
     29  CE1       -1.5940   21.8590  -50.3070 C.ar  243  HIS243      0.1986
     30  NE2       -1.6670   22.2990  -49.0640 N.ar  243  HIS243     -0.2212
     31  N         -7.9140   20.3910  -44.7740 N.3   255  GLU255     -0.1245
     32  CA        -6.7290   21.2220  -44.8790 C.3   255  GLU255      0.1567
     33  C         -7.0450   22.6020  -45.4530 C.2   255  GLU255      0.2260
     34  O         -6.6450   23.6080  -44.8790 O.2   255  GLU255     -0.2867
     35  CB        -5.6500   20.5210  -45.7090 C.3   255  GLU255      0.0388
     36  CG        -4.2750   21.1520  -45.5730 C.3   255  GLU255      0.1160
     37  CD        -3.1630   20.3140  -46.1680 C.2   255  GLU255      0.3649
     38  OE1       -3.4540   19.2980  -46.8290 O.co2 255  GLU255     -0.2457
     39  OE2       -1.9850   20.6830  -45.9790 O.co2 255  GLU255     -0.2457
     40  N         -8.6900   24.7140  -43.0850 N.3   258  HIS258     -0.1226
     41  CA        -7.6490   24.9440  -42.0810 C.3   258  HIS258      0.1752
     42  C         -6.5640   25.9370  -42.5390 C.2   258  HIS258      0.2596
     43  O         -5.9720   26.6310  -41.7100 O.2   258  HIS258     -0.2718
     44  CB        -7.0840   23.5830  -41.6210 C.3   258  HIS258      0.0759
     45  CG        -5.5910   23.5170  -41.5200 C.ar  258  HIS258      0.0818
     46  ND1       -4.7700   23.4770  -42.6260 N.ar  258  HIS258     -0.2268
     47  CD2       -4.7750   23.4260  -40.4440 C.ar  258  HIS258      0.1154
     48  CE1       -3.5100   23.4000  -42.2350 C.ar  258  HIS258      0.1986
     49  NE2       -3.4860   23.3590  -40.9160 N.ar  258  HIS258     -0.2212
     50  N         -6.3250   26.0130  -43.8500 N.am  259  ASN259     -0.1974
     51  CA        -5.4250   27.0190  -44.4340 C.3   259  ASN259      0.1688
     52  C         -5.9620   28.4500  -44.3030 C.2   259  ASN259      0.2292
     53  O         -5.2050   29.3740  -44.0020 O.2   259  ASN259     -0.2864
     54  CB        -5.1380   26.7160  -45.9100 C.3   259  ASN259      0.1181
     55  CG        -4.3480   25.4280  -46.1130 C.2   259  ASN259      0.2629
     56  OD1       -3.8130   24.8510  -45.1660 O.2   259  ASN259     -0.2716
     57  ND2       -4.2730   24.9740  -47.3610 N.am  259  ASN259     -0.0877
     58  N         -5.7980   29.6840  -40.6410 N.3   262  HIS262     -0.1226
     59  CA        -4.4210   30.1320  -40.3850 C.3   262  HIS262      0.1752
     60  C         -4.2070   31.5750  -40.8470 C.2   262  HIS262      0.2596
     61  O         -3.4670   32.3290  -40.2130 O.2   262  HIS262     -0.2718
     62  CB        -3.4110   29.2270  -41.1020 C.3   262  HIS262      0.0759
     63  CG        -2.8930   28.0910  -40.2710 C.ar  262  HIS262      0.0818
     64  ND1       -1.9450   28.2590  -39.2840 N.ar  262  HIS262     -0.2268
     65  CD2       -3.1550   26.7630  -40.3150 C.ar  262  HIS262      0.1154
     66  CE1       -1.6690   27.0890  -38.7360 C.ar  262  HIS262      0.1986
     67  NE2       -2.3860   26.1620  -39.3470 N.ar  262  HIS262     -0.2212
     68  N         -4.8550   31.9420  -41.9550 N.am  263  PHE263     -0.1976
     69  CA        -4.7710   33.2960  -42.5130 C.3   263  PHE263      0.1639
     70  C         -5.6530   34.3120  -41.7900 C.2   263  PHE263      0.2290
     71  O         -5.4150   35.5100  -41.8910 O.2   263  PHE263     -0.2864
     72  CB        -5.0900   33.3010  -44.0150 C.3   263  PHE263      0.0560
     73  CG        -4.1050   32.5260  -44.8530 C.ar  263  PHE263     -0.0200
     74  CD1       -2.7300   32.6450  -44.6380 C.ar  263  PHE263     -0.0042
     75  CD2       -4.5530   31.6920  -45.8750 C.ar  263  PHE263     -0.0042
     76  CE1       -1.8190   31.9290  -45.4120 C.ar  263  PHE263     -0.0003
     77  CE2       -3.6520   30.9730  -46.6570 C.ar  263  PHE263     -0.0003
     78  CZ        -2.2810   31.0920  -46.4260 C.ar  263  PHE263     -0.0000
     79  N          1.6110   32.7770  -37.6120 N.3   279  MET279     -0.1230
     80  CA         0.5250   31.8480  -37.9510 C.3   279  MET279      0.1702
     81  C          0.1580   31.8530  -39.4350 C.2   279  MET279      0.2592
     82  O         -0.5010   30.9310  -39.9140 O.2   279  MET279     -0.2718
     83  CB        -0.7150   32.1360  -37.1080 C.3   279  MET279      0.0401
     84  CG        -0.7220   31.4350  -35.7600 C.3   279  MET279      0.0596
     85  SD        -1.2590   29.7110  -35.8220 S.3   279  MET279     -0.1393
     86  CE        -3.0250   29.8860  -36.0580 C.3   279  MET279      0.0692
     87  N          0.5900   32.8930  -40.1490 N.am  280  GLY280     -0.1957
     88  CA         0.3460   33.0170  -41.5860 C.3   280  GLY280      0.1869
     89  C          1.4140   32.3710  -42.4510 C.2   280  GLY280      0.2309
     90  O          1.2700   32.2980  -43.6720 O.2   280  GLY280     -0.2863
     91  N          3.8660   28.8470  -42.8700 N.3   282  VAL282     -0.1245
     92  CA         3.9900   27.4280  -42.4970 C.3   282  VAL282      0.1561
     93  C          5.2400   27.1210  -41.6540 C.2   282  VAL282      0.2260
     94  O          5.1330   26.4200  -40.6410 O.2   282  VAL282     -0.2867
     95  CB         3.9270   26.4730  -43.7330 C.3   282  VAL282      0.0252
     96  CG1        3.9190   25.0170  -43.2940 C.3   282  VAL282      0.0019
     97  CG2        2.7050   26.7610  -44.5850 C.3   282  VAL282      0.0019
     98  N          4.6380   28.8810  -38.0270 N.3   285  ALA285     -0.1245
     99  CA         3.3100   28.8390  -37.3990 C.3   285  ALA285      0.1562
    100  C          3.2330   28.2580  -35.9840 C.2   285  ALA285      0.2260
    101  O          2.4850   28.7750  -35.1470 O.2   285  ALA285     -0.2867
    102  CB         2.3130   28.1290  -38.3170 C.3   285  ALA285      0.0290
    103  N         -5.0230   23.3530  -34.0160 N.3   295  HIS295     -0.1241
    104  CA        -4.8170   21.9690  -34.4200 C.3   295  HIS295      0.1621
    105  C         -5.4240   20.9400  -33.4730 C.2   295  HIS295      0.2264
    106  O         -5.3400   19.7370  -33.7220 O.2   295  HIS295     -0.2867
    107  CB        -3.3450   21.6930  -34.7070 C.3   295  HIS295      0.0745
    108  CG        -2.9540   22.0200  -36.1100 C.ar  295  HIS295      0.0817
    109  ND1       -3.0960   21.1230  -37.1480 N.ar  295  HIS295     -0.2268
    110  CD2       -2.4700   23.1590  -36.6580 C.ar  295  HIS295      0.1154
    111  CE1       -2.6960   21.6900  -38.2720 C.ar  295  HIS295      0.1986
    112  NE2       -2.3070   22.9230  -38.0000 N.ar  295  HIS295     -0.2212
@<TRIPOS>BOND
     1    24    23    2
     2    23    22    1
     3    27    29   ar
     4    27    26   ar
     5    22    25    1
     6    22    21    1
     7    29    30   ar
     8    25    26    1
     9    26    28   ar
    10    30    28   ar
    11    14    13    2
    12    13    12    1
    13    57    55   am
    14    38    37   ar
    15    77    78   ar
    16    77    75   ar
    17    78    76   ar
    18    37    39   ar
    19    37    36    1
    20    55    54    1
    21    55    56    2
    22    12    15    1
    23    12    11    1
    24    54    51    1
    25    75    73   ar
    26    15    16    1
    27    35    36    1
    28    35    32    1
    29    33    32    1
    30    33    34    2
    31    76    74   ar
    32    32    31    1
    33    73    74   ar
    34    73    72    1
    35    97    95    1
    36    51    52    1
    37    51    50    1
    38    16    17   ar
    39    16    18   ar
    40    52    53    2
    41    72    69    1
    42    17    19   ar
    43    50    42   am
    44    95    96    1
    45    95    92    1
    46    90    89    2
    47    18    20   ar
    48    40    41    1
    49    91    92    1
    50    46    48   ar
    51    46    45   ar
    52    19    20   ar
    53    42    41    1
    54    42    43    2
    55    69    68    1
    56    69    70    1
    57    92    93    1
    58    89    88    1
    59    48    49   ar
    60    41    44    1
    61    68    60   am
    62    71    70    2
    63    93    94    2
    64    44    45    1
    65    88    87    1
    66    45    47   ar
    67    62    59    1
    68    62    63    1
    69    49    47   ar
    70    60    59    1
    71    60    61    2
    72    58    59    1
    73    65    63   ar
    74    65    67   ar
    75    63    64   ar
    76    87    81   am
    77    82    81    2
    78     4     3    2
    79    81    80    1
    80     9    10   ar
    81     9     7   ar
    82    67    66   ar
    83    64    66   ar
    84    10     8   ar
    85     7     6   ar
    86     3     2    1
    87     8     6   ar
    88   102    99    1
    89   111   112   ar
    90   111   109   ar
    91    98    99    1
    92   112   110   ar
    93     6     5    1
    94    80    79    1
    95    80    83    1
    96     2     5    1
    97     2     1    1
    98    99   100    1
    99   109   108   ar
   100    83    84    1
   101   110   108   ar
   102   108   107    1
   103    86    85    1
   104   100   101    2
   105    85    84    1
   106   107   104    1
   107   104   103    1
   108   104   105    1
   109   106   105    2
