@<TRIPOS>MOLECULE
tmp/2ya1A00.pdb
 224 219 0 0 0
SMALL
GASTEIGER

@<TRIPOS>ATOM
      1  N        -19.8490   15.8490   40.7300 N.3    27  TRP27      -0.1241
      2  CA       -18.6290   15.3610   40.1050 C.3    27  TRP27       0.1605
      3  C        -17.8040   16.5670   39.6290 C.2    27  TRP27       0.2264
      4  O        -18.3230   17.4250   38.9200 O.2    27  TRP27      -0.2867
      5  CB       -19.0180   14.4640   38.9080 C.3    27  TRP27       0.0550
      6  CG       -17.8680   13.7540   38.1890 C.ar   27  TRP27       0.0003
      7  CD1      -17.2160   14.1730   37.0640 C.ar   27  TRP27       0.0946
      8  CD2      -17.3030   12.4850   38.5330 C.ar   27  TRP27       0.0152
      9  NE1      -16.2430   13.2510   36.7030 N.ar   27  TRP27      -0.2442
     10  CE2      -16.2850   12.2060   37.5950 C.ar   27  TRP27       0.0810
     11  CE3      -17.5470   11.5610   39.5590 C.ar   27  TRP27       0.0012
     12  CZ2      -15.4940   11.0520   37.6700 C.ar   27  TRP27       0.0191
     13  CZ3      -16.7600   10.4020   39.6270 C.ar   27  TRP27       0.0001
     14  CH2      -15.7580   10.1630   38.6830 C.ar   27  TRP27       0.0015
     15  N        -13.9290   18.3600   38.1970 N.3    29  TRP29      -0.1241
     16  CA       -12.6420   18.1930   37.5660 C.3    29  TRP29       0.1605
     17  C        -12.0530   19.5600   37.2620 C.2    29  TRP29       0.2264
     18  O        -12.5710   20.5930   37.7420 O.2    29  TRP29      -0.2867
     19  CB       -12.7210   17.2840   36.3290 C.3    29  TRP29       0.0550
     20  CG       -13.5600   17.7730   35.1490 C.ar   29  TRP29       0.0003
     21  CD1      -13.0890   18.2590   33.9480 C.ar   29  TRP29       0.0946
     22  CD2      -14.9920   17.7600   35.0340 C.ar   29  TRP29       0.0152
     23  NE1      -14.1350   18.5620   33.1110 N.ar   29  TRP29      -0.2442
     24  CE2      -15.3130   18.2720   33.7470 C.ar   29  TRP29       0.0810
     25  CE3      -16.0380   17.3970   35.9030 C.ar   29  TRP29       0.0012
     26  CZ2      -16.6290   18.4180   33.3060 C.ar   29  TRP29       0.0191
     27  CZ3      -17.3510   17.5280   35.4600 C.ar   29  TRP29       0.0001
     28  CH2      -17.6370   18.0380   34.1720 C.ar   29  TRP29       0.0015
     29  N        -12.7250   14.2740   40.8840 N.3    36  SER36      -0.1217
     30  CA       -13.5250   13.0910   41.2020 C.3    36  SER36       0.1889
     31  C        -13.0400   11.8950   40.3880 C.2    36  SER36       0.2288
     32  O        -12.7530   12.0200   39.2060 O.2    36  SER36      -0.2866
     33  CB       -15.0000   13.3340   40.9100 C.3    36  SER36       0.2089
     34  OG       -15.4930   14.4150   41.6620 O.3    36  SER36      -0.2183
     35  N        -16.2560    6.8190   38.6030 N.3    39  TRP39      -0.1241
     36  CA       -17.6270    7.0980   38.1260 C.3    39  TRP39       0.1605
     37  C        -18.6090    5.9690   38.4490 C.2    39  TRP39       0.2264
     38  O        -18.3440    4.8180   38.1480 O.2    39  TRP39      -0.2867
     39  CB       -17.6140    7.3520   36.6250 C.3    39  TRP39       0.0550
     40  CG       -18.9420    7.7370   36.0620 C.ar   39  TRP39       0.0003
     41  CD1      -19.8740    6.8970   35.5190 C.ar   39  TRP39       0.0946
     42  CD2      -19.5020    9.0560   35.9880 C.ar   39  TRP39       0.0152
     43  NE1      -20.9710    7.6120   35.0950 N.ar   39  TRP39      -0.2442
     44  CE2      -20.7760    8.9370   35.3670 C.ar   39  TRP39       0.0810
     45  CE3      -19.0600   10.3220   36.3900 C.ar   39  TRP39       0.0012
     46  CZ2      -21.6050   10.0360   35.1290 C.ar   39  TRP39       0.0191
     47  CZ3      -19.8760   11.4180   36.1500 C.ar   39  TRP39       0.0001
     48  CH2      -21.1410   11.2700   35.5270 C.ar   39  TRP39       0.0015
     49  N        -20.5810   18.6040   37.3140 N.3    72  LEU72      -0.1245
     50  CA       -21.8720   18.1280   36.8260 C.3    72  LEU72       0.1561
     51  C        -22.5390   17.4560   38.0050 C.2    72  LEU72       0.2260
     52  O        -21.8870   17.1880   39.0160 O.2    72  LEU72      -0.2867
     53  CB       -21.7010   17.1120   35.6840 C.3    72  LEU72       0.0270
     54  CG       -20.8380   15.8540   35.9370 C.3    72  LEU72       0.0019
     55  CD1      -21.6480   14.7320   36.6000 C.3    72  LEU72       0.0001
     56  CD2      -20.1740   15.3440   34.6540 C.3    72  LEU72       0.0001
     57  N        -25.0210   11.3850   33.4590 N.3    80  ASN80      -0.1240
     58  CA       -24.6230   12.7730   33.5830 C.3    80  ASN80       0.1653
     59  C        -25.8950   13.6250   33.4950 C.2    80  ASN80       0.2266
     60  O        -26.3210   13.9900   32.3940 O.2    80  ASN80      -0.2867
     61  CB       -23.6240   13.1170   32.4610 C.3    80  ASN80       0.1155
     62  CG       -23.2660   14.5990   32.4110 C.2    80  ASN80       0.2627
     63  OD1      -23.7790   15.4110   33.2020 O.2    80  ASN80      -0.2716
     64  ND2      -22.3880   14.9630   31.4640 N.am   80  ASN80      -0.0877
     65  N        -22.2690   18.6050   31.2760 N.3    84  ASP84      -0.1239
     66  CA       -21.0480   19.1900   31.8090 C.3    84  ASP84       0.1674
     67  C        -21.2400   20.6730   32.0440 C.2    84  ASP84       0.2266
     68  O        -21.7730   21.3610   31.1790 O.2    84  ASP84      -0.2867
     69  CB       -19.8830   18.9790   30.8370 C.3    84  ASP84       0.1410
     70  CG       -19.4190   17.5250   30.7720 C.2    84  ASP84       0.3668
     71  OD1      -20.0860   16.6340   31.3600 O.co2  84  ASP84      -0.2456
     72  OD2      -18.3840   17.2640   30.1150 O.co2  84  ASP84      -0.2456
     73  N        -11.7560   -1.9570   30.1120 N.3   503  TRP503     -0.1241
     74  CA       -11.7000   -2.1930   28.6930 C.3   503  TRP503      0.1605
     75  C        -10.3630   -1.7740   28.1230 C.2   503  TRP503      0.2264
     76  O         -9.8820   -2.3810   27.1680 O.2   503  TRP503     -0.2867
     77  CB       -12.7880   -1.3980   27.9620 C.3   503  TRP503      0.0550
     78  CG       -14.0900   -2.1040   27.8060 C.ar  503  TRP503      0.0003
     79  CD1      -14.3380   -3.4270   27.9740 C.ar  503  TRP503      0.0946
     80  CD2      -15.3240   -1.5110   27.4020 C.ar  503  TRP503      0.0152
     81  NE1      -15.6540   -3.7030   27.7160 N.ar  503  TRP503     -0.2442
     82  CE2      -16.2870   -2.5410   27.3670 C.ar  503  TRP503      0.0810
     83  CE3      -15.7110   -0.2050   27.0750 C.ar  503  TRP503      0.0012
     84  CZ2      -17.6200   -2.3090   27.0340 C.ar  503  TRP503      0.0191
     85  CZ3      -17.0470    0.0250   26.7410 C.ar  503  TRP503      0.0001
     86  CH2      -17.9810   -1.0270   26.7210 C.ar  503  TRP503      0.0015
     87  N         -9.5660    1.8610   27.5210 N.3   505  TYR505     -0.1227
     88  CA        -9.6160    3.1690   26.8310 C.3   505  TYR505      0.1736
     89  C         -9.0960    4.3430   27.6880 C.2   505  TYR505      0.2595
     90  O         -9.5750    5.4710   27.5360 O.2   505  TYR505     -0.2718
     91  CB       -11.0260    3.4560   26.2470 C.3   505  TYR505      0.0548
     92  CG       -11.4470    2.4050   25.2560 C.ar  505  TYR505     -0.0200
     93  CD1      -11.0000    2.4440   23.9230 C.ar  505  TYR505     -0.0009
     94  CD2      -12.2550    1.3220   25.6550 C.ar  505  TYR505     -0.0009
     95  CE1      -11.3450    1.4200   23.0110 C.ar  505  TYR505      0.0417
     96  CE2      -12.6070    0.2890   24.7400 C.ar  505  TYR505      0.0417
     97  CZ       -12.1520    0.3520   23.4350 C.ar  505  TYR505      0.1957
     98  OH       -12.5060   -0.6490   22.5480 O.3   505  TYR505     -0.2866
     99  N         -8.1040    4.0580   28.5550 N.am  506  ASP506     -0.1974
    100  CA        -7.3880    5.0340   29.4120 C.3   506  ASP506      0.1709
    101  C         -5.8760    5.0380   29.1160 C.2   506  ASP506      0.2293
    102  O         -5.0860    4.6410   29.9850 O.2   506  ASP506     -0.2864
    103  CB        -7.4940    4.6420   30.8960 C.3   506  ASP506      0.1436
    104  CG        -8.9030    4.6560   31.4250 C.2   506  ASP506      0.3671
    105  OD1       -9.6420    5.6130   31.1430 O.co2 506  ASP506     -0.2456
    106  OD2       -9.2500    3.7090   32.1670 O.co2 506  ASP506     -0.2456
    107  N         -5.8540    3.6770   20.6540 N.3   550  VAL550     -0.1245
    108  CA        -6.5780    4.7770   21.2170 C.3   550  VAL550      0.1561
    109  C         -5.6910    6.0110   21.2510 C.2   550  VAL550      0.2260
    110  O         -5.3410    6.5130   22.3220 O.2   550  VAL550     -0.2867
    111  CB        -7.1140    4.4090   22.6380 C.3   550  VAL550      0.0252
    112  CG1       -8.1510    5.3990   23.1070 C.3   550  VAL550      0.0019
    113  CG2       -7.6930    3.0300   22.6410 C.3   550  VAL550      0.0019
    114  N         -6.5940    9.0400   20.1800 N.3   552  ASN552     -0.1225
    115  CA        -7.3570   10.3020   20.3310 C.3   552  ASN552      0.1785
    116  C         -7.1860   11.0210   21.6660 C.2   552  ASN552      0.2597
    117  O         -7.3680   12.2410   21.7470 O.2   552  ASN552     -0.2718
    118  CB        -8.8380   10.0770   20.0680 C.3   552  ASN552      0.1169
    119  CG        -9.4420    9.0530   21.0070 C.2   552  ASN552      0.2627
    120  OD1       -9.4190    7.8460   20.7360 O.2   552  ASN552     -0.2716
    121  ND2       -9.9920    9.5270   22.1170 N.am  552  ASN552     -0.0877
    122  N         -6.8640   10.2750   22.7200 N.am  553  HIS553     -0.1975
    123  CA        -6.6990   10.8670   24.0470 C.3   553  HIS553      0.1656
    124  C         -5.8240   10.0050   24.9510 C.2   553  HIS553      0.2291
    125  O         -5.7000    8.8020   24.7310 O.2   553  HIS553     -0.2864
    126  CB        -8.0700   11.2010   24.6910 C.3   553  HIS553      0.0771
    127  CG        -8.6590   10.0860   25.5050 C.ar  553  HIS553      0.0820
    128  ND1       -9.2930    9.0000   24.9380 N.ar  553  HIS553     -0.2267
    129  CD2       -8.7140    9.8960   26.8470 C.ar  553  HIS553      0.1154
    130  CE1       -9.6960    8.1820   25.8940 C.ar  553  HIS553      0.1986
    131  NE2       -9.3550    8.7000   27.0620 N.ar  553  HIS553     -0.2212
    132  N        -10.2890   15.4800   27.6630 N.3   580  SER580     -0.1202
    133  CA       -11.3510   14.4920   27.5150 C.3   580  SER580      0.2020
    134  C        -11.1740   13.5230   28.6750 C.2   580  SER580      0.2619
    135  O        -10.1310   12.8760   28.7840 O.2   580  SER580     -0.2717
    136  CB       -11.1820   13.7440   26.1820 C.3   580  SER580      0.2103
    137  OG       -12.4270   13.3790   25.6070 O.3   580  SER580     -0.2182
    138  N        -12.1680   13.4550   29.5620 N.am  581  PHE581     -0.1961
    139  CA       -12.1050   12.5850   30.7490 C.3   581  PHE581      0.1771
    140  C        -10.8430   12.7970   31.6010 C.2   581  PHE581      0.2620
    141  O        -10.2910   11.8480   32.1580 O.2   581  PHE581     -0.2715
    142  CB       -12.2510   11.1070   30.3510 C.3   581  PHE581      0.0574
    143  CG       -13.3800   10.8550   29.3990 C.ar  581  PHE581     -0.0200
    144  CD1      -14.6800   10.7050   29.8670 C.ar  581  PHE581     -0.0042
    145  CD2      -13.1510   10.7770   28.0310 C.ar  581  PHE581     -0.0042
    146  CE1      -15.7290   10.4660   28.9830 C.ar  581  PHE581     -0.0003
    147  CE2      -14.1880   10.5620   27.1440 C.ar  581  PHE581     -0.0003
    148  CZ       -15.4770   10.4020   27.6210 C.ar  581  PHE581     -0.0000
    149  N        -10.3890   14.0480   31.6850 N.am  582  GLY582     -0.1954
    150  CA        -9.2450   14.4070   32.5290 C.3   582  GLY582      0.1869
    151  C         -7.9080   14.2490   31.8330 C.2   582  GLY582      0.2309
    152  O         -6.8900   14.7240   32.3320 O.2   582  GLY582     -0.2863
    153  N        -10.0000    3.8580   17.7900 N.3   616  ASP616     -0.1225
    154  CA       -10.9880    4.4360   18.7000 C.3   616  ASP616      0.1805
    155  C        -11.2050    5.9020   18.3820 C.2   616  ASP616      0.2597
    156  O        -10.2380    6.6310   18.1690 O.2   616  ASP616     -0.2718
    157  CB       -10.5520    4.3060   20.1680 C.3   616  ASP616      0.1424
    158  CG       -11.5890    4.8620   21.1210 C.2   616  ASP616      0.3668
    159  OD1      -12.6320    4.1990   21.3180 O.co2 616  ASP616     -0.2456
    160  OD2      -11.3770    5.9850   21.6410 O.co2 616  ASP616     -0.2456
    161  N        -12.4750    6.3150   18.3510 N.am  617  MET617     -0.1979
    162  CA       -12.8760    7.7010   18.0450 C.3   617  MET617      0.1605
    163  C        -11.9800    8.3240   16.9680 C.2   617  MET617      0.2287
    164  O        -11.3130    9.3420   17.1890 O.2   617  MET617     -0.2864
    165  CB       -12.9390    8.5620   19.3270 C.3   617  MET617      0.0413
    166  CG       -13.9100    8.0390   20.4470 C.3   617  MET617      0.0598
    167  SD       -15.6730    7.9570   19.9660 S.3   617  MET617     -0.1393
    168  CE       -16.0730    9.6930   19.7640 C.3   617  MET617      0.0692
    169  N        -13.8530    4.1090   14.1930 N.3   645  GLU645     -0.1245
    170  CA       -15.0560    4.8700   14.5070 C.3   645  GLU645      0.1567
    171  C        -14.9980    6.2250   13.8330 C.2   645  GLU645      0.2260
    172  O        -14.3130    7.1370   14.3090 O.2   645  GLU645     -0.2867
    173  CB       -15.1790    5.0970   16.0150 C.3   645  GLU645      0.0388
    174  CG       -15.3590    3.8400   16.8470 C.3   645  GLU645      0.1160
    175  CD       -15.7230    4.1630   18.2770 C.2   645  GLU645      0.3649
    176  OE1      -14.8220    4.5610   19.0460 O.co2 645  GLU645     -0.2457
    177  OE2      -16.9080    4.0300   18.6320 O.co2 645  GLU645     -0.2457
    178  N        -18.3970   -4.0180   21.4620 N.3   732  HIS732     -0.1226
    179  CA       -18.1710   -3.8930   22.9070 C.3   732  HIS732      0.1752
    180  C        -19.0200   -2.7810   23.5500 C.2   732  HIS732      0.2596
    181  O        -19.5190   -2.9450   24.6530 O.2   732  HIS732     -0.2718
    182  CB       -16.6790   -3.7320   23.2340 C.3   732  HIS732      0.0759
    183  CG       -16.1040   -2.4110   22.8180 C.ar  732  HIS732      0.0818
    184  ND1      -16.0370   -1.3270   23.6710 N.ar  732  HIS732     -0.2268
    185  CD2      -15.5670   -2.0010   21.6490 C.ar  732  HIS732      0.1154
    186  CE1      -15.4900   -0.3060   23.0400 C.ar  732  HIS732      0.1986
    187  NE2      -15.1940   -0.6880   21.8130 N.ar  732  HIS732     -0.2212
    188  N        -19.2100   -1.6780   22.8400 N.am  733  ASP733     -0.1974
    189  CA       -20.0560   -0.5560   23.3140 C.3   733  ASP733      0.1709
    190  C        -21.5260   -0.9310   23.2910 C.2   733  ASP733      0.2293
    191  O        -21.9510   -1.7030   22.4510 O.2   733  ASP733     -0.2864
    192  CB       -19.8890    0.6760   22.4080 C.3   733  ASP733      0.1436
    193  CG       -18.6870    1.5220   22.7600 C.2   733  ASP733      0.3671
    194  OD1      -18.3750    1.6650   23.9670 O.co2 733  ASP733     -0.2456
    195  OD2      -18.0570    2.0750   21.8300 O.co2 733  ASP733     -0.2456
    196  N        -24.5370    2.4490   34.5250 N.3   807  LYS807     -0.1245
    197  CA       -24.6560    2.1250   33.1010 C.3   807  LYS807      0.1561
    198  C        -25.5850    0.9150   32.8090 C.2   807  LYS807      0.2260
    199  O        -25.2330   -0.0100   32.0890 O.2   807  LYS807     -0.2867
    200  CB       -23.2470    1.9210   32.4850 C.3   807  LYS807      0.0271
    201  CG       -22.3400    3.1420   32.5850 C.3   807  LYS807      0.0035
    202  CD       -22.9130    4.3190   31.8120 C.3   807  LYS807      0.0206
    203  CE       -21.9260    5.4730   31.7960 C.3   807  LYS807      0.1093
    204  NZ       -22.3120    6.5710   30.8670 N.3   807  LYS807     -0.1314
    205  N        -22.8100   -0.5010   29.0610 N.3   827  ASP827     -0.1239
    206  CA       -21.5180    0.1840   28.9860 C.3   827  ASP827      0.1674
    207  C        -20.6310   -0.4420   30.0430 C.2   827  ASP827      0.2266
    208  O        -20.5370    0.0440   31.1870 O.2   827  ASP827     -0.2867
    209  CB       -21.7010    1.6940   29.2010 C.3   827  ASP827      0.1410
    210  CG       -20.4160    2.4970   28.9760 C.2   827  ASP827      0.3668
    211  OD1      -19.4530    1.9850   28.3600 O.co2 827  ASP827     -0.2456
    212  OD2      -20.3780    3.6610   29.4360 O.co2 827  ASP827     -0.2456
    213  N        -17.4340   -0.9650   30.5690 N.3   829  TYR829     -0.1241
    214  CA       -16.0120   -0.5920   30.6240 C.3   829  TYR829      0.1605
    215  C        -15.3900   -0.7760   32.0100 C.2   829  TYR829      0.2264
    216  O        -14.1800   -0.9460   32.1240 O.2   829  TYR829     -0.2867
    217  CB       -15.8320    0.8770   30.2240 C.3   829  TYR829      0.0534
    218  CG       -16.3610    1.8280   31.2830 C.ar  829  TYR829     -0.0201
    219  CD1      -17.7370    1.9700   31.4880 C.ar  829  TYR829     -0.0009
    220  CD2      -15.4900    2.5590   32.1000 C.ar  829  TYR829     -0.0009
    221  CE1      -18.2360    2.8060   32.4680 C.ar  829  TYR829      0.0417
    222  CE2      -15.9830    3.4150   33.0860 C.ar  829  TYR829      0.0417
    223  CZ       -17.3550    3.5230   33.2670 C.ar  829  TYR829      0.1957
    224  OH       -17.8770    4.3680   34.2280 O.3   829  TYR829     -0.2866
@<TRIPOS>BOND
     1   171   172    2
     2   171   170    1
     3   169   170    1
     4   170   173    1
     5   173   174    1
     6   174   175    1
     7   163   164    2
     8   163   162    1
     9   153   154    1
    10   162   161    1
    11   162   165    1
    12   156   155    2
    13   175   177   ar
    14   175   176   ar
    15   161   155   am
    16   155   154    1
    17   154   157    1
    18   165   166    1
    19   168   167    1
    20   167   166    1
    21   118   115    1
    22   118   119    1
    23   157   158    1
    24   114   115    1
    25   115   116    1
    26   107   108    1
    27   120   119    2
    28   119   121   am
    29   158   159   ar
    30   158   160   ar
    31   108   109    1
    32   108   111    1
    33   109   110    2
    34   178   179    1
    35   185   187   ar
    36   185   183   ar
    37   116   117    2
    38   116   122   am
    39   187   186   ar
    40   195   193   ar
    41   192   193    1
    42   192   189    1
    43   191   190    2
    44    98    97    1
    45   111   113    1
    46   111   112    1
    47   122   123    1
    48   193   194   ar
    49   183   182    1
    50   183   184   ar
    51   188   189    1
    52   188   180   am
    53   179   182    1
    54   179   180    1
    55    95    97   ar
    56    95    93   ar
    57   186   184   ar
    58   190   189    1
    59    97    96   ar
    60   180   181    2
    61    93    92   ar
    62   123   126    1
    63   123   124    1
    64   126   127    1
    65   125   124    2
    66    96    94   ar
    67   128   127   ar
    68   128   130   ar
    69    92    94   ar
    70    92    91    1
    71   127   129   ar
    72   137   136    1
    73   130   131   ar
    74   136   133    1
    75    91    88    1
    76    86    85   ar
    77    86    84   ar
    78    85    83   ar
    79    88    87    1
    80    88    89    1
    81   129   131   ar
    82    84    82   ar
    83    83    80   ar
    84   147   148   ar
    85   147   145   ar
    86    76    75    2
    87    82    80   ar
    88    82    81   ar
    89    80    78   ar
    90   133   132    1
    91   133   134    1
    92    90    89    2
    93   148   146   ar
    94    89    99   am
    95    81    79   ar
    96    78    77    1
    97    78    79   ar
    98    77    74    1
    99   145   143   ar
   100    75    74    1
   101   211   210   ar
   102    99   100    1
   103   134   135    2
   104   134   138   am
   105    74    73    1
   106   210   209    1
   107   210   212   ar
   108   146   144   ar
   109   206   205    1
   110   206   209    1
   111   206   207    1
   112   101   100    1
   113   101   102    2
   114   143   144   ar
   115   143   142    1
   116   100   103    1
   117   138   139    1
   118   207   208    2
   119    72    70   ar
   120   217   214    1
   121   217   218    1
   122   142   139    1
   123   213   214    1
   124   214   215    1
   125   139   140    1
   126    70    69    1
   127    70    71   ar
   128    69    66    1
   129   204   203    1
   130   103   104    1
   131   105   104   ar
   132    68    67    2
   133    65    66    1
   134   218   219   ar
   135   218   220   ar
   136   104   106   ar
   137    64    62   am
   138   219   221   ar
   139   140   149   am
   140   140   141    2
   141   149   150    1
   142   203   202    1
   143    66    67    1
   144   202   201    1
   145   151   152    2
   146   151   150    1
   147   215   216    2
   148   199   198    2
   149   220   222   ar
   150    60    59    2
   151    62    61    1
   152    62    63    2
   153    61    58    1
   154   221   223   ar
   155   200   201    1
   156   200   197    1
   157   198   197    1
   158   222   223   ar
   159   197   196    1
   160    23    24   ar
   161    23    21   ar
   162   223   224    1
   163    26    24   ar
   164    26    28   ar
   165    57    58    1
   166    59    58    1
   167    24    22   ar
   168    21    20   ar
   169    28    27   ar
   170    56    54    1
   171    22    20   ar
   172    22    25   ar
   173    43    44   ar
   174    43    41   ar
   175    46    44   ar
   176    46    48   ar
   177    20    19    1
   178    44    42   ar
   179    27    25   ar
   180    41    40   ar
   181    48    47   ar
   182    53    54    1
   183    53    50    1
   184    54    55    1
   185    42    40   ar
   186    42    45   ar
   187    40    39    1
   188    47    45   ar
   189    19    16    1
   190    39    36    1
   191     9     7   ar
   192     9    10   ar
   193    50    49    1
   194    50    51    1
   195     7     6   ar
   196    17    16    1
   197    17    18    2
   198    16    15    1
   199    10    12   ar
   200    10     8   ar
   201    12    14   ar
   202    51    52    2
   203    36    37    1
   204    36    35    1
   205    38    37    2
   206     6     8   ar
   207     6     5    1
   208     8    11   ar
   209    14    13   ar
   210     5     2    1
   211     4     3    2
   212    32    31    2
   213    11    13   ar
   214     3     2    1
   215     2     1    1
   216    31    30    1
   217    29    30    1
   218    33    30    1
   219    33    34    1
