@<TRIPOS>MOLECULE
tmp/2ya1A01.pdb
 165 160 0 0 0
SMALL
GASTEIGER

@<TRIPOS>ATOM
      1  N        -12.1680   13.4550   29.5620 N.3   581  PHE581     -0.1241
      2  CA       -12.1050   12.5850   30.7490 C.3   581  PHE581      0.1605
      3  C        -10.8430   12.7970   31.6010 C.2   581  PHE581      0.2264
      4  O        -10.2910   11.8480   32.1580 O.2   581  PHE581     -0.2867
      5  CB       -12.2510   11.1070   30.3510 C.3   581  PHE581      0.0534
      6  CG       -13.3800   10.8550   29.3990 C.ar  581  PHE581     -0.0203
      7  CD1      -14.6800   10.7050   29.8670 C.ar  581  PHE581     -0.0042
      8  CD2      -13.1510   10.7770   28.0310 C.ar  581  PHE581     -0.0042
      9  CE1      -15.7290   10.4660   28.9830 C.ar  581  PHE581     -0.0003
     10  CE2      -14.1880   10.5620   27.1440 C.ar  581  PHE581     -0.0003
     11  CZ       -15.4770   10.4020   27.6210 C.ar  581  PHE581     -0.0000
     12  N        -12.4750    6.3150   18.3510 N.3   617  MET617     -0.1245
     13  CA       -12.8760    7.7010   18.0450 C.3   617  MET617      0.1570
     14  C        -11.9800    8.3240   16.9680 C.2   617  MET617      0.2261
     15  O        -11.3130    9.3420   17.1890 O.2   617  MET617     -0.2867
     16  CB       -12.9390    8.5620   19.3270 C.3   617  MET617      0.0387
     17  CG       -13.9100    8.0390   20.4470 C.3   617  MET617      0.0595
     18  SD       -15.6730    7.9570   19.9660 S.3   617  MET617     -0.1393
     19  CE       -16.0730    9.6930   19.7640 C.3   617  MET617      0.0692
     20  N        -13.8530    4.1090   14.1930 N.3   645  GLU645     -0.1245
     21  CA       -15.0560    4.8700   14.5070 C.3   645  GLU645      0.1567
     22  C        -14.9980    6.2250   13.8330 C.2   645  GLU645      0.2260
     23  O        -14.3130    7.1370   14.3090 O.2   645  GLU645     -0.2867
     24  CB       -15.1790    5.0970   16.0150 C.3   645  GLU645      0.0388
     25  CG       -15.3590    3.8400   16.8470 C.3   645  GLU645      0.1160
     26  CD       -15.7230    4.1630   18.2770 C.2   645  GLU645      0.3649
     27  OE1      -14.8220    4.5610   19.0460 O.co2 645  GLU645     -0.2457
     28  OE2      -16.9080    4.0300   18.6320 O.co2 645  GLU645     -0.2457
     29  N        -17.2430    8.5750   13.6830 N.3   647  TRP647     -0.1227
     30  CA       -18.2510    9.5150   14.1440 C.3   647  TRP647      0.1737
     31  C        -17.7420   10.9180   13.9100 C.2   647  TRP647      0.2595
     32  O        -16.5260   11.1310   13.8160 O.2   647  TRP647     -0.2718
     33  CB       -18.5670    9.2960   15.6170 C.3   647  TRP647      0.0564
     34  CG       -18.6540    7.8450   16.0130 C.ar  647  TRP647      0.0003
     35  CD1      -18.0390    7.2540   17.0790 C.ar  647  TRP647      0.0946
     36  CD2      -19.3800    6.8100   15.3400 C.ar  647  TRP647      0.0152
     37  NE1      -18.3360    5.9180   17.1120 N.ar  647  TRP647     -0.2442
     38  CE2      -19.1610    5.6160   16.0580 C.ar  647  TRP647      0.0810
     39  CE3      -20.1800    6.7710   14.1900 C.ar  647  TRP647      0.0012
     40  CZ2      -19.7170    4.3940   15.6680 C.ar  647  TRP647      0.0191
     41  CZ3      -20.7480    5.5470   13.8040 C.ar  647  TRP647      0.0001
     42  CH2      -20.5120    4.3840   14.5400 C.ar  647  TRP647      0.0015
     43  N        -18.6590   11.8750   13.8170 N.am  648  ARG648     -0.1966
     44  CA       -18.2900   13.2410   13.4640 C.3   648  ARG648      0.1729
     45  C        -17.9920   14.0430   14.7140 C.2   648  ARG648      0.2616
     46  O        -18.8390   14.7760   15.2350 O.2   648  ARG648     -0.2715
     47  CB       -19.3610   13.8750   12.5660 C.3   648  ARG648      0.0348
     48  CG       -19.5500   13.0910   11.2500 C.3   648  ARG648      0.0492
     49  CD       -20.4150   13.8420   10.2700 C.3   648  ARG648      0.2205
     50  NE       -20.6440   13.0910    9.0390 N.pl3 648  ARG648     -0.0865
     51  CZ       -21.6240   12.1980    8.8810 C.cat 648  ARG648      0.5346
     52  NH1      -22.4490   11.9210    9.8900 N.pl3 648  ARG648      0.1354
     53  NH2      -21.7730   11.5780    7.7210 N.pl3 648  ARG648      0.1354
     54  N        -16.7600   13.8910   15.1940 N.am  649  THR649     -0.1951
     55  CA       -16.3950   14.3830   16.5080 C.3   649  THR649      0.1897
     56  C        -15.2050   15.3270   16.5250 C.2   649  THR649      0.2313
     57  O        -14.8020   15.7870   17.5920 O.2   649  THR649     -0.2863
     58  CB       -16.1140   13.2140   17.4570 C.3   649  THR649      0.1794
     59  OG1      -15.1480   12.3390   16.8590 O.3   649  THR649     -0.2208
     60  CG2      -17.4020   12.4420   17.7470 C.3   649  THR649      0.0378
     61  N        -23.2040    2.9280   11.4100 N.3   677  ASP677     -0.1239
     62  CA       -24.3600    3.0410   12.2970 C.3   677  ASP677      0.1674
     63  C        -25.7170    3.0210   11.5600 C.2   677  ASP677      0.2266
     64  O        -26.7590    2.7850   12.1750 O.2   677  ASP677     -0.2867
     65  CB       -24.2710    4.2860   13.2110 C.3   677  ASP677      0.1410
     66  CG       -23.9850    5.5670   12.4560 C.2   677  ASP677      0.3668
     67  OD1      -23.4490    5.5080   11.3170 O.co2 677  ASP677     -0.2456
     68  OD2      -24.2800    6.6420   13.0190 O.co2 677  ASP677     -0.2456
     69  N        -26.6940   -0.6720   11.5130 N.3   680  ARG680     -0.1231
     70  CA       -26.8790   -1.0310   12.9160 C.3   680  ARG680      0.1694
     71  C        -28.2030   -0.5000   13.4040 C.2   680  ARG680      0.2592
     72  O        -28.9930   -1.2510   13.9050 O.2   680  ARG680     -0.2718
     73  CB       -25.7330   -0.4750   13.7760 C.3   680  ARG680      0.0321
     74  CG       -26.0030   -0.5410   15.2850 C.3   680  ARG680      0.0489
     75  CD       -25.1040    0.4790   16.0180 C.3   680  ARG680      0.2205
     76  NE       -25.6940    1.8160   16.1450 N.pl3 680  ARG680     -0.0865
     77  CZ       -24.9820    2.9280   16.3370 C.cat 680  ARG680      0.5346
     78  NH1      -23.6620    2.8690   16.3820 N.pl3 680  ARG680      0.1354
     79  NH2      -25.5790    4.1060   16.5010 N.pl3 680  ARG680      0.1354
     80  N        -28.4340    0.8010   13.2400 N.am  681  ASN681     -0.1974
     81  CA       -29.6540    1.4500   13.7430 C.3   681  ASN681      0.1688
     82  C        -30.9170    0.9440   13.0310 C.2   681  ASN681      0.2292
     83  O        -31.9440    0.7190   13.6630 O.2   681  ASN681     -0.2864
     84  CB       -29.5550    2.9820   13.6540 C.3   681  ASN681      0.1181
     85  CG       -28.4860    3.5890   14.6100 C.2   681  ASN681      0.2629
     86  OD1      -28.0230    2.9530   15.5550 O.2   681  ASN681     -0.2716
     87  ND2      -28.1180    4.8430   14.3520 N.am  681  ASN681     -0.0877
     88  N        -27.4270    3.4370   20.1020 N.3   687  TYR687     -0.1228
     89  CA       -27.0710    4.6910   20.7310 C.3   687  TYR687      0.1721
     90  C        -27.4000    5.8530   19.8040 C.2   687  TYR687      0.2437
     91  O        -27.0270    5.8150   18.6250 O.2   687  TYR687     -0.2733
     92  CB       -25.5740    4.6930   21.0420 C.3   687  TYR687      0.0547
     93  CG       -25.0980    5.8780   21.8610 C.ar  687  TYR687     -0.0200
     94  CD1      -25.1450    5.8480   23.2720 C.ar  687  TYR687     -0.0009
     95  CD2      -24.5850    7.0200   21.2350 C.ar  687  TYR687     -0.0009
     96  CE1      -24.6960    6.9610   24.0420 C.ar  687  TYR687      0.0417
     97  CE2      -24.1300    8.1210   21.9750 C.ar  687  TYR687      0.0417
     98  CZ       -24.1830    8.0810   23.3770 C.ar  687  TYR687      0.1957
     99  OH       -23.7330    9.1640   24.0960 O.3   687  TYR687     -0.2866
    100  N        -28.0810    6.8950   20.3340 N.am  688  PRO688     -0.2718
    101  CA       -28.5440    7.0330   21.7250 C.3   688  PRO688      0.1535
    102  C        -30.0090    6.6380   21.9800 C.2   688  PRO688      0.2598
    103  O        -30.6040    7.0840   22.9870 O.2   688  PRO688     -0.2715
    104  CB       -28.3750    8.5320   21.9840 C.3   688  PRO688      0.0310
    105  CG       -28.6350    9.1610   20.6410 C.3   688  PRO688      0.0237
    106  CD       -28.1560    8.1780   19.6010 C.3   688  PRO688      0.0939
    107  N        -30.5830    5.8120   21.0950 N.am  689  ASN689     -0.1973
    108  CA       -32.0110    5.4770   21.1630 C.3   689  ASN689      0.1688
    109  C        -32.2180    3.9750   21.1430 C.2   689  ASN689      0.2292
    110  O        -33.0200    3.4260   20.3510 O.2   689  ASN689     -0.2864
    111  CB       -32.7810    6.1470   20.0300 C.3   689  ASN689      0.1181
    112  CG       -32.5730    7.6470   19.9960 C.2   689  ASN689      0.2629
    113  OD1      -32.9390    8.3630   20.9320 O.2   689  ASN689     -0.2716
    114  ND2      -31.9740    8.1300   18.9140 N.am  689  ASN689     -0.0877
    115  N        -26.2710    7.6160    5.2820 N.3   716  ASN716     -0.1240
    116  CA       -25.8200    8.7420    6.0880 C.3   716  ASN716      0.1653
    117  C        -24.3770    9.2290    5.8110 C.2   716  ASN716      0.2266
    118  O        -23.9620   10.2690    6.3200 O.2   716  ASN716     -0.2867
    119  CB       -26.1010    8.4830    7.5800 C.3   716  ASN716      0.1155
    120  CG       -25.2820    7.3180    8.1590 C.2   716  ASN716      0.2627
    121  OD1      -24.9890    6.3400    7.4780 O.2   716  ASN716     -0.2716
    122  ND2      -24.9240    7.4330    9.4320 N.am  716  ASN716     -0.0877
    123  N        -19.2100   -1.6780   22.8400 N.3   733  ASP733     -0.1225
    124  CA       -20.0560   -0.5560   23.3140 C.3   733  ASP733      0.1805
    125  C        -21.5260   -0.9310   23.2910 C.2   733  ASP733      0.2597
    126  O        -21.9510   -1.7030   22.4510 O.2   733  ASP733     -0.2718
    127  CB       -19.8890    0.6760   22.4080 C.3   733  ASP733      0.1424
    128  CG       -18.6870    1.5220   22.7600 C.2   733  ASP733      0.3668
    129  OD1      -18.3750    1.6650   23.9670 O.co2 733  ASP733     -0.2456
    130  OD2      -18.0570    2.0750   21.8300 O.co2 733  ASP733     -0.2456
    131  N        -22.3130   -0.3620   24.1970 N.am  734  ASN734     -0.1974
    132  CA       -23.7610   -0.4830   24.1130 C.3   734  ASN734      0.1688
    133  C        -24.2380   -1.8980   24.4960 C.2   734  ASN734      0.2292
    134  O        -23.4420   -2.7440   24.9100 O.2   734  ASN734     -0.2864
    135  CB       -24.2640   -0.0500   22.7240 C.3   734  ASN734      0.1181
    136  CG       -23.8180    1.3580   22.3550 C.2   734  ASN734      0.2629
    137  OD1      -24.1280    2.3370   23.0670 O.2   734  ASN734     -0.2716
    138  ND2      -23.0610    1.4740   21.2570 N.am  734  ASN734     -0.0877
    139  N        -24.5370    2.4490   34.5250 N.3   807  LYS807     -0.1245
    140  CA       -24.6560    2.1250   33.1010 C.3   807  LYS807      0.1561
    141  C        -25.5850    0.9150   32.8090 C.2   807  LYS807      0.2260
    142  O        -25.2330   -0.0100   32.0890 O.2   807  LYS807     -0.2867
    143  CB       -23.2470    1.9210   32.4850 C.3   807  LYS807      0.0271
    144  CG       -22.3400    3.1420   32.5850 C.3   807  LYS807      0.0035
    145  CD       -22.9130    4.3190   31.8120 C.3   807  LYS807      0.0206
    146  CE       -21.9260    5.4730   31.7960 C.3   807  LYS807      0.1093
    147  NZ       -22.3120    6.5710   30.8670 N.3   807  LYS807     -0.1314
    148  N        -25.1280   -1.6340   29.6890 N.3   826  HIS826     -0.1226
    149  CA       -25.0060   -1.2150   28.3020 C.3   826  HIS826      0.1752
    150  C        -23.6760   -0.5140   28.0460 C.2   826  HIS826      0.2596
    151  O        -23.4460    0.0190   26.9600 O.2   826  HIS826     -0.2718
    152  CB       -26.1940   -0.3110   27.9130 C.3   826  HIS826      0.0759
    153  CG       -26.2070    1.0170   28.6130 C.ar  826  HIS826      0.0818
    154  ND1      -27.0670    1.3060   29.6570 N.ar  826  HIS826     -0.2268
    155  CD2      -25.4560    2.1250   28.4260 C.ar  826  HIS826      0.1154
    156  CE1      -26.8540    2.5440   30.0680 C.ar  826  HIS826      0.1986
    157  NE2      -25.8830    3.0620   29.3370 N.ar  826  HIS826     -0.2212
    158  N        -22.8100   -0.5010   29.0610 N.am  827  ASP827     -0.1974
    159  CA       -21.5180    0.1840   28.9860 C.3   827  ASP827      0.1709
    160  C        -20.6310   -0.4420   30.0430 C.2   827  ASP827      0.2293
    161  O        -20.5370    0.0440   31.1870 O.2   827  ASP827     -0.2864
    162  CB       -21.7010    1.6940   29.2010 C.3   827  ASP827      0.1436
    163  CG       -20.4160    2.4970   28.9760 C.2   827  ASP827      0.3671
    164  OD1      -19.4530    1.9850   28.3600 O.co2 827  ASP827     -0.2456
    165  OD2      -20.3780    3.6610   29.4360 O.co2 827  ASP827     -0.2456
@<TRIPOS>BOND
     1   115   116    1
     2   117   116    1
     3   117   118    2
     4   116   119    1
     5   121   120    2
     6   119   120    1
     7    53    51    1
     8   120   122   am
     9    51    50    2
    10    51    52    1
    11    50    49    1
    12    49    48    1
    13    48    47    1
    14    67    66   ar
    15    61    62    1
    16    69    70    1
    17    63    64    2
    18    63    62    1
    19    62    65    1
    20    66    68   ar
    21    66    65    1
    22    47    44    1
    23    70    71    1
    24    70    73    1
    25    82    83    2
    26    82    81    1
    27    80    71   am
    28    80    81    1
    29    71    72    2
    30    44    43    1
    31    44    45    1
    32    84    81    1
    33    84    85    1
    34    29    30    1
    35    73    74    1
    36    41    39   ar
    37    41    42   ar
    38    32    31    2
    39    43    31   am
    40    22    23    2
    41    22    21    1
    42    31    30    1
    43    30    33    1
    44    39    36   ar
    45    20    21    1
    46    87    85   am
    47    21    24    1
    48    42    40   ar
    49    85    86    2
    50    45    54   am
    51    45    46    2
    52    54    55    1
    53    74    75    1
    54    36    34   ar
    55    36    38   ar
    56    33    34    1
    57    40    38   ar
    58    34    35   ar
    59    24    25    1
    60    75    76    1
    61    38    37   ar
    62    76    77    2
    63    77    78    1
    64    77    79    1
    65    55    56    1
    66    55    58    1
    67    56    57    2
    68    25    26    1
    69    59    58    1
    70    14    15    2
    71    14    13    1
    72    35    37   ar
    73    58    60    1
    74    13    12    1
    75    13    16    1
    76    26    28   ar
    77    26    27   ar
    78    91    90    2
    79   114   112   am
    80    16    17    1
    81   106   100    1
    82   106   105    1
    83    19    18    1
    84    90   100   am
    85    90    89    1
    86    18    17    1
    87   112   111    1
    88   112   113    2
    89   111   108    1
    90    88    89    1
    91   100   101    1
    92   110   109    2
    93   105   104    1
    94    89    92    1
    95    92    93    1
    96   107   108    1
    97   107   102   am
    98   109   108    1
    99    95    93   ar
   100    95    97   ar
   101   138   136   am
   102   101   102    1
   103   101   104    1
   104   130   128   ar
   105    93    94   ar
   106    97    98   ar
   107   102   103    2
   108   136   135    1
   109   136   137    2
   110   127   128    1
   111   127   124    1
   112   126   125    2
   113   135   132    1
   114   128   129   ar
   115   123   124    1
   116    94    96   ar
   117   125   124    1
   118   125   131   am
   119    98    96   ar
   120    98    99    1
   121   132   131    1
   122   132   133    1
   123   133   134    2
   124   151   150    2
   125    10    11   ar
   126    10     8   ar
   127    11     9   ar
   128   152   149    1
   129   152   153    1
   130     8     6   ar
   131   150   149    1
   132   150   158   am
   133   149   148    1
   134   164   163   ar
   135   155   153   ar
   136   155   157   ar
   137   153   154   ar
   138   163   162    1
   139   163   165   ar
   140     9     7   ar
   141   159   158    1
   142   159   162    1
   143   159   160    1
   144   157   156   ar
   145     6     7   ar
   146     6     5    1
   147     1     2    1
   148   154   156   ar
   149   160   161    2
   150     5     2    1
   151     2     3    1
   152   147   146    1
   153     3     4    2
   154   146   145    1
   155   145   144    1
   156   142   141    2
   157   143   144    1
   158   143   140    1
   159   141   140    1
   160   140   139    1
