@<TRIPOS>MOLECULE
tmp/2ya1A02.pdb
 106 105 0 0 0
SMALL
GASTEIGER

@<TRIPOS>ATOM
      1  N        -33.5790   55.9400   41.9570 N.3   133  TRP133     -0.1227
      2  CA       -34.6750   56.4720   41.1520 C.3   133  TRP133      0.1737
      3  C        -34.6620   55.7040   39.8400 C.2   133  TRP133      0.2595
      4  O        -33.6540   55.6830   39.1340 O.2   133  TRP133     -0.2718
      5  CB       -34.4740   57.9670   40.8830 C.3   133  TRP133      0.0564
      6  CG       -35.6080   58.6080   40.1260 C.ar  133  TRP133      0.0003
      7  CD1      -35.7810   58.6500   38.7590 C.ar  133  TRP133      0.0946
      8  CD2      -36.7230   59.2950   40.6890 C.ar  133  TRP133      0.0152
      9  NE1      -36.9450   59.3130   38.4450 N.ar  133  TRP133     -0.2442
     10  CE2      -37.5410   59.7270   39.6090 C.ar  133  TRP133      0.0810
     11  CE3      -37.1100   59.6000   41.9970 C.ar  133  TRP133      0.0012
     12  CZ2      -38.7230   60.4420   39.8060 C.ar  133  TRP133      0.0191
     13  CZ3      -38.2930   60.3020   42.1910 C.ar  133  TRP133      0.0001
     14  CH2      -39.0870   60.7160   41.0950 C.ar  133  TRP133      0.0015
     15  N        -35.7700   55.0470   39.5170 N.am  134  TYR134     -0.1962
     16  CA       -35.7680   54.1240   38.3780 C.3   134  TYR134      0.1771
     17  C        -37.0250   54.1720   37.5090 C.2   134  TYR134      0.2620
     18  O        -38.1050   54.5920   37.9410 O.2   134  TYR134     -0.2715
     19  CB       -35.4810   52.6800   38.8390 C.3   134  TYR134      0.0574
     20  CG       -36.4880   52.0790   39.7990 C.ar  134  TYR134     -0.0198
     21  CD1      -36.3570   52.2510   41.1770 C.ar  134  TYR134     -0.0009
     22  CD2      -37.5470   51.2970   39.3300 C.ar  134  TYR134     -0.0009
     23  CE1      -37.2710   51.6800   42.0710 C.ar  134  TYR134      0.0417
     24  CE2      -38.4700   50.7160   40.2120 C.ar  134  TYR134      0.0417
     25  CZ       -38.3270   50.9150   41.5780 C.ar  134  TYR134      0.1957
     26  OH       -39.2370   50.3570   42.4640 O.3   134  TYR134     -0.2866
     27  N        -36.8640   53.6960   36.2870 N.am  135  TRP135     -0.1960
     28  CA       -37.9470   53.6500   35.3380 C.3   135  TRP135      0.1771
     29  C        -37.6290   52.5850   34.3030 C.2   135  TRP135      0.2620
     30  O        -36.5040   52.0500   34.2620 O.2   135  TRP135     -0.2715
     31  CB       -38.0790   55.0030   34.6520 C.3   135  TRP135      0.0590
     32  CG       -36.8670   55.3710   33.8900 C.ar  135  TRP135      0.0006
     33  CD1      -36.6350   55.1560   32.5590 C.ar  135  TRP135      0.0946
     34  CD2      -35.6980   56.0150   34.3990 C.ar  135  TRP135      0.0152
     35  NE1      -35.3920   55.6290   32.2060 N.ar  135  TRP135     -0.2442
     36  CE2      -34.7980   56.1680   33.3190 C.ar  135  TRP135      0.0810
     37  CE3      -35.3200   56.4840   35.6620 C.ar  135  TRP135      0.0012
     38  CZ2      -33.5450   56.7660   33.4740 C.ar  135  TRP135      0.0191
     39  CZ3      -34.0710   57.0730   35.8040 C.ar  135  TRP135      0.0001
     40  CH2      -33.2040   57.2020   34.7240 C.ar  135  TRP135      0.0015
     41  N        -38.6160   52.3120   33.4540 N.am  136  GLY136     -0.1954
     42  CA       -38.4790   51.3620   32.3580 C.3   136  GLY136      0.1869
     43  C        -39.4150   50.1800   32.5170 C.2   136  GLY136      0.2309
     44  O        -40.5550   50.3390   32.9910 O.2   136  GLY136     -0.2863
     45  N        -40.3510   54.9790   39.8380 N.3   142  SER142     -0.1217
     46  CA       -40.3090   56.0550   40.8240 C.3   142  SER142      0.1889
     47  C        -41.3860   57.0800   40.4550 C.2   142  SER142      0.2288
     48  O        -41.3860   57.6160   39.3460 O.2   142  SER142     -0.2866
     49  CB       -38.9200   56.7030   40.8650 C.3   142  SER142      0.2089
     50  OG       -37.8830   55.7430   41.0060 O.3   142  SER142     -0.2183
     51  N        -39.5430   63.9030   43.3100 N.3   146  TRP146     -0.1241
     52  CA       -38.1000   63.9880   43.1460 C.3   146  TRP146      0.1605
     53  C        -37.4640   64.8780   44.2210 C.2   146  TRP146      0.2264
     54  O        -37.9070   66.0120   44.4130 O.2   146  TRP146     -0.2867
     55  CB       -37.7630   64.5420   41.7500 C.3   146  TRP146      0.0550
     56  CG       -36.3080   64.8840   41.6230 C.ar  146  TRP146      0.0003
     57  CD1      -35.7090   66.0570   41.9710 C.ar  146  TRP146      0.0946
     58  CD2      -35.2640   64.0160   41.1820 C.ar  146  TRP146      0.0152
     59  NE1      -34.3670   65.9900   41.7380 N.ar  146  TRP146     -0.2442
     60  CE2      -34.0600   64.7430   41.2630 C.ar  146  TRP146      0.0810
     61  CE3      -35.2310   62.6960   40.7110 C.ar  146  TRP146      0.0012
     62  CZ2      -32.8300   64.1990   40.8920 C.ar  146  TRP146      0.0191
     63  CZ3      -34.0110   62.1590   40.3460 C.ar  146  TRP146      0.0001
     64  CH2      -32.8250   62.9130   40.4340 C.ar  146  TRP146      0.0015
     65  N        -31.1130   56.1730   38.3480 N.3   176  LEU176     -0.1245
     66  CA       -30.1560   57.0880   38.9490 C.3   176  LEU176      0.1561
     67  C        -29.8680   56.6970   40.3950 C.2   176  LEU176      0.2260
     68  O        -30.7850   56.4220   41.1730 O.2   176  LEU176     -0.2867
     69  CB       -30.6490   58.5410   38.8580 C.3   176  LEU176      0.0270
     70  CG       -30.5220   59.1770   37.4620 C.3   176  LEU176      0.0019
     71  CD1      -31.5180   60.3300   37.2610 C.3   176  LEU176      0.0001
     72  CD2      -29.0680   59.6180   37.1540 C.3   176  LEU176      0.0001
     73  N        -28.8980   69.4010   41.6710 N.3   185  ASP185     -0.1239
     74  CA       -28.2390   68.4180   40.7990 C.3   185  ASP185      0.1674
     75  C        -27.2990   67.4980   41.5790 C.2   185  ASP185      0.2266
     76  O        -27.0880   66.3600   41.1840 O.2   185  ASP185     -0.2867
     77  CB       -27.4380   69.0910   39.6720 C.3   185  ASP185      0.1410
     78  CG       -28.3100   69.5850   38.4930 C.2   185  ASP185      0.3668
     79  OD1      -29.5140   69.2810   38.3940 O.co2 185  ASP185     -0.2456
     80  OD2      -27.7570   70.2800   37.6240 O.co2 185  ASP185     -0.2456
     81  N        -27.6960   63.7190   42.3710 N.3   188  LYS188     -0.1245
     82  CA       -27.3140   62.6440   41.4620 C.3   188  LYS188      0.1561
     83  C        -25.8460   62.3320   41.6480 C.2   188  LYS188      0.2260
     84  O        -24.9710   63.2030   41.5070 O.2   188  LYS188     -0.2867
     85  CB       -27.5740   63.0030   40.0170 C.3   188  LYS188      0.0271
     86  CG       -29.0190   63.2540   39.6720 C.3   188  LYS188      0.0035
     87  CD       -29.0740   63.9370   38.2940 C.3   188  LYS188      0.0206
     88  CE       -30.4660   64.4280   37.9750 C.3   188  LYS188      0.1093
     89  NZ       -30.5950   64.7720   36.5400 N.3   188  LYS188     -0.1314
     90  N        -27.9050   59.5600   33.1710 N.3   193  ASN193     -0.1240
     91  CA       -28.6750   58.3360   33.4350 C.3   193  ASN193      0.1653
     92  C        -27.8260   57.0520   33.2990 C.2   193  ASN193      0.2266
     93  O        -26.8740   57.0020   32.5010 O.2   193  ASN193     -0.2867
     94  CB       -29.8700   58.2210   32.4740 C.3   193  ASN193      0.1155
     95  CG       -30.9620   59.2730   32.7140 C.2   193  ASN193      0.2627
     96  OD1      -31.0820   59.8620   33.7890 O.2   193  ASN193     -0.2716
     97  ND2      -31.7790   59.4880   31.6990 N.am  193  ASN193     -0.0877
     98  N        -28.4520   53.1200   32.0260 N.3   195  LYS195     -0.1245
     99  CA       -29.4290   52.1930   31.3910 C.3   195  LYS195      0.1561
    100  C        -28.9040   50.7670   31.3900 C.2   195  LYS195      0.2260
    101  O        -27.7960   50.5030   30.9090 O.2   195  LYS195     -0.2867
    102  CB       -29.8110   52.5590   29.9330 C.3   195  LYS195      0.0271
    103  CG       -29.3600   53.9200   29.3910 C.3   195  LYS195      0.0035
    104  CD       -30.2300   55.1270   29.8760 C.3   195  LYS195      0.0206
    105  CE       -30.4090   56.2070   28.7770 C.3   195  LYS195      0.1093
    106  NZ       -30.7620   57.6060   29.2570 N.3   195  LYS195     -0.1314
@<TRIPOS>BOND
     1   105   106    1
     2   105   104    1
     3   103   104    1
     4   103   102    1
     5   102    99    1
     6   101   100    2
     7   100    99    1
     8    99    98    1
     9    97    95   am
    10    35    33   ar
    11    35    36   ar
    12    42    43    1
    13    42    41    1
    14    94    95    1
    15    94    91    1
    16    93    92    2
    17    43    44    2
    18    33    32   ar
    19    95    96    2
    20    90    91    1
    21    92    91    1
    22    36    38   ar
    23    36    34   ar
    24    41    29   am
    25    38    40   ar
    26    32    34   ar
    27    32    31    1
    28    30    29    2
    29    29    28    1
    30    34    37   ar
    31    31    28    1
    32    40    39   ar
    33    28    27    1
    34    37    39   ar
    35    27    17   am
    36    89    88    1
    37    72    70    1
    38    71    70    1
    39    70    69    1
    40    17    18    2
    41    17    16    1
    42    80    78   ar
    43    88    87    1
    44    87    86    1
    45    65    66    1
    46    16    19    1
    47    16    15    1
    48    79    78   ar
    49     9     7   ar
    50     9    10   ar
    51    78    77    1
    52     7     6   ar
    53    19    20    1
    54    69    66    1
    55    66    67    1
    56     4     3    2
    57    22    20   ar
    58    22    24   ar
    59    48    47    2
    60    15     3   am
    61    10    12   ar
    62    10     8   ar
    63    77    74    1
    64    86    85    1
    65    20    21   ar
    66    12    14   ar
    67    45    46    1
    68     3     2    1
    69    85    82    1
    70     6     8   ar
    71     6     5    1
    72    24    25   ar
    73    63    64   ar
    74    63    61   ar
    75    67    68    2
    76    64    62   ar
    77    47    46    1
    78     8    11   ar
    79    61    58   ar
    80    74    75    1
    81    74    73    1
    82    46    49    1
    83    49    50    1
    84     5     2    1
    85    62    60   ar
    86    14    13   ar
    87     2     1    1
    88    21    23   ar
    89    58    60   ar
    90    58    56   ar
    91    76    75    2
    92    60    59   ar
    93    82    83    1
    94    82    81    1
    95    84    83    2
    96    25    23   ar
    97    25    26    1
    98    56    55    1
    99    56    57   ar
   100    59    57   ar
   101    55    52    1
   102    11    13   ar
   103    52    51    1
   104    52    53    1
   105    53    54    2
