@<TRIPOS>MOLECULE
tmp/2ya2A00.pdb
 121 118 0 0 0
SMALL
GASTEIGER

@<TRIPOS>ATOM
      1  N         46.9470   18.5160   28.1840 N.3   230  TRP230     -0.1241
      2  CA        45.7290   18.0830   27.5290 C.3   230  TRP230      0.1605
      3  C         45.8500   16.6300   27.0450 C.2   230  TRP230      0.2264
      4  O         44.8790   15.9090   27.0870 O.2   230  TRP230     -0.2867
      5  CB        45.3360   18.9530   26.3420 C.3   230  TRP230      0.0550
      6  CG        44.5960   20.1970   26.6550 C.ar  230  TRP230      0.0003
      7  CD1       43.9060   20.4940   27.7960 C.ar  230  TRP230      0.0946
      8  CD2       44.3980   21.3050   25.7690 C.ar  230  TRP230      0.0152
      9  NE1       43.3360   21.7530   27.6930 N.ar  230  TRP230     -0.2442
     10  CE2       43.6270   22.2660   26.4590 C.ar  230  TRP230      0.0810
     11  CE3       44.8130   21.5850   24.4640 C.ar  230  TRP230      0.0012
     12  CZ2       43.2760   23.4820   25.8890 C.ar  230  TRP230      0.0191
     13  CZ3       44.5020   22.8020   23.9200 C.ar  230  TRP230      0.0001
     14  CH2       43.7170   23.7230   24.6170 C.ar  230  TRP230      0.0015
     15  N         47.6580   15.5780   23.9600 N.3   232  TYR232     -0.1241
     16  CA        47.8250   15.5230   22.5150 C.3   232  TYR232      0.1605
     17  C         49.2900   15.2270   22.0890 C.2   232  TYR232      0.2264
     18  O         49.7400   15.7300   21.0780 O.2   232  TYR232     -0.2867
     19  CB        47.2970   16.8290   21.9000 C.3   232  TYR232      0.0534
     20  CG        45.7980   16.9850   22.0520 C.ar  232  TYR232     -0.0201
     21  CD1       44.9100   16.1670   21.3270 C.ar  232  TYR232     -0.0009
     22  CD2       45.2510   17.9330   22.9210 C.ar  232  TYR232     -0.0009
     23  CE1       43.5410   16.2820   21.4750 C.ar  232  TYR232      0.0417
     24  CE2       43.8470   18.0640   23.0610 C.ar  232  TYR232      0.0417
     25  CZ        43.0130   17.2230   22.3370 C.ar  232  TYR232      0.1957
     26  OH        41.6350   17.3070   22.4520 O.3   232  TYR232     -0.2866
     27  N         49.3650   11.7920   14.7710 N.3   280  HIS280     -0.1241
     28  CA        50.7690   11.9860   15.1530 C.3   280  HIS280      0.1621
     29  C         51.1260   11.3300   16.4820 C.2   280  HIS280      0.2264
     30  O         50.2690   11.1590   17.3660 O.2   280  HIS280     -0.2867
     31  CB        51.1260   13.4870   15.1560 C.3   280  HIS280      0.0745
     32  CG        50.6830   14.2250   16.3840 C.ar  280  HIS280      0.0817
     33  ND1       51.4870   14.3630   17.4930 N.ar  280  HIS280     -0.2268
     34  CD2       49.5370   14.8850   16.6700 C.ar  280  HIS280      0.1154
     35  CE1       50.8500   15.0690   18.4170 C.ar  280  HIS280      0.1986
     36  NE2       49.6610   15.3920   17.9440 N.ar  280  HIS280     -0.2212
     37  N         53.7380   18.2700   15.2270 N.3   308  PHE308     -0.1241
     38  CA        53.8180   18.5220   16.6750 C.3   308  PHE308      0.1605
     39  C         54.9860   17.7890   17.3750 C.2   308  PHE308      0.2264
     40  O         54.8320   17.2480   18.4770 O.2   308  PHE308     -0.2867
     41  CB        52.4570   18.2540   17.3750 C.3   308  PHE308      0.0534
     42  CG        51.2940   18.9640   16.7510 C.ar  308  PHE308     -0.0203
     43  CD1       50.9830   20.2850   17.1020 C.ar  308  PHE308     -0.0042
     44  CD2       50.5090   18.3240   15.8140 C.ar  308  PHE308     -0.0042
     45  CE1       49.8940   20.9680   16.5250 C.ar  308  PHE308     -0.0003
     46  CE2       49.3950   18.9850   15.2350 C.ar  308  PHE308     -0.0003
     47  CZ        49.0910   20.3230   15.5910 C.ar  308  PHE308     -0.0000
     48  N         36.1250   10.8280   18.7990 N.3   341  ARG341     -0.1245
     49  CA        36.4100   12.0960   18.1050 C.3   341  ARG341      0.1563
     50  C         37.8480   12.0750   17.5700 C.2   341  ARG341      0.2260
     51  O         38.8080   12.0790   18.3660 O.2   341  ARG341     -0.2867
     52  CB        36.1580   13.3040   19.0140 C.3   341  ARG341      0.0307
     53  CG        36.6890   14.6690   18.4830 C.3   341  ARG341      0.0489
     54  CD        37.9820   15.1500   19.1980 C.3   341  ARG341      0.2205
     55  NE        38.3350   16.5460   18.8970 N.pl3 341  ARG341     -0.0865
     56  CZ        39.5820   17.0270   18.8310 C.cat 341  ARG341      0.5346
     57  NH1       40.6450   16.2470   19.0510 N.pl3 341  ARG341      0.1354
     58  NH2       39.7700   18.3020   18.5520 N.pl3 341  ARG341      0.1354
     59  N         41.1960   13.4870   16.1170 N.3   343  ASP343     -0.1225
     60  CA        41.9740   14.7030   16.1490 C.3   343  ASP343      0.1805
     61  C         42.5010   14.8430   14.7470 C.2   343  ASP343      0.2597
     62  O         42.8860   13.8400   14.1640 O.2   343  ASP343     -0.2718
     63  CB        43.1130   14.5480   17.1570 C.3   343  ASP343      0.1424
     64  CG        44.0250   15.7440   17.2160 C.2   343  ASP343      0.3668
     65  OD1       43.5830   16.8130   17.6940 O.co2 343  ASP343     -0.2456
     66  OD2       45.2140   15.5810   16.8390 O.co2 343  ASP343     -0.2456
     67  N         42.4860   16.0780   14.2190 N.am  344  MET344     -0.1979
     68  CA        42.9690   16.3810   12.8770 C.3   344  MET344      0.1605
     69  C         42.6070   15.2460   11.9280 C.2   344  MET344      0.2287
     70  O         43.5030   14.6180   11.3420 O.2   344  MET344     -0.2864
     71  CB        44.4980   16.5510   12.8440 C.3   344  MET344      0.0413
     72  CG        45.1170   17.2570   14.0150 C.3   344  MET344      0.0598
     73  SD        44.7180   19.0080   14.0270 S.3   344  MET344     -0.1393
     74  CE        45.3950   19.5760   12.4480 C.3   344  MET344      0.0692
     75  N         37.8640   16.4180   13.5170 N.3   372  GLU372     -0.1245
     76  CA        38.2980   17.6870   12.9470 C.3   372  GLU372      0.1567
     77  C         38.4840   17.4830   11.4380 C.2   372  GLU372      0.2260
     78  O         39.3720   16.7500   11.0010 O.2   372  GLU372     -0.2867
     79  CB        39.5940   18.1360   13.6140 C.3   372  GLU372      0.0388
     80  CG        39.4500   18.5300   15.0750 C.3   372  GLU372      0.1160
     81  CD        40.7130   19.1600   15.6000 C.2   372  GLU372      0.3649
     82  OE1       41.6680   18.4140   15.9110 O.co2 372  GLU372     -0.2457
     83  OE2       40.7640   20.3950   15.6930 O.co2 372  GLU372     -0.2457
     84  N         37.6690   23.1260   23.6880 N.3   459  HIS459     -0.1226
     85  CA        38.8250   23.2580   24.5700 C.3   459  HIS459      0.1752
     86  C         39.9050   24.1560   23.9720 C.2   459  HIS459      0.2596
     87  O         40.6340   24.8410   24.6890 O.2   459  HIS459     -0.2718
     88  CB        39.3850   21.8740   24.9020 C.3   459  HIS459      0.0759
     89  CG        39.9970   21.1580   23.7360 C.ar  459  HIS459      0.0818
     90  ND1       41.3320   21.2740   23.4040 N.ar  459  HIS459     -0.2268
     91  CD2       39.4670   20.2920   22.8450 C.ar  459  HIS459      0.1154
     92  CE1       41.5910   20.5180   22.3480 C.ar  459  HIS459      0.1986
     93  NE2       40.4760   19.9030   21.9960 N.ar  459  HIS459     -0.2212
     94  N         40.0030   24.1280   22.6480 N.am  460  ASP460     -0.1974
     95  CA        40.8700   25.0190   21.9280 C.3   460  ASP460      0.1709
     96  C         40.3480   26.4340   21.9570 C.2   460  ASP460      0.2293
     97  O         39.1310   26.6640   22.0030 O.2   460  ASP460     -0.2864
     98  CB        40.9770   24.5750   20.4790 C.3   460  ASP460      0.1436
     99  CG        41.9450   23.4280   20.3040 C.2   460  ASP460      0.3671
    100  OD1       43.0350   23.4850   20.9410 O.co2 460  ASP460     -0.2456
    101  OD2       41.5990   22.4790   19.5470 O.co2 460  ASP460     -0.2456
    102  N         45.3420   28.9840   24.5710 N.3   554  ASP554     -0.1239
    103  CA        45.7600   27.6220   24.2810 C.3   554  ASP554      0.1674
    104  C         46.2500   27.0550   25.5940 C.2   554  ASP554      0.2266
    105  O         47.4250   27.2330   25.9570 O.2   554  ASP554     -0.2867
    106  CB        46.8300   27.5950   23.1660 C.3   554  ASP554      0.1410
    107  CG        47.1630   26.1610   22.6730 C.2   554  ASP554      0.3668
    108  OD1       46.2920   25.2790   22.7630 O.co2 554  ASP554     -0.2456
    109  OD2       48.2920   25.9070   22.1570 O.co2 554  ASP554     -0.2456
    110  N         46.6800   24.0100   26.7760 N.3   556  TYR556     -0.1241
    111  CA        47.2280   22.6510   26.7840 C.3   556  TYR556      0.1605
    112  C         48.3090   22.4090   27.8550 C.2   556  TYR556      0.2264
    113  O         48.5440   21.2360   28.2470 O.2   556  TYR556     -0.2867
    114  CB        47.7650   22.2820   25.3860 C.3   556  TYR556      0.0534
    115  CG        49.1580   22.7930   25.0940 C.ar  556  TYR556     -0.0201
    116  CD1       49.3800   24.1540   24.8150 C.ar  556  TYR556     -0.0009
    117  CD2       50.2690   21.9160   25.0910 C.ar  556  TYR556     -0.0009
    118  CE1       50.6760   24.6540   24.5590 C.ar  556  TYR556      0.0417
    119  CE2       51.5860   22.4130   24.8130 C.ar  556  TYR556      0.0417
    120  CZ        51.7610   23.7820   24.5510 C.ar  556  TYR556      0.1957
    121  OH        53.0100   24.2910   24.2710 O.3   556  TYR556     -0.2866
@<TRIPOS>BOND
     1    78    77    2
     2    70    69    2
     3    77    76    1
     4    69    68    1
     5    74    73    1
     6    71    68    1
     7    71    72    1
     8    68    67    1
     9    76    75    1
    10    76    79    1
    11    79    80    1
    12    72    73    1
    13    62    61    2
    14    67    61   am
    15    61    60    1
    16    27    28    1
    17    80    81    1
    18    28    31    1
    19    28    29    1
    20    31    32    1
    21    37    38    1
    22    46    47   ar
    23    46    44   ar
    24    47    45   ar
    25    81    83   ar
    26    81    82   ar
    27    44    42   ar
    28    59    60    1
    29    60    63    1
    30    32    34   ar
    31    32    33   ar
    32    29    30    2
    33    45    43   ar
    34    34    36   ar
    35    38    39    1
    36    38    41    1
    37    42    43   ar
    38    42    41    1
    39    66    64   ar
    40    63    64    1
    41    64    65   ar
    42    39    40    2
    43    33    35   ar
    44    50    49    1
    45    50    51    2
    46    36    35   ar
    47    49    48    1
    48    49    52    1
    49    53    52    1
    50    53    54    1
    51    58    56    1
    52    56    55    2
    53    56    57    1
    54    55    54    1
    55   101    99   ar
    56    99    98    1
    57    99   100   ar
    58    98    95    1
    59    18    17    2
    60    21    23   ar
    61    21    20   ar
    62    23    25   ar
    63    19    20    1
    64    19    16    1
    65    95    96    1
    66    95    94    1
    67    96    97    2
    68    93    92   ar
    69    93    91   ar
    70    20    22   ar
    71    17    16    1
    72   109   107   ar
    73    25    26    1
    74    25    24   ar
    75    92    90   ar
    76    16    15    1
    77    94    86   am
    78   107   108   ar
    79   107   106    1
    80    91    89   ar
    81    22    24   ar
    82   106   103    1
    83    90    89   ar
    84    84    85    1
    85    89    88    1
    86    13    11   ar
    87    13    14   ar
    88    86    85    1
    89    86    87    2
    90   121   120    1
    91   103   102    1
    92   103   104    1
    93    11     8   ar
    94   120   118   ar
    95   120   119   ar
    96   118   116   ar
    97    85    88    1
    98    14    12   ar
    99   119   117   ar
   100   116   115   ar
   101   117   115   ar
   102   115   114    1
   103   114   111    1
   104   104   105    2
   105     8    10   ar
   106     8     6   ar
   107    12    10   ar
   108     5     6    1
   109     5     2    1
   110    10     9   ar
   111     6     7   ar
   112   110   111    1
   113   111   112    1
   114     3     4    2
   115     3     2    1
   116     2     1    1
   117     9     7   ar
   118   112   113    2
