@<TRIPOS>MOLECULE
tmp/2ya2A01.pdb
 110 109 0 0 0
SMALL
GASTEIGER

@<TRIPOS>ATOM
      1  N         48.6960   18.3820   31.2010 N.3   229  ASN229     -0.1225
      2  CA        48.7530   18.1670   29.7870 C.3   229  ASN229      0.1785
      3  C         47.3480   17.8770   29.2830 C.2   229  ASN229      0.2597
      4  O         46.6200   17.0970   29.9020 O.2   229  ASN229     -0.2718
      5  CB        49.7320   17.0100   29.4610 C.3   229  ASN229      0.1169
      6  CG        50.1880   16.9900   27.9740 C.2   229  ASN229      0.2627
      7  OD1       49.4620   17.4120   27.0420 O.2   229  ASN229     -0.2716
      8  ND2       51.3920   16.4640   27.7570 N.am  229  ASN229     -0.0877
      9  N         46.9470   18.5160   28.1840 N.am  230  TRP230     -0.1976
     10  CA        45.7290   18.0830   27.5290 C.3   230  TRP230      0.1640
     11  C         45.8500   16.6300   27.0450 C.2   230  TRP230      0.2290
     12  O         44.8790   15.9090   27.0870 O.2   230  TRP230     -0.2864
     13  CB        45.3360   18.9530   26.3420 C.3   230  TRP230      0.0576
     14  CG        44.5960   20.1970   26.6550 C.ar  230  TRP230      0.0006
     15  CD1       43.9060   20.4940   27.7960 C.ar  230  TRP230      0.0946
     16  CD2       44.3980   21.3050   25.7690 C.ar  230  TRP230      0.0152
     17  NE1       43.3360   21.7530   27.6930 N.ar  230  TRP230     -0.2442
     18  CE2       43.6270   22.2660   26.4590 C.ar  230  TRP230      0.0810
     19  CE3       44.8130   21.5850   24.4640 C.ar  230  TRP230      0.0012
     20  CZ2       43.2760   23.4820   25.8890 C.ar  230  TRP230      0.0191
     21  CZ3       44.5020   22.8020   23.9200 C.ar  230  TRP230      0.0001
     22  CH2       43.7170   23.7230   24.6170 C.ar  230  TRP230      0.0015
     23  N         47.6580   15.5780   23.9600 N.3   232  TYR232     -0.1227
     24  CA        47.8250   15.5230   22.5150 C.3   232  TYR232      0.1736
     25  C         49.2900   15.2270   22.0890 C.2   232  TYR232      0.2595
     26  O         49.7400   15.7300   21.0780 O.2   232  TYR232     -0.2718
     27  CB        47.2970   16.8290   21.9000 C.3   232  TYR232      0.0548
     28  CG        45.7980   16.9850   22.0520 C.ar  232  TYR232     -0.0200
     29  CD1       44.9100   16.1670   21.3270 C.ar  232  TYR232     -0.0009
     30  CD2       45.2510   17.9330   22.9210 C.ar  232  TYR232     -0.0009
     31  CE1       43.5410   16.2820   21.4750 C.ar  232  TYR232      0.0417
     32  CE2       43.8470   18.0640   23.0610 C.ar  232  TYR232      0.0417
     33  CZ        43.0130   17.2230   22.3370 C.ar  232  TYR232      0.1957
     34  OH        41.6350   17.3070   22.4520 O.3   232  TYR232     -0.2866
     35  N         50.0040   14.3870   22.8530 N.am  233  ASP233     -0.1974
     36  CA        51.3550   13.9270   22.5360 C.3   233  ASP233      0.1709
     37  C         51.3710   12.3960   22.7210 C.2   233  ASP233      0.2293
     38  O         51.9750   11.8940   23.6860 O.2   233  ASP233     -0.2864
     39  CB        52.4060   14.5640   23.4850 C.3   233  ASP233      0.1436
     40  CG        52.2140   16.0860   23.6980 C.2   233  ASP233      0.3671
     41  OD1       52.2690   16.8310   22.7190 O.co2 233  ASP233     -0.2456
     42  OD2       52.0470   16.5540   24.8570 O.co2 233  ASP233     -0.2456
     43  N         49.3650   11.7920   14.7710 N.3   280  HIS280     -0.1241
     44  CA        50.7690   11.9860   15.1530 C.3   280  HIS280      0.1621
     45  C         51.1260   11.3300   16.4820 C.2   280  HIS280      0.2264
     46  O         50.2690   11.1590   17.3660 O.2   280  HIS280     -0.2867
     47  CB        51.1260   13.4870   15.1560 C.3   280  HIS280      0.0745
     48  CG        50.6830   14.2250   16.3840 C.ar  280  HIS280      0.0817
     49  ND1       51.4870   14.3630   17.4930 N.ar  280  HIS280     -0.2268
     50  CD2       49.5370   14.8850   16.6700 C.ar  280  HIS280      0.1154
     51  CE1       50.8500   15.0690   18.4170 C.ar  280  HIS280      0.1986
     52  NE2       49.6610   15.3920   17.9440 N.ar  280  HIS280     -0.2212
     53  N         53.7380   18.2700   15.2270 N.3   308  PHE308     -0.1241
     54  CA        53.8180   18.5220   16.6750 C.3   308  PHE308      0.1605
     55  C         54.9860   17.7890   17.3750 C.2   308  PHE308      0.2264
     56  O         54.8320   17.2480   18.4770 O.2   308  PHE308     -0.2867
     57  CB        52.4570   18.2540   17.3750 C.3   308  PHE308      0.0534
     58  CG        51.2940   18.9640   16.7510 C.ar  308  PHE308     -0.0203
     59  CD1       50.9830   20.2850   17.1020 C.ar  308  PHE308     -0.0042
     60  CD2       50.5090   18.3240   15.8140 C.ar  308  PHE308     -0.0042
     61  CE1       49.8940   20.9680   16.5250 C.ar  308  PHE308     -0.0003
     62  CE2       49.3950   18.9850   15.2350 C.ar  308  PHE308     -0.0003
     63  CZ        49.0910   20.3230   15.5910 C.ar  308  PHE308     -0.0000
     64  N         37.6690   23.1260   23.6880 N.3   459  HIS459     -0.1226
     65  CA        38.8250   23.2580   24.5700 C.3   459  HIS459      0.1752
     66  C         39.9050   24.1560   23.9720 C.2   459  HIS459      0.2596
     67  O         40.6340   24.8410   24.6890 O.2   459  HIS459     -0.2718
     68  CB        39.3850   21.8740   24.9020 C.3   459  HIS459      0.0759
     69  CG        39.9970   21.1580   23.7360 C.ar  459  HIS459      0.0818
     70  ND1       41.3320   21.2740   23.4040 N.ar  459  HIS459     -0.2268
     71  CD2       39.4670   20.2920   22.8450 C.ar  459  HIS459      0.1154
     72  CE1       41.5910   20.5180   22.3480 C.ar  459  HIS459      0.1986
     73  NE2       40.4760   19.9030   21.9960 N.ar  459  HIS459     -0.2212
     74  N         40.0030   24.1280   22.6480 N.am  460  ASP460     -0.1974
     75  CA        40.8700   25.0190   21.9280 C.3   460  ASP460      0.1709
     76  C         40.3480   26.4340   21.9570 C.2   460  ASP460      0.2293
     77  O         39.1310   26.6640   22.0030 O.2   460  ASP460     -0.2864
     78  CB        40.9770   24.5750   20.4790 C.3   460  ASP460      0.1436
     79  CG        41.9450   23.4280   20.3040 C.2   460  ASP460      0.3671
     80  OD1       43.0350   23.4850   20.9410 O.co2 460  ASP460     -0.2456
     81  OD2       41.5990   22.4790   19.5470 O.co2 460  ASP460     -0.2456
     82  N         50.8950   31.7240   25.4170 N.3   534  LYS534     -0.1245
     83  CA        49.5370   31.4980   24.8780 C.3   534  LYS534      0.1561
     84  C         48.4910   32.4310   25.4810 C.2   534  LYS534      0.2260
     85  O         47.3680   31.9880   25.7950 O.2   534  LYS534     -0.2867
     86  CB        49.0850   30.0230   25.0150 C.3   534  LYS534      0.0271
     87  CG        50.1010   28.9780   24.4810 C.3   534  LYS534      0.0035
     88  CD        50.2540   29.0940   22.9750 C.3   534  LYS534      0.0206
     89  CE        51.2160   28.0640   22.4480 C.3   534  LYS534      0.1093
     90  NZ        51.3120   28.1330   20.9720 N.3   534  LYS534     -0.1314
     91  N         45.3420   28.9840   24.5710 N.3   554  ASP554     -0.1239
     92  CA        45.7600   27.6220   24.2810 C.3   554  ASP554      0.1674
     93  C         46.2500   27.0550   25.5940 C.2   554  ASP554      0.2266
     94  O         47.4250   27.2330   25.9570 O.2   554  ASP554     -0.2867
     95  CB        46.8300   27.5950   23.1660 C.3   554  ASP554      0.1410
     96  CG        47.1630   26.1610   22.6730 C.2   554  ASP554      0.3668
     97  OD1       46.2920   25.2790   22.7630 O.co2 554  ASP554     -0.2456
     98  OD2       48.2920   25.9070   22.1570 O.co2 554  ASP554     -0.2456
     99  N         46.6800   24.0100   26.7760 N.3   556  TYR556     -0.1241
    100  CA        47.2280   22.6510   26.7840 C.3   556  TYR556      0.1605
    101  C         48.3090   22.4090   27.8550 C.2   556  TYR556      0.2264
    102  O         48.5440   21.2360   28.2470 O.2   556  TYR556     -0.2867
    103  CB        47.7650   22.2820   25.3860 C.3   556  TYR556      0.0534
    104  CG        49.1580   22.7930   25.0940 C.ar  556  TYR556     -0.0201
    105  CD1       49.3800   24.1540   24.8150 C.ar  556  TYR556     -0.0009
    106  CD2       50.2690   21.9160   25.0910 C.ar  556  TYR556     -0.0009
    107  CE1       50.6760   24.6540   24.5590 C.ar  556  TYR556      0.0417
    108  CE2       51.5860   22.4130   24.8130 C.ar  556  TYR556      0.0417
    109  CZ        51.7610   23.7820   24.5510 C.ar  556  TYR556      0.1957
    110  OH        53.0100   24.2910   24.2710 O.3   556  TYR556     -0.2866
@<TRIPOS>BOND
     1    43    44    1
     2    44    47    1
     3    44    45    1
     4    47    48    1
     5    53    54    1
     6    62    63   ar
     7    62    60   ar
     8    63    61   ar
     9    60    58   ar
    10    48    50   ar
    11    48    49   ar
    12    45    46    2
    13    61    59   ar
    14    50    52   ar
    15    54    57    1
    16    54    55    1
    17    58    59   ar
    18    58    57    1
    19    55    56    2
    20    49    51   ar
    21    52    51   ar
    22    81    79   ar
    23    79    78    1
    24    79    80   ar
    25    78    75    1
    26    90    89    1
    27    26    25    2
    28    29    31   ar
    29    29    28   ar
    30    31    33   ar
    31    27    28    1
    32    27    24    1
    33    75    76    1
    34    75    74    1
    35    76    77    2
    36    73    72   ar
    37    73    71   ar
    38    28    30   ar
    39    25    24    1
    40    25    35   am
    41    98    96   ar
    42    33    34    1
    43    33    32   ar
    44    72    70   ar
    45    89    88    1
    46    24    23    1
    47    36    37    1
    48    36    35    1
    49    36    39    1
    50    74    66   am
    51    96    97   ar
    52    96    95    1
    53    41    40   ar
    54    37    38    2
    55    71    69   ar
    56    30    32   ar
    57    88    87    1
    58    95    92    1
    59    70    69   ar
    60    39    40    1
    61    64    65    1
    62    40    42   ar
    63    69    68    1
    64    21    19   ar
    65    21    22   ar
    66    66    65    1
    67    66    67    2
    68   110   109    1
    69    92    91    1
    70    92    93    1
    71    19    16   ar
    72    87    86    1
    73   109   107   ar
    74   109   108   ar
    75   107   105   ar
    76    65    68    1
    77    22    20   ar
    78   108   106   ar
    79   105   104   ar
    80    83    86    1
    81    83    82    1
    82    83    84    1
    83   106   104   ar
    84   104   103    1
    85   103   100    1
    86    84    85    2
    87    93    94    2
    88    16    18   ar
    89    16    14   ar
    90    20    18   ar
    91    13    14    1
    92    13    10    1
    93    18    17   ar
    94    14    15   ar
    95    99   100    1
    96   100   101    1
    97     7     6    2
    98    11    12    2
    99    11    10    1
   100    10     9    1
   101    17    15   ar
   102     8     6   am
   103   101   102    2
   104     6     5    1
   105     9     3   am
   106     3     2    1
   107     3     4    2
   108     5     2    1
   109     2     1    1
