@<TRIPOS>MOLECULE
tmp/2ya3C00.pdb
 224 218 0 0 0
SMALL
GASTEIGER

@<TRIPOS>ATOM
      1  N         -1.3130   -0.1350   26.1490 N.3    45  ARG45      -0.1245
      2  CA        -0.3860    0.9300   25.7540 C.3    45  ARG45       0.1563
      3  C          0.3360    1.6110   26.9280 C.2    45  ARG45       0.2260
      4  O          1.3440    2.2930   26.7300 O.2    45  ARG45      -0.2867
      5  CB        -1.0970    1.9870   24.8870 C.3    45  ARG45       0.0307
      6  CG        -2.0710    1.4410   23.8370 C.3    45  ARG45       0.0489
      7  CD        -1.4190    1.0470   22.5070 C.3    45  ARG45       0.2205
      8  NE        -0.6450    2.1360   21.9140 N.pl3  45  ARG45      -0.0865
      9  CZ        -0.6640    2.4830   20.6250 C.cat  45  ARG45       0.5346
     10  NH1       -1.4350    1.8470   19.7450 N.pl3  45  ARG45       0.1354
     11  NH2        0.0910    3.4940   20.2150 N.pl3  45  ARG45       0.1354
     12  N          3.7080    7.0000   38.9770 N.3    59  GLY59      -0.1210
     13  CA         3.8570    7.3160   37.5620 C.3    59  GLY59       0.1956
     14  C          3.2400    6.3030   36.6160 C.2    59  GLY59       0.2611
     15  O          2.4780    5.4240   37.0280 O.2    59  GLY59      -0.2717
     16  N          3.5860    6.4440   35.3400 N.am   60  MET60      -0.1979
     17  CA         3.0780    5.6010   34.2670 C.3    60  MET60       0.1605
     18  C          4.2490    5.1130   33.4270 C.2    60  MET60       0.2287
     19  O          5.2300    5.8360   33.2480 O.2    60  MET60      -0.2864
     20  CB         2.1370    6.4090   33.3640 C.3    60  MET60       0.0413
     21  CG         0.8730    6.9640   34.0280 C.3    60  MET60       0.0598
     22  SD        -0.3810    5.7220   34.4330 S.3    60  MET60      -0.1393
     23  CE        -0.5520    4.8680   32.8690 C.3    60  MET60       0.0692
     24  N          4.9680    4.0480   29.6300 N.3    62  THR62      -0.1203
     25  CA         4.3700    4.1710   28.3020 C.3    62  THR62       0.1994
     26  C          5.3860    3.8590   27.2000 C.2    62  THR62       0.2618
     27  O          6.5580    3.6100   27.4850 O.2    62  THR62      -0.2717
     28  CB         3.8230    5.6010   28.0640 C.3    62  THR62       0.1784
     29  OG1        4.9170    6.5190   27.9510 O.3    62  THR62      -0.2211
     30  CG2        2.8980    6.0410   29.1920 C.3    62  THR62       0.0376
     31  N          4.9370    3.8790   25.9460 N.am   63  ILE63      -0.1965
     32  CA         5.8280    3.6250   24.8160 C.3    63  ILE63       0.1727
     33  C          6.8580    4.7540   24.6720 C.2    63  ILE63       0.2617
     34  O          7.9600    4.5240   24.1780 O.2    63  ILE63      -0.2715
     35  CB         5.0660    3.4240   23.4700 C.3    63  ILE63       0.0290
     36  CG1        3.8320    2.5180   23.6260 C.3    63  ILE63       0.0022
     37  CG2        5.9980    2.8930   22.3830 C.3    63  ILE63       0.0023
     38  CD1        4.0250    1.2970   24.4800 C.3    63  ILE63       0.0001
     39  N          6.5040    5.9630   25.1090 N.am   64  THR64      -0.1937
     40  CA         7.4720    7.0600   25.1500 C.3    64  THR64       0.2028
     41  C          8.6750    6.7000   26.0330 C.2    64  THR64       0.2642
     42  O          9.8150    7.0300   25.6930 O.2    64  THR64      -0.2714
     43  CB         6.8340    8.3950   25.5910 C.3    64  THR64       0.1808
     44  OG1        5.7780    8.7380   24.6830 O.3    64  THR64      -0.2208
     45  CG2        7.8700    9.5260   25.5850 C.3    64  THR64       0.0379
     46  N          8.4110    6.0170   27.1480 N.am   65  ASP65      -0.1971
     47  CA         9.4670    5.4820   28.0130 C.3    65  ASP65       0.1709
     48  C         10.3320    4.4900   27.2380 C.2    65  ASP65       0.2293
     49  O         11.5620    4.5560   27.2840 O.2    65  ASP65      -0.2864
     50  CB         8.8730    4.8100   29.2620 C.3    65  ASP65       0.1436
     51  CG         8.1860    5.8020   30.2050 C.2    65  ASP65       0.3671
     52  OD1        8.8840    6.4970   30.9760 O.co2  65  ASP65      -0.2456
     53  OD2        6.9380    5.8800   30.1850 O.co2  65  ASP65      -0.2456
     54  N         12.5520    6.2940   24.6320 N.3    68  ASN68      -0.1240
     55  CA        13.6820    6.8930   25.3320 C.3    68  ASN68       0.1653
     56  C         14.7270    5.8780   25.8120 C.2    68  ASN68       0.2266
     57  O         15.9320    6.1070   25.6620 O.2    68  ASN68      -0.2867
     58  CB        13.2040    7.7710   26.4900 C.3    68  ASN68       0.1155
     59  CG        12.8380    9.1700   26.0440 C.2    68  ASN68       0.2627
     60  OD1       13.7080    9.9880   25.7540 O.2    68  ASN68      -0.2716
     61  ND2       11.5430    9.4570   25.9900 N.am   68  ASN68      -0.0877
     62  N         18.6760    5.4090   24.3290 N.3    72  ARG72      -0.1245
     63  CA        19.8090    5.3760   25.2520 C.3    72  ARG72       0.1563
     64  C         20.5550    4.0490   25.2020 C.2    72  ARG72       0.2260
     65  O         21.7780    4.0150   25.3170 O.2    72  ARG72      -0.2867
     66  CB        19.3500    5.6490   26.6870 C.3    72  ARG72       0.0307
     67  CG        19.4300    7.1040   27.1090 C.3    72  ARG72       0.0489
     68  CD        20.8630    7.5370   27.4200 C.3    72  ARG72       0.2205
     69  NE        20.9340    8.9860   27.5860 N.pl3  72  ARG72      -0.0865
     70  CZ        20.8880    9.6130   28.7590 C.cat  72  ARG72       0.5346
     71  NH1       20.7890    8.9230   29.8900 N.pl3  72  ARG72       0.1354
     72  NH2       20.9490   10.9380   28.8020 N.pl3  72  ARG72       0.1354
     73  N         15.6310    3.0990   36.1750 N.3    92  TRP92      -0.1241
     74  CA        15.4290    3.8580   34.9430 C.3    92  TRP92       0.1605
     75  C         14.8110    5.2290   35.2170 C.2    92  TRP92       0.2264
     76  O         15.2160    6.2300   34.6190 O.2    92  TRP92      -0.2867
     77  CB        14.5710    3.0720   33.9450 C.3    92  TRP92       0.0550
     78  CG        14.0110    3.9260   32.8340 C.ar   92  TRP92       0.0003
     79  CD1       12.6950    4.1850   32.5860 C.ar   92  TRP92       0.0946
     80  CD2       14.7570    4.6540   31.8460 C.ar   92  TRP92       0.0152
     81  NE1       12.5730    5.0140   31.4980 N.ar   92  TRP92      -0.2442
     82  CE2       13.8230    5.3180   31.0250 C.ar   92  TRP92       0.0810
     83  CE3       16.1250    4.8020   31.5720 C.ar   92  TRP92       0.0012
     84  CZ2       14.2110    6.1210   29.9460 C.ar   92  TRP92       0.0191
     85  CZ3       16.5090    5.6010   30.4990 C.ar   92  TRP92       0.0001
     86  CH2       15.5540    6.2480   29.7000 C.ar   92  TRP92       0.0015
     87  N         17.2890    7.6290   36.6380 N.3    95  VAL95      -0.1231
     88  CA        18.2020    8.1270   35.6190 C.3    95  VAL95       0.1692
     89  C         17.7390    9.4460   35.0100 C.2    95  VAL95       0.2592
     90  O         18.4950   10.4200   34.9990 O.2    95  VAL95      -0.2718
     91  CB        18.4400    7.0640   34.4970 C.3    95  VAL95       0.0266
     92  CG1       18.8750    7.7130   33.1700 C.3    95  VAL95       0.0020
     93  CG2       19.4610    6.0220   34.9500 C.3    95  VAL95       0.0020
     94  N         16.4950    9.4890   34.5330 N.am   96  TYR96      -0.1962
     95  CA        16.1470   10.5020   33.5430 C.3    96  TYR96       0.1771
     96  C         15.9140   11.9420   34.0170 C.2    96  TYR96       0.2619
     97  O         16.2480   12.8870   33.2910 O.2    96  TYR96      -0.2715
     98  CB        15.0700   10.0140   32.5570 C.3    96  TYR96       0.0574
     99  CG        13.7140    9.6140   33.1070 C.ar   96  TYR96      -0.0198
    100  CD1       13.0140   10.4290   34.0010 C.ar   96  TYR96      -0.0009
    101  CD2       13.1040    8.4380   32.6720 C.ar   96  TYR96      -0.0009
    102  CE1       11.7590   10.0580   34.4780 C.ar   96  TYR96       0.0417
    103  CE2       11.8530    8.0600   33.1400 C.ar   96  TYR96       0.0417
    104  CZ        11.1860    8.8720   34.0380 C.ar   96  TYR96       0.1957
    105  OH         9.9450    8.4870   34.4930 O.3    96  TYR96      -0.2866
    106  N         15.3690   12.1230   35.2180 N.am   97  LEU97      -0.1977
    107  CA        15.2100   13.4760   35.7560 C.3    97  LEU97       0.1596
    108  C         15.7270   13.5660   37.1890 C.2    97  LEU97       0.2287
    109  O         16.7770   14.1670   37.4450 O.2    97  LEU97      -0.2864
    110  CB        13.7510   13.9550   35.6450 C.3    97  LEU97       0.0297
    111  CG        13.1420   14.3020   34.2770 C.3    97  LEU97       0.0022
    112  CD1       11.6200   14.4350   34.3850 C.3    97  LEU97       0.0001
    113  CD2       13.7530   15.5680   33.6560 C.3    97  LEU97       0.0001
    114  N          8.9420   14.9210   38.5690 N.3   102  LYS102     -0.1231
    115  CA         7.5640   14.9980   38.0790 C.3   102  LYS102      0.1678
    116  C          6.6440   14.0150   38.8150 C.2   102  LYS102      0.2434
    117  O          6.8420   12.7980   38.7410 O.2   102  LYS102     -0.2733
    118  CB         7.5040   14.7620   36.5600 C.3   102  LYS102      0.0284
    119  CG         8.3030   13.5550   36.0680 C.3   102  LYS102      0.0035
    120  CD         7.6070   12.8590   34.9070 C.3   102  LYS102      0.0206
    121  CE         8.1740   11.4590   34.7030 C.3   102  LYS102      0.1093
    122  NZ         7.2570   10.6040   33.8940 N.3   102  LYS102     -0.1314
    123  N          5.6360   14.5440   39.5370 N.am  103  PRO103     -0.2718
    124  CA         4.6810   13.6830   40.2310 C.3   103  PRO103      0.1535
    125  C          3.6360   13.1100   39.2710 C.2   103  PRO103      0.2598
    126  O          3.4800   13.6140   38.1530 O.2   103  PRO103     -0.2715
    127  CB         4.0250   14.6340   41.2330 C.3   103  PRO103      0.0310
    128  CG         4.0910   15.9660   40.5780 C.3   103  PRO103      0.0237
    129  CD         5.3470   15.9760   39.7510 C.3   103  PRO103      0.0939
    130  N          2.9330   12.0690   39.7090 N.am  104  LEU104     -0.1964
    131  CA         1.8850   11.4500   38.9050 C.3   104  LEU104      0.1728
    132  C          0.6860   12.3820   38.7200 C.2   104  LEU104      0.2616
    133  O          0.1790   12.9620   39.6840 O.2   104  LEU104     -0.2715
    134  CB         1.4410   10.1120   39.5170 C.3   104  LEU104      0.0311
    135  CG         0.2440    9.3890   38.8770 C.3   104  LEU104      0.0022
    136  CD1        0.5940    8.7790   37.5260 C.3   104  LEU104      0.0001
    137  CD2       -0.2970    8.3250   39.8000 C.3   104  LEU104      0.0001
    138  N          0.2540   12.5220   37.4680 N.am  105  VAL105     -0.1977
    139  CA        -0.9610   13.2540   37.1310 C.3   105  VAL105      0.1596
    140  C         -2.1250   12.2680   37.0370 C.2   105  VAL105      0.2287
    141  O         -2.0760   11.3020   36.2750 O.2   105  VAL105     -0.2864
    142  CB        -0.8140   14.0340   35.8020 C.3   105  VAL105      0.0276
    143  CG1       -2.0900   14.8050   35.4890 C.3   105  VAL105      0.0022
    144  CG2        0.3740   14.9840   35.8670 C.3   105  VAL105      0.0022
    145  N          0.8200   17.8750   29.0180 N.3   124  LYS124     -0.1231
    146  CA         1.4110   17.3620   27.7690 C.3   124  LYS124      0.1693
    147  C          1.5120   15.8370   27.7850 C.2   124  LYS124      0.2592
    148  O          2.5600   15.2350   27.5510 O.2   124  LYS124     -0.2718
    149  CB         2.7380   18.0660   27.4400 C.3   124  LYS124      0.0285
    150  CG         2.5430   19.5520   27.1450 C.3   124  LYS124      0.0035
    151  CD         3.8150   20.2530   26.7040 C.3   124  LYS124      0.0206
    152  CE         3.4850   21.6700   26.2590 C.3   124  LYS124      0.1093
    153  NZ         4.6280   22.3580   25.5900 N.3   124  LYS124     -0.1314
    154  N          0.3640   15.2330   28.0410 N.am  125  ILE125     -0.1966
    155  CA         0.2760   13.8320   28.3790 C.3   125  ILE125      0.1727
    156  C         -0.8400   13.1620   27.5680 C.2   125  ILE125      0.2616
    157  O         -1.7480   13.8440   27.0850 O.2   125  ILE125     -0.2715
    158  CB         0.1190   13.7130   29.9280 C.3   125  ILE125      0.0290
    159  CG1        0.9730   12.5950   30.4880 C.3   125  ILE125      0.0022
    160  CG2       -1.3420   13.8530   30.4220 C.3   125  ILE125      0.0023
    161  CD1        2.3930   13.0500   30.6620 C.3   125  ILE125      0.0001
    162  N         -0.7400   11.8470   27.3770 N.am  126  HIS126     -0.1959
    163  CA        -1.7430   11.0790   26.6190 C.3   126  HIS126      0.1787
    164  C         -2.4700   10.0500   27.4910 C.2   126  HIS126      0.2620
    165  O         -3.3950    9.3870   27.0280 O.2   126  HIS126     -0.2715
    166  CB        -1.1070   10.3440   25.4280 C.3   126  HIS126      0.0785
    167  CG        -0.5150   11.2420   24.3850 C.ar  126  HIS126      0.0821
    168  ND1        0.8270   11.5520   24.3440 N.ar  126  HIS126     -0.2267
    169  CD2       -1.0760   11.8730   23.3270 C.ar  126  HIS126      0.1154
    170  CE1        1.0650   12.3470   23.3170 C.ar  126  HIS126      0.1986
    171  NE2       -0.0730   12.5560   22.6820 N.ar  126  HIS126     -0.2212
    172  N         -2.0340    9.8990   28.7390 N.am  127  ARG127     -0.1963
    173  CA        -2.5620    8.8590   29.6260 C.3   127  ARG127      0.1729
    174  C         -2.8970    9.4540   30.9860 C.2   127  ARG127      0.2616
    175  O         -2.0000    9.8610   31.7300 O.2   127  ARG127     -0.2715
    176  CB        -1.5540    7.7120   29.8010 C.3   127  ARG127      0.0348
    177  CG        -0.9000    7.2000   28.5160 C.3   127  ARG127      0.0492
    178  CD        -1.8890    6.4590   27.6150 C.3   127  ARG127      0.2205
    179  NE        -1.3970    6.3730   26.2420 N.pl3 127  ARG127     -0.0865
    180  CZ        -2.0210    5.7530   25.2410 C.cat 127  ARG127      0.5346
    181  NH1       -3.1840    5.1370   25.4340 N.pl3 127  ARG127      0.1354
    182  NH2       -1.4750    5.7490   24.0330 N.pl3 127  ARG127      0.1354
    183  N         -4.1890    9.4960   31.3050 N.am  128  LEU128     -0.1964
    184  CA        -4.6620   10.0900   32.5490 C.3   128  LEU128      0.1713
    185  C         -5.3850    9.0450   33.3980 C.2   128  LEU128      0.2458
    186  O         -6.5540    8.7480   33.1480 O.2   128  LEU128     -0.2730
    187  CB        -5.5870   11.2720   32.2430 C.3   128  LEU128      0.0310
    188  CG        -6.1290   12.1160   33.3980 C.3   128  LEU128      0.0022
    189  CD1       -5.0060   12.7870   34.1820 C.3   128  LEU128      0.0001
    190  CD2       -7.1060   13.1470   32.8630 C.3   128  LEU128      0.0001
    191  N         -4.6880    8.4670   34.3970 N.am  129  PRO129     -0.2727
    192  CA        -5.3550    7.4780   35.2430 C.3   129  PRO129      0.1402
    193  C         -6.5140    8.0850   36.0230 C.2   129  PRO129      0.2269
    194  O         -6.3860    9.1820   36.5910 O.2   129  PRO129     -0.2865
    195  CB        -4.2420    7.0110   36.1950 C.3   129  PRO129      0.0296
    196  CG        -3.2150    8.0700   36.1440 C.3   129  PRO129      0.0237
    197  CD        -3.2620    8.5980   34.7440 C.3   129  PRO129      0.0939
    198  N         12.5350   11.1410   20.1810 N.3   196  VAL196     -0.1245
    199  CA        13.0760   11.7520   21.4000 C.3   196  VAL196      0.1561
    200  C         13.2620   13.2700   21.2730 C.2   196  VAL196      0.2260
    201  O         12.9440   14.0110   22.2040 O.2   196  VAL196     -0.2867
    202  CB        14.4160   11.0830   21.8290 C.3   196  VAL196      0.0252
    203  CG1       15.1160   11.8830   22.9350 C.3   196  VAL196      0.0019
    204  CG2       14.1820    9.6480   22.2790 C.3   196  VAL196      0.0019
    205  N          9.4100   14.9580   20.4990 N.3   199  ARG199     -0.1245
    206  CA         8.3050   14.5630   21.4020 C.3   199  ARG199      0.1563
    207  C          6.9920   14.4220   20.6310 C.2   199  ARG199      0.2260
    208  O          5.9840   15.0580   20.9460 O.2   199  ARG199     -0.2867
    209  CB         8.1320   15.5430   22.5720 C.3   199  ARG199      0.0307
    210  CG         9.3520   15.7430   23.4540 C.3   199  ARG199      0.0489
    211  CD         9.0060   16.6190   24.6570 C.3   199  ARG199      0.2205
    212  NE         9.9410   17.7360   24.7870 N.pl3 199  ARG199     -0.0865
    213  CZ        10.9690   17.7780   25.6330 C.cat 199  ARG199      0.5346
    214  NH1       11.2140   16.7630   26.4560 N.pl3 199  ARG199      0.1354
    215  NH2       11.7560   18.8510   25.6570 N.pl3 199  ARG199      0.1354
    216  N          4.0550    4.8510   17.3730 N.3   218  LYS218     -0.1245
    217  CA         4.2770    4.1700   18.6440 C.3   218  LYS218      0.1561
    218  C          3.8480    2.7030   18.6440 C.2   218  LYS218      0.2260
    219  O          4.4480    1.8880   19.3390 O.2   218  LYS218     -0.2867
    220  CB         3.6160    4.9440   19.7820 C.3   218  LYS218      0.0271
    221  CG         4.3480    6.2280   20.1150 C.3   218  LYS218      0.0035
    222  CD         3.6080    7.0400   21.1420 C.3   218  LYS218      0.0206
    223  CE         4.4880    8.1580   21.6560 C.3   218  LYS218      0.1093
    224  NZ         3.6910    9.1990   22.3590 N.3   218  LYS218     -0.1314
@<TRIPOS>BOND
     1   216   217    1
     2   217   218    1
     3   217   220    1
     4   218   219    2
     5    10     9    1
     6   220   221    1
     7   221   222    1
     8   198   199    1
     9    11     9    1
    10   205   206    1
    11     9     8    2
    12   207   208    2
    13   207   206    1
    14   222   223    1
    15   200   199    1
    16   200   201    2
    17   199   202    1
    18   206   209    1
    19   223   224    1
    20   202   204    1
    21   202   203    1
    22     8     7    1
    23    37    35    1
    24     7     6    1
    25   209   210    1
    26   171   170   ar
    27   171   169   ar
    28   170   168   ar
    29   169   167   ar
    30   210   211    1
    31    35    36    1
    32    35    32    1
    33    36    38    1
    34     6     5    1
    35   182   180    1
    36    34    33    2
    37    62    63    1
    38   168   167   ar
    39   167   166    1
    40    54    55    1
    41   211   212    1
    42    33    32    1
    43    33    39   am
    44    44    43    1
    45   212   213    2
    46    32    31    1
    47     5     2    1
    48    39    40    1
    49    40    43    1
    50    40    41    1
    51    64    63    1
    52    64    65    2
    53   180   181    1
    54   180   179    2
    55    63    66    1
    56    55    56    1
    57    55    58    1
    58   166   163    1
    59    45    43    1
    60   153   152    1
    61   213   215    1
    62   213   214    1
    63    57    56    2
    64    42    41    2
    65    60    59    2
    66     2     1    1
    67     2     3    1
    68    31    26   am
    69    61    59   am
    70    41    46   am
    71    59    58    1
    72   179   178    1
    73   152   151    1
    74   163   162    1
    75   163   164    1
    76    66    67    1
    77   151   150    1
    78     4     3    2
    79   165   164    2
    80   157   156    2
    81    67    68    1
    82   150   149    1
    83    46    47    1
    84    26    27    2
    85    26    25    1
    86    48    49    2
    87    48    47    1
    88   162   156   am
    89    68    69    1
    90   149   146    1
    91   164   172   am
    92   148   147    2
    93   156   155    1
    94    69    70    2
    95   178   177    1
    96   146   147    1
    97   146   145    1
    98   147   154   am
    99    29    28    1
   100    47    50    1
   101   154   155    1
   102    28    25    1
   103    28    30    1
   104    25    24    1
   105   155   158    1
   106   177   176    1
   107   172   173    1
   108    70    72    1
   109    70    71    1
   110    50    51    1
   111   173   176    1
   112   173   174    1
   113    86    84   ar
   114    86    85   ar
   115   158   160    1
   116   158   159    1
   117    84    82   ar
   118    53    51   ar
   119    51    52   ar
   120   159   161    1
   121    85    83   ar
   122   174   183   am
   123   174   175    2
   124    82    81   ar
   125    82    80   ar
   126   183   184    1
   127    81    79   ar
   128    83    80   ar
   129    80    78   ar
   130   187   184    1
   131   187   188    1
   132   184   185    1
   133    98    99    1
   134    98    95    1
   135    79    78   ar
   136   101    99   ar
   137   101   103   ar
   138    78    77    1
   139   190   188    1
   140    23    22    1
   141    99   100   ar
   142   103   104   ar
   143   186   185    2
   144    92    91    1
   145    19    18    2
   146    97    96    2
   147    20    21    1
   148    20    17    1
   149   185   191   am
   150   188   189    1
   151    18    17    1
   152    95    96    1
   153    95    94    1
   154   113   111    1
   155   122   121    1
   156    77    74    1
   157   100   102   ar
   158    96   106   am
   159    21    22    1
   160   104   102   ar
   161   104   105    1
   162    17    16    1
   163   111   112    1
   164   111   110    1
   165   191   197    1
   166   191   192    1
   167    91    93    1
   168    91    88    1
   169    94    89   am
   170    76    75    2
   171   121   120    1
   172   197   196    1
   173   120   119    1
   174    74    75    1
   175    74    73    1
   176    90    89    2
   177    89    88    1
   178   106   107    1
   179   192   193    1
   180   192   195    1
   181    16    14   am
   182   143   142    1
   183    88    87    1
   184   110   107    1
   185   107   108    1
   186   142   144    1
   187   142   139    1
   188   193   194    2
   189   119   118    1
   190   196   195    1
   191   141   140    2
   192   118   115    1
   193    14    15    2
   194    14    13    1
   195   140   139    1
   196   139   138    1
   197   108   109    2
   198   138   132   am
   199   136   135    1
   200    13    12    1
   201   115   114    1
   202   115   116    1
   203   126   125    2
   204   132   131    1
   205   132   133    2
   206   117   116    2
   207   116   123   am
   208   135   134    1
   209   135   137    1
   210   131   134    1
   211   131   130    1
   212   125   130   am
   213   125   124    1
   214   123   129    1
   215   123   124    1
   216   129   128    1
   217   124   127    1
   218   128   127    1
