@<TRIPOS>MOLECULE
tmp/2ya3C01.pdb
 193 190 0 0 0
SMALL
GASTEIGER

@<TRIPOS>ATOM
      1  N         -1.3130   -0.1350   26.1490 N.3    45  ARG45      -0.1245
      2  CA        -0.3860    0.9300   25.7540 C.3    45  ARG45       0.1563
      3  C          0.3360    1.6110   26.9280 C.2    45  ARG45       0.2260
      4  O          1.3440    2.2930   26.7300 O.2    45  ARG45      -0.2867
      5  CB        -1.0970    1.9870   24.8870 C.3    45  ARG45       0.0307
      6  CG        -2.0710    1.4410   23.8370 C.3    45  ARG45       0.0489
      7  CD        -1.4190    1.0470   22.5070 C.3    45  ARG45       0.2205
      8  NE        -0.6450    2.1360   21.9140 N.pl3  45  ARG45      -0.0865
      9  CZ        -0.6640    2.4830   20.6250 C.cat  45  ARG45       0.5346
     10  NH1       -1.4350    1.8470   19.7450 N.pl3  45  ARG45       0.1354
     11  NH2        0.0910    3.4940   20.2150 N.pl3  45  ARG45       0.1354
     12  N         -8.4340    9.6280   22.4260 N.3   145  LYS145     -0.1245
     13  CA        -9.2440    8.8270   21.5130 C.3   145  LYS145      0.1561
     14  C        -10.6170    8.5510   22.1010 C.2   145  LYS145      0.2260
     15  O        -11.6300    8.7400   21.4360 O.2   145  LYS145     -0.2867
     16  CB        -8.5410    7.5070   21.1840 C.3   145  LYS145      0.0271
     17  CG        -9.2010    6.7100   20.0610 C.3   145  LYS145      0.0035
     18  CD        -8.3850    5.4880   19.6580 C.3   145  LYS145      0.0206
     19  CE        -6.9590    5.8780   19.2860 C.3   145  LYS145      0.1093
     20  NZ        -6.3250    4.8830   18.3910 N.3   145  LYS145     -0.1314
     21  N          4.3140   11.6290   18.3480 N.3   201  SER201     -0.1217
     22  CA         3.8760   10.2330   18.4900 C.3   201  SER201      0.1889
     23  C          3.8190    9.4200   17.1940 C.2   201  SER201      0.2288
     24  O          3.5970    8.2080   17.2430 O.2   201  SER201     -0.2866
     25  CB         2.5630   10.1250   19.2860 C.3   201  SER201      0.2089
     26  OG         1.4390   10.4700   18.5000 O.3   201  SER201     -0.2183
     27  N          3.5090    5.2260    7.5420 N.3   215  ILE215     -0.1245
     28  CA         3.6150    5.9380    8.8010 C.3   215  ILE215      0.1561
     29  C          4.3430    5.0670    9.8370 C.2   215  ILE215      0.2260
     30  O          4.0800    3.8690    9.9460 O.2   215  ILE215     -0.2867
     31  CB         2.2100    6.4060    9.2890 C.3   215  ILE215      0.0252
     32  CG1        2.3320    7.4670   10.3820 C.3   215  ILE215      0.0019
     33  CG2        1.3200    5.2170    9.7220 C.3   215  ILE215      0.0019
     34  CD1        1.0350    8.2310   10.6330 C.3   215  ILE215      0.0001
     35  N          4.8740    4.7790   13.7740 N.3   217  SER217     -0.1202
     36  CA         4.2890    5.2910   15.0080 C.3   217  SER217      0.2020
     37  C          4.6100    4.4420   16.2340 C.2   217  SER217      0.2619
     38  O          5.3330    3.4460   16.1470 O.2   217  SER217     -0.2717
     39  CB         2.7770    5.4510   14.8550 C.3   217  SER217      0.2103
     40  OG         2.1280    4.1950   14.8470 O.3   217  SER217     -0.2182
     41  N          4.0550    4.8510   17.3730 N.am  218  LYS218     -0.1965
     42  CA         4.2770    4.1700   18.6440 C.3   218  LYS218      0.1728
     43  C          3.8480    2.7030   18.6440 C.2   218  LYS218      0.2616
     44  O          4.4480    1.8880   19.3390 O.2   218  LYS218     -0.2715
     45  CB         3.6160    4.9440   19.7820 C.3   218  LYS218      0.0311
     46  CG         4.3480    6.2280   20.1150 C.3   218  LYS218      0.0038
     47  CD         3.6080    7.0400   21.1420 C.3   218  LYS218      0.0206
     48  CE         4.4880    8.1580   21.6560 C.3   218  LYS218      0.1093
     49  NZ         3.6910    9.1990   22.3590 N.3   218  LYS218     -0.1314
     50  N          2.8290    2.3680   17.8550 N.am  219  PHE219     -0.1960
     51  CA         2.4270    0.9740   17.6690 C.3   219  PHE219      0.1771
     52  C          3.5750    0.1420   17.0930 C.2   219  PHE219      0.2619
     53  O          3.8270   -0.9750   17.5380 O.2   219  PHE219     -0.2715
     54  CB         1.1830    0.8710   16.7670 C.3   219  PHE219      0.0574
     55  CG         0.7910   -0.5420   16.4330 C.ar  219  PHE219     -0.0200
     56  CD1        0.1330   -1.3350   17.3680 C.ar  219  PHE219     -0.0042
     57  CD2        1.0890   -1.0820   15.1850 C.ar  219  PHE219     -0.0042
     58  CE1       -0.2250   -2.6530   17.0660 C.ar  219  PHE219     -0.0003
     59  CE2        0.7390   -2.3970   14.8670 C.ar  219  PHE219     -0.0003
     60  CZ         0.0840   -3.1880   15.8100 C.ar  219  PHE219     -0.0000
     61  N          4.2660    0.6960   16.1040 N.am  220  ASP220     -0.1971
     62  CA         5.3750    0.0010   15.4560 C.3   220  ASP220      0.1709
     63  C          6.5850   -0.1500   16.3750 C.2   220  ASP220      0.2293
     64  O          7.3630   -1.0870   16.2180 O.2   220  ASP220     -0.2864
     65  CB         5.7760    0.7180   14.1640 C.3   220  ASP220      0.1436
     66  CG         4.6180    0.8540   13.1880 C.2   220  ASP220      0.3671
     67  OD1        4.0590   -0.1850   12.7780 O.co2 220  ASP220     -0.2456
     68  OD2        4.2700    1.9980   12.8270 O.co2 220  ASP220     -0.2456
     69  N          6.2130   -6.3240    9.5870 N.3   243  HIS243     -0.1226
     70  CA         5.3970   -7.0190   10.5830 C.3   243  HIS243      0.1752
     71  C          3.8970   -6.7920   10.3550 C.2   243  HIS243      0.2595
     72  O          3.0600   -7.4750   10.9490 O.2   243  HIS243     -0.2718
     73  CB         5.8050   -6.6100   12.0040 C.3   243  HIS243      0.0759
     74  CG         5.2430   -5.2930   12.4470 C.ar  243  HIS243      0.0818
     75  ND1        4.0490   -5.1840   13.1280 N.ar  243  HIS243     -0.2268
     76  CD2        5.7180   -4.0310   12.3160 C.ar  243  HIS243      0.1154
     77  CE1        3.8100   -3.9110   13.3910 C.ar  243  HIS243      0.1986
     78  NE2        4.8070   -3.1910   12.9100 N.ar  243  HIS243     -0.2212
     79  N          3.5740   -5.8250    9.4990 N.am  244  ARG244     -0.1980
     80  CA         2.1910   -5.5480    9.1030 C.3   244  ARG244      0.1597
     81  C          2.0750   -5.2250    7.6050 C.2   244  ARG244      0.2287
     82  O          1.2720   -4.3800    7.1990 O.2   244  ARG244     -0.2864
     83  CB         1.5680   -4.4470    9.9820 C.3   244  ARG244      0.0334
     84  CG         2.3510   -3.1270   10.0680 C.3   244  ARG244      0.0492
     85  CD         1.4690   -2.0350   10.6640 C.3   244  ARG244      0.2205
     86  NE         2.1460   -0.7520   10.8550 N.pl3 244  ARG244     -0.0865
     87  CZ         2.1810    0.2330    9.9580 C.cat 244  ARG244      0.5346
     88  NH1        1.5980    0.0950    8.7730 N.pl3 244  ARG244      0.1354
     89  NH2        2.8110    1.3640   10.2440 N.pl3 244  ARG244      0.1354
     90  N          0.9850   -7.2890    5.1360 N.3   246  HIS246     -0.1226
     91  CA        -0.3970   -7.6800    4.8530 C.3   246  HIS246      0.1752
     92  C         -1.3400   -6.9730    5.8300 C.2   246  HIS246      0.2596
     93  O         -0.8960   -6.4540    6.8630 O.2   246  HIS246     -0.2718
     94  CB        -0.5560   -9.2030    4.9500 C.3   246  HIS246      0.0759
     95  CG         0.2640   -9.8300    6.0380 C.ar  246  HIS246      0.0818
     96  ND1        1.5570  -10.2670    5.8370 N.ar  246  HIS246     -0.2268
     97  CD2       -0.0200  -10.0850    7.3380 C.ar  246  HIS246      0.1154
     98  CE1        2.0320  -10.7670    6.9640 C.ar  246  HIS246      0.1986
     99  NE2        1.0950  -10.6680    7.8910 N.ar  246  HIS246     -0.2212
    100  N         -2.6320   -6.9530    5.4940 N.am  247  TYR247     -0.1962
    101  CA        -3.6730   -6.2940    6.3030 C.3   247  TYR247      0.1771
    102  C         -3.4370   -4.7870    6.5020 C.2   247  TYR247      0.2619
    103  O         -3.7210   -4.2360    7.5710 O.2   247  TYR247     -0.2715
    104  CB        -3.8520   -7.0090    7.6530 C.3   247  TYR247      0.0574
    105  CG        -4.2300   -8.4600    7.4760 C.ar  247  TYR247     -0.0198
    106  CD1       -5.4440   -8.8290    6.8990 C.ar  247  TYR247     -0.0009
    107  CD2       -3.3950   -9.4740    7.9440 C.ar  247  TYR247     -0.0009
    108  CE1       -5.8150  -10.1670    6.7610 C.ar  247  TYR247      0.0417
    109  CE2       -3.7630  -10.8180    7.8470 C.ar  247  TYR247      0.0417
    110  CZ        -4.9630  -11.1670    7.2300 C.ar  247  TYR247      0.1957
    111  OH        -5.3170  -12.4900    7.1490 O.3   247  TYR247     -0.2866
    112  N         -2.9310   -4.1300    5.4590 N.am  248  PHE248     -0.1974
    113  CA        -2.5900   -2.7070    5.5070 C.3   248  PHE248      0.1639
    114  C         -3.0380   -2.0140    4.2220 C.2   248  PHE248      0.2290
    115  O         -2.4960   -2.2750    3.1430 O.2   248  PHE248     -0.2864
    116  CB        -1.0770   -2.5330    5.7480 C.3   248  PHE248      0.0560
    117  CG        -0.5480   -1.1490    5.4430 C.ar  248  PHE248     -0.0200
    118  CD1       -0.7890   -0.0840    6.3110 C.ar  248  PHE248     -0.0042
    119  CD2        0.2160   -0.9210    4.2980 C.ar  248  PHE248     -0.0042
    120  CE1       -0.2910    1.1950    6.0300 C.ar  248  PHE248     -0.0003
    121  CE2        0.7170    0.3510    4.0080 C.ar  248  PHE248     -0.0003
    122  CZ         0.4640    1.4100    4.8770 C.ar  248  PHE248     -0.0000
    123  N         -3.4620    1.6970    3.6160 N.3   250  GLY250     -0.1210
    124  CA        -2.5640    2.8170    3.3860 C.3   250  GLY250      0.1956
    125  C         -2.7120    3.8100    4.5160 C.2   250  GLY250      0.2612
    126  O         -3.4550    3.5720    5.4680 O.2   250  GLY250     -0.2717
    127  N         -2.0050    4.9270    4.4100 N.am  251  VAL251     -0.1965
    128  CA        -2.0660    5.9640    5.4290 C.3   251  VAL251      0.1727
    129  C         -3.3630    6.7720    5.3030 C.2   251  VAL251      0.2616
    130  O         -3.7950    7.1110    4.1950 O.2   251  VAL251     -0.2715
    131  CB        -0.7930    6.8660    5.4090 C.3   251  VAL251      0.0290
    132  CG1       -0.4260    7.2580    3.9860 C.3   251  VAL251      0.0023
    133  CG2       -0.9670    8.1020    6.2960 C.3   251  VAL251      0.0023
    134  N         -3.9860    7.0460    6.4470 N.am  252  LEU252     -0.1977
    135  CA        -5.1840    7.8700    6.5050 C.3   252  LEU252      0.1596
    136  C         -4.8070    9.3470    6.4630 C.2   252  LEU252      0.2287
    137  O         -4.0760    9.8560    7.3230 O.2   252  LEU252     -0.2864
    138  CB        -6.0220    7.5290    7.7390 C.3   252  LEU252      0.0297
    139  CG        -6.6200    6.1110    7.7050 C.3   252  LEU252      0.0022
    140  CD1       -6.8360    5.5480    9.1030 C.3   252  LEU252      0.0001
    141  CD2       -7.9150    6.0560    6.8910 C.3   252  LEU252      0.0001
    142  N        -10.6400    5.3150   14.3380 N.3   271  GLU271     -0.1231
    143  CA       -10.0240    4.9590   15.6300 C.3   271  GLU271      0.1699
    144  C         -8.4960    5.1510   15.6100 C.2   271  GLU271      0.2592
    145  O         -7.7320    4.3590   16.1680 O.2   271  GLU271     -0.2718
    146  CB       -10.4170    3.5340   16.0550 C.3   271  GLU271      0.0402
    147  CG       -11.9290    3.2940   16.0670 C.3   271  GLU271      0.1161
    148  CD       -12.3260    1.9980   16.7520 C.2   271  GLU271      0.3649
    149  OE1      -12.0430    0.9000   16.2120 O.co2 271  GLU271     -0.2457
    150  OE2      -12.9420    2.0830   17.8350 O.co2 271  GLU271     -0.2457
    151  N         -8.0820    6.2360   14.9680 N.am  272  VAL272     -0.1966
    152  CA        -6.6840    6.5660   14.7430 C.3   272  VAL272      0.1727
    153  C         -6.3480    7.8820   15.4660 C.2   272  VAL272      0.2616
    154  O         -7.2330    8.7210   15.6830 O.2   272  VAL272     -0.2715
    155  CB        -6.4210    6.6150   13.2100 C.3   272  VAL272      0.0290
    156  CG1       -5.5230    7.7560   12.8100 C.3   272  VAL272      0.0023
    157  CG2       -5.9000    5.2640   12.7050 C.3   272  VAL272      0.0023
    158  N         -5.0860    8.0500   15.8590 N.am  273  HIS273     -0.1959
    159  CA        -4.6730    9.2170   16.6530 C.3   273  HIS273      0.1787
    160  C         -4.4090   10.4820   15.8250 C.2   273  HIS273      0.2620
    161  O         -4.4810   11.5910   16.3560 O.2   273  HIS273     -0.2715
    162  CB        -3.4640    8.8840   17.5460 C.3   273  HIS273      0.0785
    163  CG        -3.0660    9.9990   18.4690 C.ar  273  HIS273      0.0821
    164  ND1       -3.6810   10.2180   19.6840 N.ar  273  HIS273     -0.2267
    165  CD2       -2.1230   10.9660   18.3460 C.ar  273  HIS273      0.1154
    166  CE1       -3.1340   11.2690   20.2710 C.ar  273  HIS273      0.1986
    167  NE2       -2.1880   11.7430   19.4790 N.ar  273  HIS273     -0.2212
    168  N         -4.1060   10.3310   14.5400 N.am  274  ARG274     -0.1963
    169  CA        -3.8610   11.5010   13.6890 C.3   274  ARG274      0.1729
    170  C         -4.0980   11.2320   12.2120 C.2   274  ARG274      0.2616
    171  O         -4.0530   10.0840   11.7540 O.2   274  ARG274     -0.2715
    172  CB        -2.4330   12.0540   13.8770 C.3   274  ARG274      0.0348
    173  CG        -1.3620   11.4870   12.9170 C.3   274  ARG274      0.0492
    174  CD        -1.0540   10.0230   13.2030 C.3   274  ARG274      0.2205
    175  NE        -0.5280    9.8260   14.5500 N.pl3 274  ARG274     -0.0865
    176  CZ        -0.4960    8.6590   15.1890 C.cat 274  ARG274      0.5346
    177  NH1       -0.9900    7.5660   14.6200 N.pl3 274  ARG274      0.1354
    178  NH2        0.0300    8.5850   16.4060 N.pl3 274  ARG274      0.1354
    179  N         -4.3350   12.3130   11.4770 N.am  275  LEU275     -0.1963
    180  CA        -4.3390   12.2660   10.0310 C.3   275  LEU275      0.1728
    181  C         -3.1390   13.0370    9.5190 C.2   275  LEU275      0.2616
    182  O         -2.7490   14.0630   10.0890 O.2   275  LEU275     -0.2715
    183  CB        -5.6350   12.8480    9.4660 C.3   275  LEU275      0.0311
    184  CG        -6.9480   12.2420    9.9730 C.3   275  LEU275      0.0022
    185  CD1       -8.1430   12.9020    9.2860 C.3   275  LEU275      0.0001
    186  CD2       -6.9830   10.7250    9.7930 C.3   275  LEU275      0.0001
    187  N         -2.5410   12.5240    8.4510 N.am  276  VAL276     -0.1977
    188  CA        -1.4800   13.2350    7.7700 C.3   276  VAL276      0.1596
    189  C         -2.1490   14.2090    6.8030 C.2   276  VAL276      0.2287
    190  O         -2.9200   13.7970    5.9320 O.2   276  VAL276     -0.2864
    191  CB        -0.5140   12.2620    7.0420 C.3   276  VAL276      0.0276
    192  CG1        0.5820   13.0270    6.3050 C.3   276  VAL276      0.0022
    193  CG2        0.1030   11.2780    8.0430 C.3   276  VAL276      0.0022
@<TRIPOS>BOND
     1   115   114    2
     2   124   123    1
     3   124   125    1
     4   132   131    1
     5   121   119   ar
     6   121   122   ar
     7   130   129    2
     8   114   113    1
     9   119   117   ar
    10   127   125   am
    11   127   128    1
    12   125   126    2
    13    91    94    1
    14    91    90    1
    15    91    92    1
    16   122   120   ar
    17    94    95    1
    18   129   128    1
    19   129   134   am
    20   131   128    1
    21   131   133    1
    22   117   116    1
    23   117   118   ar
    24   112   113    1
    25   112   102   am
    26   100    92   am
    27   100   101    1
    28   113   116    1
    29    92    93    2
    30    96    95   ar
    31    96    98   ar
    32   190   189    2
    33   120   118   ar
    34    95    97   ar
    35   101   102    1
    36   101   104    1
    37   192   191    1
    38   134   135    1
    39   136   135    1
    40   136   137    2
    41   102   103    2
    42   135   138    1
    43   108   106   ar
    44   108   110   ar
    45   189   188    1
    46   141   139    1
    47   106   105   ar
    48    98    99   ar
    49   191   188    1
    50   191   193    1
    51   111   110    1
    52    82    81    2
    53   110   109   ar
    54    97    99   ar
    55   105   104    1
    56   105   107   ar
    57    27    28    1
    58    81    80    1
    59   139   138    1
    60   139   140    1
    61   188   187    1
    62   109   107   ar
    63   187   181   am
    64    88    87    1
    65    28    31    1
    66    28    29    1
    67    80    79    1
    68    80    83    1
    69   185   184    1
    70    31    33    1
    71    31    32    1
    72   183   184    1
    73   183   180    1
    74    79    71   am
    75   181   180    1
    76   181   182    2
    77    69    70    1
    78   186   184    1
    79    29    30    2
    80    87    89    1
    81    87    86    2
    82    83    84    1
    83   180   179    1
    84    84    85    1
    85    71    70    1
    86    71    72    2
    87    32    34    1
    88    70    73    1
    89    85    86    1
    90   179   170   am
    91   171   170    2
    92    73    74    1
    93   170   169    1
    94    76    74   ar
    95    76    78   ar
    96    74    75   ar
    97   157   155    1
    98    67    66   ar
    99   156   155    1
   100    68    66   ar
   101    78    77   ar
   102   173   174    1
   103   173   172    1
   104    75    77   ar
   105    66    65    1
   106   174   175    1
   107   155   152    1
   108   169   172    1
   109   169   168    1
   110    35    36    1
   111    65    62    1
   112   142   143    1
   113   168   160   am
   114   175   176    2
   115   177   176    1
   116   152   151    1
   117   152   153    1
   118    40    39    1
   119    39    36    1
   120    59    57   ar
   121    59    60   ar
   122   151   144   am
   123    36    37    1
   124    57    55   ar
   125   176   178    1
   126    62    61    1
   127    62    63    1
   128   153   154    2
   129   153   158   am
   130   144   143    1
   131   144   145    2
   132   143   146    1
   133    60    58   ar
   134   160   161    2
   135   160   159    1
   136   158   159    1
   137   146   147    1
   138   147   148    1
   139    61    52   am
   140    38    37    2
   141   149   148   ar
   142    64    63    2
   143    37    41   am
   144    55    54    1
   145    55    56   ar
   146   159   162    1
   147   148   150   ar
   148    54    51    1
   149    58    56   ar
   150    52    53    2
   151    52    51    1
   152    23    24    2
   153    23    22    1
   154    41    42    1
   155   162   163    1
   156    51    50    1
   157    50    43   am
   158   165   163   ar
   159   165   167   ar
   160    21    22    1
   161    20    19    1
   162   163   164   ar
   163    22    25    1
   164    26    25    1
   165    42    43    1
   166    42    45    1
   167    43    44    2
   168    19    18    1
   169   167   166   ar
   170    18    17    1
   171   164   166   ar
   172    10     9    1
   173    45    46    1
   174    17    16    1
   175    46    47    1
   176    11     9    1
   177     9     8    2
   178    47    48    1
   179    16    13    1
   180    15    14    2
   181    13    14    1
   182    13    12    1
   183    48    49    1
   184     8     7    1
   185     7     6    1
   186     6     5    1
   187     5     2    1
   188     2     1    1
   189     2     3    1
   190     4     3    2
