@<TRIPOS>MOLECULE
tmp/2ya7B00.pdb
 216 204 0 0 0
SMALL
GASTEIGER

@<TRIPOS>ATOM
      1  N          8.8300  -81.9690   36.4860 N.3    26  ARG26      -0.1231
      2  CA         9.8750  -81.0940   36.9780 C.3    26  ARG26       0.1694
      3  C          9.3280  -80.0830   37.9730 C.2    26  ARG26       0.2591
      4  O          8.1130  -79.9440   38.1400 O.2    26  ARG26      -0.2718
      5  CB        10.5800  -80.3860   35.8200 C.3    26  ARG26       0.0321
      6  CG        11.6050  -81.2450   35.1180 C.3    26  ARG26       0.0489
      7  CD        12.6890  -80.4070   34.5130 C.3    26  ARG26       0.2205
      8  NE        13.4960  -79.7920   35.5630 N.pl3  26  ARG26      -0.0865
      9  CZ        14.4680  -78.9050   35.3710 C.cat  26  ARG26       0.5346
     10  NH1       14.8150  -78.5060   34.1500 N.pl3  26  ARG26       0.1354
     11  NH2       15.1110  -78.4270   36.4230 N.pl3  26  ARG26       0.1354
     12  N         10.2510  -79.3930   38.6390 N.am   27  ILE27      -0.1980
     13  CA         9.9360  -78.1950   39.4180 C.3    27  ILE27       0.1595
     14  C          9.0760  -78.4670   40.6580 C.2    27  ILE27       0.2287
     15  O          7.9280  -78.0280   40.7200 O.2    27  ILE27      -0.2864
     16  CB         9.2420  -77.0890   38.5510 C.3    27  ILE27       0.0276
     17  CG1        9.8020  -77.0130   37.1170 C.3    27  ILE27       0.0022
     18  CG2        9.3150  -75.7540   39.2510 C.3    27  ILE27       0.0022
     19  CD1       11.3120  -76.8360   36.9910 C.3    27  ILE27       0.0001
     20  N          5.5130  -79.3190   37.5610 N.3    43  ASP43      -0.1239
     21  CA         5.2490  -79.2140   36.1180 C.3    43  ASP43       0.1674
     22  C          5.0150  -80.6330   35.6060 C.2    43  ASP43       0.2266
     23  O          5.9130  -81.4670   35.7200 O.2    43  ASP43      -0.2867
     24  CB         6.4790  -78.6790   35.3700 C.3    43  ASP43       0.1410
     25  CG         6.6350  -77.1610   35.4340 C.2    43  ASP43       0.3668
     26  OD1        6.0920  -76.4870   36.3400 O.co2  43  ASP43      -0.2456
     27  OD2        7.3560  -76.6520   34.5480 O.co2  43  ASP43      -0.2456
     28  N          4.8320  -82.7020   32.3490 N.3    45  ARG45      -0.1245
     29  CA         5.2210  -82.5970   30.9410 C.3    45  ARG45       0.1563
     30  C          4.8480  -83.8400   30.1350 C.2    45  ARG45       0.2260
     31  O          5.5830  -84.8440   30.1220 O.2    45  ARG45      -0.2867
     32  CB         6.7210  -82.3400   30.7920 C.3    45  ARG45       0.0307
     33  CG         7.2110  -81.0420   31.3930 C.3    45  ARG45       0.0489
     34  CD         8.0490  -81.2770   32.6240 C.3    45  ARG45       0.2205
     35  NE         9.3170  -81.9500   32.3540 N.pl3  45  ARG45      -0.0865
     36  CZ        10.4310  -81.3430   31.9540 C.cat  45  ARG45       0.5346
     37  NH1       10.4540  -80.0230   31.7560 N.pl3  45  ARG45       0.1354
     38  NH2       11.5400  -82.0500   31.7650 N.pl3  45  ARG45       0.1354
     39  N         11.2200  -80.6700   27.5570 N.3    50  SER50      -0.1202
     40  CA        11.7430  -79.3390   27.2720 C.3    50  SER50       0.2020
     41  C         11.1100  -78.2620   28.1550 C.2    50  SER50       0.2618
     42  O         10.2240  -78.5470   28.9670 O.2    50  SER50      -0.2717
     43  CB        11.5690  -78.9960   25.7900 C.3    50  SER50       0.2103
     44  OG        12.3350  -79.8740   24.9810 O.3    50  SER50      -0.2182
     45  N         11.5800  -77.0230   28.0020 N.am   51  ASP51      -0.1973
     46  CA        11.0840  -75.9070   28.8020 C.3    51  ASP51       0.1709
     47  C          9.9010  -75.2230   28.1050 C.2    51  ASP51       0.2293
     48  O          9.7630  -73.9970   28.1250 O.2    51  ASP51      -0.2864
     49  CB        12.2160  -74.9130   29.1030 C.3    51  ASP51       0.1436
     50  CG        13.3360  -75.5280   29.9330 C.2    51  ASP51       0.3671
     51  OD1       13.0490  -76.3400   30.8340 O.co2  51  ASP51      -0.2456
     52  OD2       14.5110  -75.1920   29.6870 O.co2  51  ASP51      -0.2456
     53  N          2.3110  -78.5140   29.2000 N.3    55  ILE55      -0.1245
     54  CA         2.6280  -78.6420   30.6140 C.3    55  ILE55       0.1561
     55  C          1.3870  -78.2540   31.4160 C.2    55  ILE55       0.2260
     56  O          0.7980  -77.2020   31.1790 O.2    55  ILE55      -0.2867
     57  CB         3.8260  -77.7370   31.0180 C.3    55  ILE55       0.0252
     58  CG1        5.0720  -78.0840   30.1990 C.3    55  ILE55       0.0019
     59  CG2        4.1040  -77.8450   32.5290 C.3    55  ILE55       0.0019
     60  CD1        6.1710  -76.9950   30.2020 C.3    55  ILE55       0.0001
     61  N          4.2970  -72.8310   33.2910 N.3    95  ILE95      -0.1231
     62  CA         5.6160  -73.3540   33.6370 C.3    95  ILE95       0.1692
     63  C          6.1030  -72.7230   34.9490 C.2    95  ILE95       0.2592
     64  O          5.9480  -71.5140   35.1350 O.2    95  ILE95      -0.2718
     65  CB         6.6120  -73.1080   32.4590 C.3    95  ILE95       0.0266
     66  CG1        7.9950  -73.6990   32.7560 C.3    95  ILE95       0.0019
     67  CG2        6.6760  -71.6290   32.0620 C.3    95  ILE95       0.0020
     68  CD1        8.8770  -73.8810   31.5180 C.3    95  ILE95       0.0001
     69  N          6.6590  -73.5430   35.8520 N.am   96  ASP96      -0.1974
     70  CA         7.2590  -73.0940   37.1330 C.3    96  ASP96       0.1709
     71  C          6.2330  -72.5210   38.1170 C.2    96  ASP96       0.2293
     72  O          5.7130  -71.4280   37.8930 O.2    96  ASP96      -0.2864
     73  CB         8.3370  -72.0100   36.9310 C.3    96  ASP96       0.1436
     74  CG         9.5970  -72.5210   36.2650 C.2    96  ASP96       0.3671
     75  OD1        9.8340  -73.7470   36.2390 O.co2  96  ASP96      -0.2456
     76  OD2       10.3790  -71.6750   35.7780 O.co2  96  ASP96      -0.2456
     77  N          4.0920  -69.1800   35.7310 N.3   113  ASP113     -0.1239
     78  CA         4.2460  -68.4310   34.4770 C.3   113  ASP113      0.1674
     79  C          3.2440  -68.8990   33.4380 C.2   113  ASP113      0.2266
     80  O          2.7700  -70.0410   33.4800 O.2   113  ASP113     -0.2867
     81  CB         5.6430  -68.6240   33.8810 C.3   113  ASP113      0.1410
     82  CG         6.7540  -68.3970   34.8830 C.2   113  ASP113      0.3668
     83  OD1        6.4950  -67.8700   35.9970 O.co2 113  ASP113     -0.2456
     84  OD2        7.8910  -68.7690   34.5400 O.co2 113  ASP113     -0.2456
     85  N          2.7010  -68.3420   28.9910 N.3   115  PHE115     -0.1241
     86  CA         3.1110  -67.7830   27.7120 C.3   115  PHE115      0.1605
     87  C          2.0820  -68.2840   26.6930 C.2   115  PHE115      0.2264
     88  O          1.5770  -69.3910   26.8240 O.2   115  PHE115     -0.2867
     89  CB         4.4700  -68.3440   27.2820 C.3   115  PHE115      0.0534
     90  CG         5.6330  -67.9420   28.1480 C.ar  115  PHE115     -0.0203
     91  CD1        6.0070  -68.7120   29.2530 C.ar  115  PHE115     -0.0042
     92  CD2        6.4230  -66.8440   27.7980 C.ar  115  PHE115     -0.0042
     93  CE1        7.1280  -68.3450   30.0380 C.ar  115  PHE115     -0.0003
     94  CE2        7.5430  -66.4820   28.5620 C.ar  115  PHE115     -0.0003
     95  CZ         7.8970  -67.2280   29.6720 C.ar  115  PHE115     -0.0000
     96  N         10.0530  -69.0810   27.5640 N.3   121  ILE121     -0.1231
     97  CA        11.1060  -68.0850   27.7510 C.3   121  ILE121      0.1692
     98  C         12.0960  -68.0940   26.5780 C.2   121  ILE121      0.2592
     99  O         12.6950  -67.0670   26.2670 O.2   121  ILE121     -0.2718
    100  CB        11.8500  -68.2770   29.0950 C.3   121  ILE121      0.0266
    101  CG1       12.4420  -66.9470   29.5870 C.3   121  ILE121      0.0019
    102  CG2       12.9290  -69.3720   28.9880 C.3   121  ILE121      0.0020
    103  CD1       13.1000  -67.0540   30.9260 C.3   121  ILE121      0.0001
    104  N         12.2400  -69.2450   25.9350 N.am  122  PHE122     -0.1976
    105  CA        13.1520  -69.4020   24.8020 C.3   122  PHE122      0.1639
    106  C         12.5050  -69.0460   23.4700 C.2   122  PHE122      0.2290
    107  O         13.1350  -69.1580   22.4250 O.2   122  PHE122     -0.2864
    108  CB        13.7540  -70.8080   24.7880 C.3   122  PHE122      0.0560
    109  CG        14.5440  -71.1130   26.0150 C.ar  122  PHE122     -0.0200
    110  CD1       15.7540  -70.4630   26.2520 C.ar  122  PHE122     -0.0042
    111  CD2       14.0600  -72.0060   26.9610 C.ar  122  PHE122     -0.0042
    112  CE1       16.4790  -70.7090   27.4090 C.ar  122  PHE122     -0.0003
    113  CE2       14.7740  -72.2690   28.1190 C.ar  122  PHE122     -0.0003
    114  CZ        15.9920  -71.6180   28.3500 C.ar  122  PHE122     -0.0000
    115  N         11.0560  -60.8690   30.2760 N.3   244  PHE244     -0.1241
    116  CA        10.5630  -61.9400   31.1460 C.3   244  PHE244      0.1605
    117  C         10.2840  -61.4670   32.5950 C.2   244  PHE244      0.2264
    118  O         11.0440  -60.6790   33.1740 O.2   244  PHE244     -0.2867
    119  CB        11.5730  -63.0970   31.1530 C.3   244  PHE244      0.0534
    120  CG        11.2120  -64.2410   32.0780 C.ar  244  PHE244     -0.0203
    121  CD1       10.1620  -65.1130   31.7640 C.ar  244  PHE244     -0.0042
    122  CD2       11.9530  -64.4730   33.2450 C.ar  244  PHE244     -0.0042
    123  CE1        9.8360  -66.1770   32.6100 C.ar  244  PHE244     -0.0003
    124  CE2       11.6360  -65.5510   34.1010 C.ar  244  PHE244     -0.0003
    125  CZ        10.5770  -66.4060   33.7710 C.ar  244  PHE244     -0.0000
    126  N         11.7830  -63.4020   39.1420 N.3   269  TYR269     -0.1241
    127  CA        12.9540  -62.7650   38.5330 C.3   269  TYR269      0.1605
    128  C         12.5930  -62.2180   37.1590 C.2   269  TYR269      0.2264
    129  O         11.6240  -62.6730   36.5310 O.2   269  TYR269     -0.2867
    130  CB        14.1770  -63.7090   38.5040 C.3   269  TYR269      0.0534
    131  CG        14.0770  -64.9770   37.6680 C.ar  269  TYR269     -0.0201
    132  CD1       13.2580  -66.0400   38.0560 C.ar  269  TYR269     -0.0009
    133  CD2       14.8540  -65.1320   36.5280 C.ar  269  TYR269     -0.0009
    134  CE1       13.1900  -67.2140   37.3130 C.ar  269  TYR269      0.0417
    135  CE2       14.8080  -66.3050   35.7670 C.ar  269  TYR269      0.0417
    136  CZ        13.9730  -67.3460   36.1720 C.ar  269  TYR269      0.1957
    137  OH        13.9190  -68.4880   35.4150 O.3   269  TYR269     -0.2866
    138  N         18.5040  -62.8580   28.5990 N.3   277  LEU277     -0.1245
    139  CA        19.0260  -63.9900   29.3870 C.3   277  LEU277      0.1561
    140  C         20.5510  -64.0400   29.4640 C.2   277  LEU277      0.2260
    141  O         21.1240  -64.9250   30.1210 O.2   277  LEU277     -0.2867
    142  CB        18.4890  -65.3120   28.8380 C.3   277  LEU277      0.0270
    143  CG        16.9980  -65.5630   29.1060 C.3   277  LEU277      0.0019
    144  CD1       16.4750  -66.7130   28.2020 C.3   277  LEU277      0.0001
    145  CD2       16.7370  -65.8310   30.5810 C.3   277  LEU277      0.0001
    146  N         19.2340  -61.2700   34.1490 N.3   281  GLN281     -0.1245
    147  CA        18.3080  -61.9680   35.0530 C.3   281  GLN281      0.1566
    148  C         18.4790  -61.4100   36.4570 C.2   281  GLN281      0.2260
    149  O         19.6050  -61.3420   36.9520 O.2   281  GLN281     -0.2867
    150  CB        18.5560  -63.4750   35.0500 C.3   281  GLN281      0.0367
    151  CG        18.1910  -64.1650   33.7370 C.3   281  GLN281      0.0905
    152  CD        18.7070  -65.5860   33.6920 C.2   281  GLN281      0.2608
    153  OE1       19.8250  -65.8590   33.2050 O.2   281  GLN281     -0.2717
    154  NE2       17.9100  -66.5070   34.2070 N.am  281  GLN281     -0.0878
    155  N         18.8540  -65.1570   39.8490 N.3   325  THR325     -0.1203
    156  CA        17.7310  -65.6900   39.0730 C.3   325  THR325      0.1994
    157  C         16.6420  -66.2190   39.9760 C.2   325  THR325      0.2617
    158  O         16.0960  -65.4470   40.7690 O.2   325  THR325     -0.2717
    159  CB        18.2030  -66.6340   37.8990 C.3   325  THR325      0.1784
    160  OG1       18.4730  -67.9630   38.3650 O.3   325  THR325     -0.2211
    161  CG2       19.4540  -66.0670   37.2480 C.3   325  THR325      0.0376
    162  N         16.3140  -67.5020   39.8700 N.am  326  GLU326     -0.1979
    163  CA        15.4380  -68.1350   40.8400 C.3   326  GLU326      0.1602
    164  C         16.0220  -67.9690   42.2270 C.2   326  GLU326      0.2287
    165  O         17.2570  -68.0430   42.4090 O.2   326  GLU326     -0.2864
    166  CB        15.2890  -69.6130   40.5360 C.3   326  GLU326      0.0415
    167  CG        14.7620  -69.9040   39.1490 C.3   326  GLU326      0.1163
    168  CD        15.1300  -71.2900   38.6830 C.2   326  GLU326      0.3649
    169  OE1       16.1650  -71.8020   39.1670 O.co2 326  GLU326     -0.2457
    170  OE2       14.3970  -71.8630   37.8350 O.co2 326  GLU326     -0.2457
    171  N         19.9590  -68.0840   43.0730 N.3   342  ARG342     -0.1245
    172  CA        20.7060  -68.8340   42.0610 C.3   342  ARG342      0.1563
    173  C         21.5600  -67.8750   41.2550 C.2   342  ARG342      0.2260
    174  O         21.0980  -66.8110   40.8450 O.2   342  ARG342     -0.2867
    175  CB        19.7630  -69.6140   41.1270 C.3   342  ARG342      0.0307
    176  CG        20.4260  -70.2460   39.8850 C.3   342  ARG342      0.0489
    177  CD        19.4400  -71.1350   39.1410 C.3   342  ARG342      0.2205
    178  NE        19.9020  -71.5010   37.8090 N.pl3 342  ARG342     -0.0865
    179  CZ        19.1940  -72.2160   36.9330 C.cat 342  ARG342      0.5346
    180  NH1       17.9910  -72.6800   37.2510 N.pl3 342  ARG342      0.1354
    181  NH2       19.6940  -72.4710   35.7310 N.pl3 342  ARG342      0.1354
    182  N         24.5350  -73.4490   39.7000 N.3   374  TYR374     -0.1241
    183  CA        23.6160  -72.7140   38.8060 C.3   374  TYR374      0.1605
    184  C         22.3540  -73.5440   38.6240 C.2   374  TYR374      0.2264
    185  O         22.0330  -74.0370   37.5350 O.2   374  TYR374     -0.2867
    186  CB        24.2620  -72.2980   37.4780 C.3   374  TYR374      0.0534
    187  CG        23.4400  -71.3050   36.6770 C.ar  374  TYR374     -0.0201
    188  CD1       23.0260  -70.0960   37.2440 C.ar  374  TYR374     -0.0009
    189  CD2       23.0760  -71.5770   35.3520 C.ar  374  TYR374     -0.0009
    190  CE1       22.2710  -69.1780   36.5140 C.ar  374  TYR374      0.0417
    191  CE2       22.3150  -70.6640   34.6160 C.ar  374  TYR374      0.0417
    192  CZ        21.9180  -69.4740   35.2130 C.ar  374  TYR374      0.1957
    193  OH        21.1780  -68.5740   34.5070 O.3   374  TYR374     -0.2866
    194  N         24.7660  -81.0220   38.4260 N.3   400  ARG400     -0.1245
    195  CA        23.4990  -81.1650   39.1280 C.3   400  ARG400      0.1563
    196  C         23.4210  -82.5750   39.6980 C.2   400  ARG400      0.2260
    197  O         22.7180  -83.4500   39.1760 O.2   400  ARG400     -0.2867
    198  CB        22.3130  -80.8250   38.2160 C.3   400  ARG400      0.0307
    199  CG        22.2520  -79.3390   37.8750 C.3   400  ARG400      0.0489
    200  CD        21.1230  -78.9970   36.9240 C.3   400  ARG400      0.2205
    201  NE        21.0180  -77.5480   36.7690 N.pl3 400  ARG400     -0.0865
    202  CZ        19.9500  -76.9090   36.2980 C.cat 400  ARG400      0.5346
    203  NH1       18.8720  -77.5770   35.8990 N.pl3 400  ARG400      0.1354
    204  NH2       19.9720  -75.5950   36.2080 N.pl3 400  ARG400      0.1354
    205  N         16.2610  -79.4540   41.2070 N.3   431  TYR431     -0.1241
    206  CA        15.3290  -78.6250   41.9710 C.3   431  TYR431      0.1605
    207  C         14.8160  -79.3390   43.2100 C.2   431  TYR431      0.2264
    208  O         14.7060  -80.5680   43.2450 O.2   431  TYR431     -0.2867
    209  CB        14.1730  -78.1310   41.0970 C.3   431  TYR431      0.0534
    210  CG        14.5590  -77.0740   40.0860 C.ar  431  TYR431     -0.0201
    211  CD1       15.7850  -77.1210   39.4240 C.ar  431  TYR431     -0.0009
    212  CD2       13.6830  -76.0260   39.7790 C.ar  431  TYR431     -0.0009
    213  CE1       16.1390  -76.1610   38.4940 C.ar  431  TYR431      0.0417
    214  CE2       14.0350  -75.0500   38.8470 C.ar  431  TYR431      0.0417
    215  CZ        15.2630  -75.1300   38.2110 C.ar  431  TYR431      0.1957
    216  OH        15.6230  -74.1790   37.2890 O.3   431  TYR431     -0.2866
@<TRIPOS>BOND
     1   107   106    2
     2   106   105    1
     3   108   105    1
     4   108   109    1
     5   105   104    1
     6    44    43    1
     7    43    40    1
     8   104    98   am
     9   109   110   ar
    10   109   111   ar
    11   110   112   ar
    12    99    98    2
    13    98    97    1
    14    87    88    2
    15    87    86    1
    16   111   113   ar
    17    40    39    1
    18    40    41    1
    19    89    86    1
    20    89    90    1
    21   112   114   ar
    22    96    97    1
    23    86    85    1
    24    97   100    1
    25    92    90   ar
    26    92    94   ar
    27    45    41   am
    28    45    46    1
    29    47    48    2
    30    47    46    1
    31   113   114   ar
    32    90    91   ar
    33    41    42    2
    34   144   143    1
    35    94    95   ar
    36   138   139    1
    37    46    49    1
    38   142   143    1
    39   142   139    1
    40   102   100    1
    41   100   101    1
    42    49    50    1
    43   143   145    1
    44    53    54    1
    45    91    93   ar
    46   139   140    1
    47   140   141    2
    48   101   103    1
    49    95    93   ar
    50    52    50   ar
    51    50    51   ar
    52    31    30    2
    53    30    29    1
    54    58    60    1
    55    58    57    1
    56   115   116    1
    57    54    57    1
    58    54    55    1
    59    32    29    1
    60    32    33    1
    61    29    28    1
    62    57    59    1
    63   116   119    1
    64   116   117    1
    65   119   120    1
    66    56    55    2
    67    33    34    1
    68    68    66    1
    69    37    36    1
    70   121   120   ar
    71   121   123   ar
    72    38    36    1
    73    36    35    2
    74    67    65    1
    75   120   122   ar
    76    35    34    1
    77    65    66    1
    78    65    62    1
    79   117   118    2
    80   123   125   ar
    81   153   152    2
    82   122   124   ar
    83    61    62    1
    84    79    80    2
    85    79    78    1
    86    62    63    1
    87   152   151    1
    88   152   154   am
    89   151   150    1
    90   125   124   ar
    91    81    78    1
    92    81    82    1
    93   146   147    1
    94    10     9    1
    95    78    77    1
    96   193   192    1
    97     7     6    1
    98     7     8    1
    99    84    82   ar
   100    27    25   ar
   101   191   192   ar
   102   191   189   ar
   103    82    83   ar
   104    63    64    2
   105    63    69   am
   106   150   147    1
   107   147   148    1
   108     6     5    1
   109   192   190   ar
   110   189   187   ar
   111    24    25    1
   112    24    21    1
   113     9     8    2
   114     9    11    1
   115   137   136    1
   116    25    26   ar
   117    22    23    2
   118    22    21    1
   119   181   179    1
   120   135   136   ar
   121   135   133   ar
   122    76    74   ar
   123     5     2    1
   124    69    70    1
   125   203   202    1
   126    21    20    1
   127   136   134   ar
   128   204   202    1
   129    75    74   ar
   130    74    73    1
   131   202   201    2
   132   148   149    2
   133     1     2    1
   134   190   188   ar
   135   133   131   ar
   136   129   128    2
   137   187   188   ar
   138   187   186    1
   139   201   200    1
   140   200   199    1
   141    73    70    1
   142   179   180    1
   143   179   178    2
   144     2     3    1
   145    19    17    1
   146    17    16    1
   147    70    71    1
   148   128   127    1
   149   161   159    1
   150   216   215    1
   151   134   132   ar
   152   186   183    1
   153   185   184    2
   154   131   132   ar
   155   131   130    1
   156   178   177    1
   157   170   168   ar
   158   199   198    1
   159    72    71    2
   160   159   160    1
   161   159   156    1
   162     3     4    2
   163     3    12   am
   164   215   213   ar
   165   215   214   ar
   166   198   195    1
   167   194   195    1
   168   213   211   ar
   169   130   127    1
   170   127   126    1
   171    16    18    1
   172    16    13    1
   173   184   183    1
   174    12    13    1
   175   168   167    1
   176   168   169   ar
   177   183   182    1
   178   214   212   ar
   179   156   155    1
   180   156   157    1
   181   195   196    1
   182   177   176    1
   183   167   166    1
   184   197   196    2
   185    13    14    1
   186   211   210   ar
   187   212   210   ar
   188   162   157   am
   189   162   163    1
   190   176   175    1
   191   157   158    2
   192   210   209    1
   193   166   163    1
   194    14    15    2
   195   163   164    1
   196   174   173    2
   197   209   206    1
   198   175   172    1
   199   205   206    1
   200   173   172    1
   201   206   207    1
   202   172   171    1
   203   164   165    2
   204   207   208    2
