@<TRIPOS>MOLECULE
tmp/2ya8B00.pdb
 176 167 0 0 0
SMALL
GASTEIGER

@<TRIPOS>ATOM
      1  N         66.3130   -8.2310   23.6540 N.3    26  ARG26      -0.1231
      2  CA        65.3980   -9.2690   23.2360 C.3    26  ARG26       0.1694
      3  C         64.3670   -8.6910   22.2910 C.2    26  ARG26       0.2591
      4  O         64.1660   -7.4740   22.2080 O.2    26  ARG26      -0.2718
      5  CB        64.7150   -9.9440   24.4390 C.3    26  ARG26       0.0321
      6  CG        65.5610  -11.0330   25.1390 C.3    26  ARG26       0.0489
      7  CD        64.7150  -12.1860   25.6600 C.3    26  ARG26       0.2205
      8  NE        64.1910  -12.9470   24.5160 N.pl3  26  ARG26      -0.0865
      9  CZ        63.1970  -13.8280   24.5650 C.cat  26  ARG26       0.5346
     10  NH1       62.5770  -14.1000   25.7130 N.pl3  26  ARG26       0.1354
     11  NH2       62.8300  -14.4540   23.4480 N.pl3  26  ARG26       0.1354
     12  N         63.7410   -9.5920   21.5430 N.am   27  ILE27      -0.1980
     13  CA        62.5080   -9.2900   20.8280 C.3    27  ILE27       0.1595
     14  C         62.7210   -8.3860   19.6260 C.2    27  ILE27       0.2287
     15  O         62.2860   -7.2400   19.6120 O.2    27  ILE27      -0.2864
     16  CB        61.3840   -8.7220   21.7590 C.3    27  ILE27       0.0276
     17  CG1       61.3690   -9.3900   23.1580 C.3    27  ILE27       0.0022
     18  CG2       60.0360   -8.8080   21.0270 C.3    27  ILE27       0.0022
     19  CD1       61.1990  -10.9030   23.2260 C.3    27  ILE27       0.0001
     20  N         61.1430  -10.6590   31.1600 N.3    51  ASP51      -0.1239
     21  CA        60.1130   -9.7870   30.5690 C.3    51  ASP51       0.1674
     22  C         59.5680   -8.7800   31.5750 C.2    51  ASP51       0.2266
     23  O         58.3500   -8.5780   31.7170 O.2    51  ASP51      -0.2867
     24  CB        58.9940  -10.6690   30.0190 C.3    51  ASP51       0.1410
     25  CG        59.5070  -11.6450   28.9850 C.2    51  ASP51       0.3668
     26  OD1       59.7150  -11.2220   27.8420 O.co2  51  ASP51      -0.2456
     27  OD2       59.6920  -12.8230   29.3180 O.co2  51  ASP51      -0.2456
     28  N         57.4990   -3.9500   26.9780 N.3    95  ILE95      -0.1231
     29  CA        58.1560   -5.0660   26.3070 C.3    95  ILE95       0.1692
     30  C         57.4140   -5.3820   25.0250 C.2    95  ILE95       0.2592
     31  O         56.2120   -5.0740   24.9090 O.2    95  ILE95      -0.2718
     32  CB        58.1610   -6.3750   27.1350 C.3    95  ILE95       0.0266
     33  CG1       56.7380   -6.7470   27.5560 C.3    95  ILE95       0.0019
     34  CG2       59.1470   -6.3420   28.3090 C.3    95  ILE95       0.0020
     35  CD1       56.6300   -8.2170   27.9980 C.3    95  ILE95       0.0001
     36  N         58.1370   -5.9810   24.0750 N.am   96  ASP96      -0.1974
     37  CA        57.5700   -6.6400   22.8900 C.3    96  ASP96       0.1709
     38  C         56.9580   -5.6680   21.8960 C.2    96  ASP96       0.2293
     39  O         55.8090   -5.2500   22.0860 O.2    96  ASP96      -0.2864
     40  CB        56.4860   -7.6740   23.2720 C.3    96  ASP96       0.1436
     41  CG        57.0310   -8.8390   24.0820 C.2    96  ASP96       0.3671
     42  OD1       58.2460   -8.8810   24.3360 O.co2  96  ASP96      -0.2456
     43  OD2       56.2290   -9.7090   24.4600 O.co2  96  ASP96      -0.2456
     44  N         53.7380   -3.6050   24.5400 N.3   113  ASP113     -0.1239
     45  CA        53.0280   -3.7840   25.7970 C.3   113  ASP113      0.1674
     46  C         53.5030   -2.7930   26.8470 C.2   113  ASP113      0.2266
     47  O         54.6490   -2.3140   26.8110 O.2   113  ASP113     -0.2867
     48  CB        53.2450   -5.1960   26.3870 C.3   113  ASP113      0.1410
     49  CG        52.9430   -6.3380   25.4180 C.2   113  ASP113      0.3668
     50  OD1       52.3080   -6.1490   24.3550 O.co2 113  ASP113     -0.2456
     51  OD2       53.3290   -7.4950   25.7800 O.co2 113  ASP113     -0.2456
     52  N         53.1040   -2.5200   31.2840 N.3   115  PHE115     -0.1241
     53  CA        52.6190   -2.8560   32.6220 C.3   115  PHE115      0.1605
     54  C         53.1680   -1.8610   33.6380 C.2   115  PHE115      0.2264
     55  O         54.3290   -1.4360   33.5040 O.2   115  PHE115     -0.2867
     56  CB        53.0640   -4.2750   33.0730 C.3   115  PHE115      0.0534
     57  CG        52.7900   -5.3380   32.0530 C.ar  115  PHE115     -0.0203
     58  CD1       53.7200   -5.5910   31.0510 C.ar  115  PHE115     -0.0042
     59  CD2       51.6000   -6.0680   32.0850 C.ar  115  PHE115     -0.0042
     60  CE1       53.4660   -6.5520   30.0670 C.ar  115  PHE115     -0.0003
     61  CE2       51.3400   -7.0550   31.0860 C.ar  115  PHE115     -0.0003
     62  CZ        52.2830   -7.2910   30.1030 C.ar  115  PHE115     -0.0000
     63  N         53.9230   -9.1320   33.1970 N.3   121  ILE121     -0.1231
     64  CA        52.6200   -9.7590   33.1540 C.3   121  ILE121      0.1692
     65  C         52.3270  -10.4580   34.4810 C.2   121  ILE121      0.2592
     66  O         51.1690  -10.5800   34.8730 O.2   121  ILE121     -0.2718
     67  CB        52.5170  -10.7900   31.9900 C.3   121  ILE121      0.0266
     68  CG1       51.0420  -11.1700   31.7360 C.3   121  ILE121      0.0019
     69  CG2       53.4040  -11.9990   32.2670 C.3   121  ILE121      0.0020
     70  CD1       50.8540  -12.2400   30.6420 C.3   121  ILE121      0.0001
     71  N         53.3830  -10.9250   35.1570 N.am  122  PHE122     -0.1976
     72  CA        53.1930  -11.6400   36.4300 C.3   122  PHE122      0.1639
     73  C         52.8920  -10.7050   37.5940 C.2   122  PHE122      0.2290
     74  O         52.5990  -11.1570   38.6940 O.2   122  PHE122     -0.2864
     75  CB        54.4010  -12.5280   36.7200 C.3   122  PHE122      0.0560
     76  CG        54.6720  -13.4990   35.6300 C.ar  122  PHE122     -0.0200
     77  CD1       53.8170  -14.5750   35.4450 C.ar  122  PHE122     -0.0042
     78  CD2       55.7240  -13.3070   34.7550 C.ar  122  PHE122     -0.0042
     79  CE1       54.0290  -15.4850   34.3990 C.ar  122  PHE122     -0.0003
     80  CE2       55.9510  -14.2040   33.7090 C.ar  122  PHE122     -0.0003
     81  CZ        55.0930  -15.2960   33.5380 C.ar  122  PHE122     -0.0000
     82  N         45.2500  -10.5680   30.0550 N.3   244  PHE244     -0.1241
     83  CA        46.3410  -10.0750   29.2390 C.3   244  PHE244      0.1605
     84  C         45.8600   -9.7620   27.8260 C.2   244  PHE244      0.2264
     85  O         45.0270  -10.4740   27.2540 O.2   244  PHE244     -0.2867
     86  CB        47.4650  -11.1290   29.1950 C.3   244  PHE244      0.0534
     87  CG        48.5680  -10.8500   28.1850 C.ar  244  PHE244     -0.0203
     88  CD1       49.4910   -9.8220   28.3800 C.ar  244  PHE244     -0.0042
     89  CD2       48.7180  -11.6850   27.0600 C.ar  244  PHE244     -0.0042
     90  CE1       50.5560   -9.6030   27.4500 C.ar  244  PHE244     -0.0003
     91  CE2       49.7500  -11.4780   26.1350 C.ar  244  PHE244     -0.0003
     92  CZ        50.6920  -10.4350   26.3410 C.ar  244  PHE244     -0.0000
     93  N         47.7440  -11.2350   21.2700 N.3   269  TYR269     -0.1241
     94  CA        47.0590  -12.3580   21.8770 C.3   269  TYR269      0.1605
     95  C         46.5170  -12.0060   23.2520 C.2   269  TYR269      0.2264
     96  O         46.9990  -11.0550   23.8780 O.2   269  TYR269     -0.2867
     97  CB        47.9110  -13.6250   21.9010 C.3   269  TYR269      0.0534
     98  CG        49.2040  -13.6030   22.6720 C.ar  269  TYR269     -0.0201
     99  CD1       50.2770  -12.7710   22.2850 C.ar  269  TYR269     -0.0009
    100  CD2       49.4000  -14.4960   23.7240 C.ar  269  TYR269     -0.0009
    101  CE1       51.5160  -12.8250   22.9780 C.ar  269  TYR269      0.0417
    102  CE2       50.6090  -14.5380   24.4230 C.ar  269  TYR269      0.0417
    103  CZ        51.6440  -13.7180   24.0410 C.ar  269  TYR269      0.1957
    104  OH        52.8280  -13.8140   24.7200 O.3   269  TYR269     -0.2866
    105  N         47.3400  -17.9370   31.7790 N.3   277  LEU277     -0.1245
    106  CA        48.4690  -18.4090   30.9610 C.3   277  LEU277      0.1561
    107  C         48.5260  -19.9350   30.8660 C.2   277  LEU277      0.2260
    108  O         49.3440  -20.4940   30.1150 O.2   277  LEU277     -0.2867
    109  CB        49.7950  -17.8850   31.5360 C.3   277  LEU277      0.0270
    110  CG        49.9940  -16.3750   31.3830 C.3   277  LEU277      0.0019
    111  CD1       51.2230  -15.9080   32.1870 C.3   277  LEU277      0.0001
    112  CD2       50.1490  -15.9660   29.9200 C.3   277  LEU277      0.0001
    113  N         45.7640  -18.6240   26.2570 N.3   281  GLN281     -0.1245
    114  CA        46.4640  -17.7550   25.2820 C.3   281  GLN281      0.1566
    115  C         45.8790  -17.9640   23.8910 C.2   281  GLN281      0.2260
    116  O         45.7980  -19.1060   23.4080 O.2   281  GLN281     -0.2867
    117  CB        47.9510  -18.0580   25.2810 C.3   281  GLN281      0.0367
    118  CG        48.5660  -17.7790   26.6390 C.3   281  GLN281      0.0905
    119  CD        50.0140  -18.1780   26.7000 C.2   281  GLN281      0.2608
    120  OE1       50.8860  -17.4830   26.1790 O.2   281  GLN281     -0.2717
    121  NE2       50.2820  -19.3200   27.3380 N.am  281  GLN281     -0.0878
    122  N         51.8310  -15.7010   20.3320 N.3   326  GLU326     -0.1245
    123  CA        52.4390  -14.7900   19.3930 C.3   326  GLU326      0.1567
    124  C         52.2770  -15.3500   17.9860 C.2   326  GLU326      0.2260
    125  O         52.3400  -16.5530   17.7860 O.2   326  GLU326     -0.2867
    126  CB        53.9210  -14.6330   19.7070 C.3   326  GLU326      0.0388
    127  CG        54.1870  -14.2640   21.1400 C.3   326  GLU326      0.1160
    128  CD        55.6050  -14.5740   21.5480 C.2   326  GLU326      0.3649
    129  OE1       56.1540  -15.5780   21.0460 O.co2 326  GLU326     -0.2457
    130  OE2       56.1640  -13.8130   22.3550 O.co2 326  GLU326     -0.2457
    131  N         52.4020  -19.3180   17.0540 N.3   342  ARG342     -0.1245
    132  CA        53.1380  -20.0790   18.0660 C.3   342  ARG342      0.1563
    133  C         52.1850  -20.9300   18.8850 C.2   342  ARG342      0.2260
    134  O         51.1770  -20.4320   19.4240 O.2   342  ARG342     -0.2867
    135  CB        53.9150  -19.1240   18.9860 C.3   342  ARG342      0.0307
    136  CG        54.5090  -19.7760   20.2040 C.3   342  ARG342      0.0489
    137  CD        55.3680  -18.7910   21.0170 C.3   342  ARG342      0.2205
    138  NE        55.7000  -19.3290   22.3260 N.pl3 342  ARG342     -0.0865
    139  CZ        56.5480  -18.7460   23.1830 C.cat 342  ARG342      0.5346
    140  NH1       57.1460  -17.6200   22.8510 N.pl3 342  ARG342      0.1354
    141  NH2       56.7950  -19.3030   24.3590 N.pl3 342  ARG342      0.1354
    142  N         57.6670  -24.0310   20.1590 N.3   374  TYR374     -0.1241
    143  CA        57.0290  -23.0770   21.0790 C.3   374  TYR374      0.1605
    144  C         57.9110  -21.8420   21.2330 C.2   374  TYR374      0.2264
    145  O         58.5110  -21.6060   22.2780 O.2   374  TYR374     -0.2867
    146  CB        56.6550  -23.7190   22.4170 C.3   374  TYR374      0.0534
    147  CG        55.6460  -22.9280   23.2340 C.ar  374  TYR374     -0.0201
    148  CD1       54.4570  -22.4530   22.6580 C.ar  374  TYR374     -0.0009
    149  CD2       55.8710  -22.6690   24.5770 C.ar  374  TYR374     -0.0009
    150  CE1       53.5320  -21.7330   23.4180 C.ar  374  TYR374      0.0417
    151  CE2       54.9450  -21.9450   25.3480 C.ar  374  TYR374      0.0417
    152  CZ        53.7820  -21.4900   24.7560 C.ar  374  TYR374      0.1957
    153  OH        52.8620  -20.7930   25.5180 O.3   374  TYR374     -0.2866
    154  N         65.5060  -24.1360   21.3920 N.3   400  ARG400     -0.1245
    155  CA        65.6030  -22.8650   20.7050 C.3   400  ARG400      0.1563
    156  C         66.9850  -22.7540   20.0840 C.2   400  ARG400      0.2260
    157  O         67.9020  -22.1250   20.6360 O.2   400  ARG400     -0.2867
    158  CB        65.2590  -21.7090   21.6420 C.3   400  ARG400      0.0307
    159  CG        63.8070  -21.7960   22.1340 C.3   400  ARG400      0.0489
    160  CD        63.4460  -20.6270   23.0350 C.3   400  ARG400      0.2205
    161  NE        62.0080  -20.5740   23.2250 N.pl3 400  ARG400     -0.0865
    162  CZ        61.3400  -19.5200   23.6850 C.cat 400  ARG400      0.5346
    163  NH1       61.9810  -18.4030   24.0290 N.pl3 400  ARG400      0.1354
    164  NH2       60.0220  -19.5890   23.7990 N.pl3 400  ARG400      0.1354
    165  N         63.7090  -15.6250   18.8170 N.3   431  TYR431     -0.1241
    166  CA        62.8150  -14.7230   18.1050 C.3   431  TYR431      0.1605
    167  C         63.5040  -14.1300   16.8760 C.2   431  TYR431      0.2264
    168  O         64.7330  -13.9700   16.8520 O.2   431  TYR431     -0.2867
    169  CB        62.2950  -13.6160   19.0270 C.3   431  TYR431      0.0534
    170  CG        61.2670  -14.0390   20.0600 C.ar  431  TYR431     -0.0201
    171  CD1       61.2800  -15.3140   20.6570 C.ar  431  TYR431     -0.0009
    172  CD2       60.2680  -13.1400   20.4470 C.ar  431  TYR431     -0.0009
    173  CE1       60.3190  -15.6720   21.6210 C.ar  431  TYR431      0.0417
    174  CE2       59.3040  -13.4870   21.3870 C.ar  431  TYR431      0.0417
    175  CZ        59.3410  -14.7370   21.9750 C.ar  431  TYR431      0.1957
    176  OH        58.3820  -15.0410   22.8860 O.3   431  TYR431     -0.2866
@<TRIPOS>BOND
     1   168   167    2
     2   167   166    1
     3   131   132    1
     4   125   124    2
     5   124   123    1
     6   132   133    1
     7   132   135    1
     8   166   165    1
     9   166   169    1
    10   133   134    2
    11   135   136    1
    12   169   170    1
    13   123   126    1
    14   123   122    1
    15    15    14    2
    16    14    13    1
    17   126   127    1
    18   170   172   ar
    19   170   171   ar
    20   156   157    2
    21   156   155    1
    22   142   143    1
    23   136   137    1
    24   172   174   ar
    25   171   173   ar
    26   155   154    1
    27   155   158    1
    28    13    12    1
    29    13    16    1
    30   137   138    1
    31    18    16    1
    32   129   128   ar
    33   143   144    1
    34   143   146    1
    35   127   128    1
    36   144   145    2
    37    93    94    1
    38   174   175   ar
    39    12     3   am
    40   128   130   ar
    41   173   175   ar
    42   158   159    1
    43    16    17    1
    44    94    97    1
    45    94    95    1
    46    38    39    2
    47    38    37    1
    48    97    98    1
    49   175   176    1
    50   159   160    1
    51     4     3    2
    52    99    98   ar
    53    99   101   ar
    54     3     2    1
    55   138   139    2
    56   146   147    1
    57   148   147   ar
    58   148   150   ar
    59    98   100   ar
    60   140   139    1
    61    37    40    1
    62    37    36    1
    63   101   103   ar
    64   160   161    1
    65    17    19    1
    66   139   141    1
    67   161   162    2
    68   147   149   ar
    69     2     1    1
    70     2     5    1
    71    95    96    2
    72    40    41    1
    73   116   115    2
    74   150   152   ar
    75    11     9    1
    76   162   164    1
    77   162   163    1
    78   100   102   ar
    79   115   114    1
    80   103   102   ar
    81   103   104    1
    82    36    30   am
    83    41    42   ar
    84    41    43   ar
    85    50    49   ar
    86     5     6    1
    87     8     9    2
    88     8     7    1
    89    44    45    1
    90     9    10    1
    91   149   151   ar
    92   152   151   ar
    93   152   153    1
    94    31    30    2
    95    30    29    1
    96     6     7    1
    97   117   114    1
    98   117   118    1
    99   114   113    1
   100    49    51   ar
   101    49    48    1
   102    45    48    1
   103    45    46    1
   104    91    92   ar
   105    91    89   ar
   106   120   119    2
   107    29    28    1
   108    29    32    1
   109    92    90   ar
   110   118   119    1
   111   119   121   am
   112    47    46    2
   113    89    87   ar
   114    32    33    1
   115    32    34    1
   116    85    84    2
   117    90    88   ar
   118    33    35    1
   119    84    83    1
   120    26    25   ar
   121    87    88   ar
   122    87    86    1
   123    25    27   ar
   124    25    24    1
   125    86    83    1
   126    83    82    1
   127   112   110    1
   128    24    21    1
   129    60    62   ar
   130    60    58   ar
   131    62    61   ar
   132   108   107    2
   133    21    20    1
   134    21    22    1
   135    70    68    1
   136   107   106    1
   137   106   109    1
   138   106   105    1
   139    58    57   ar
   140    61    59   ar
   141    52    53    1
   142   110   109    1
   143   110   111    1
   144    22    23    2
   145    68    67    1
   146    67    69    1
   147    67    64    1
   148    57    59   ar
   149    57    56    1
   150    53    56    1
   151    53    54    1
   152    64    63    1
   153    64    65    1
   154    55    54    2
   155    81    80   ar
   156    81    79   ar
   157    80    78   ar
   158    79    77   ar
   159    65    66    2
   160    65    71   am
   161    78    76   ar
   162    71    72    1
   163    77    76   ar
   164    76    75    1
   165    72    75    1
   166    72    73    1
   167    73    74    2
