@<TRIPOS>MOLECULE
tmp/2yaaA00.pdb
 195 182 0 0 0
SMALL
GASTEIGER

@<TRIPOS>ATOM
      1  N        -23.3740  -16.2310  -28.8970 N.3    18  LEU18      -0.1231
      2  CA       -23.7700  -15.2730  -27.8680 C.3    18  LEU18       0.1693
      3  C        -24.9270  -14.4070  -28.3500 C.2    18  LEU18       0.2593
      4  O        -25.9460  -14.2560  -27.6680 O.2    18  LEU18      -0.2718
      5  CB       -22.5900  -14.3720  -27.5040 C.3    18  LEU18       0.0284
      6  CG       -21.7300  -14.8340  -26.3310 C.3    18  LEU18       0.0019
      7  CD1      -21.9620  -16.3070  -26.0580 C.3    18  LEU18       0.0001
      8  CD2      -20.2570  -14.5390  -26.5810 C.3    18  LEU18       0.0001
      9  N        -24.7460  -13.8220  -29.5270 N.am   19  GLY19      -0.1942
     10  CA       -25.7480  -12.9650  -30.1210 C.3    19  GLY19       0.2014
     11  C        -25.3350  -12.6290  -31.5380 C.2    19  GLY19       0.2640
     12  O        -24.2260  -12.9620  -31.9720 O.2    19  GLY19      -0.2714
     13  N        -26.2230  -11.9710  -32.2700 N.am   20  SER20      -0.1935
     14  CA       -25.9050  -11.5780  -33.6320 C.3    20  SER20       0.2055
     15  C        -26.3930  -10.1690  -33.9280 C.2    20  SER20       0.2644
     16  O        -27.2050   -9.6100  -33.1930 O.2    20  SER20      -0.2714
     17  CB       -26.4840  -12.5800  -34.6330 C.3    20  SER20       0.2130
     18  OG       -27.7910  -12.9840  -34.2580 O.3    20  SER20      -0.2179
     19  N        -25.8750   -9.5950  -35.0040 N.am   21  GLY21      -0.1939
     20  CA       -26.2620   -8.2630  -35.4180 C.3    21  GLY21       0.2014
     21  C        -26.4180   -8.1920  -36.9220 C.2    21  GLY21       0.2639
     22  O        -26.6360   -9.2100  -37.5820 O.2    21  GLY21      -0.2714
     23  N        -26.2960   -6.9860  -37.4620 N.am   22  GLN22      -0.1963
     24  CA       -26.4900   -6.7570  -38.8870 C.3    22  GLN22       0.1733
     25  C        -25.4530   -7.4990  -39.7250 C.2    22  GLN22       0.2616
     26  O        -25.7990   -8.2390  -40.6460 O.2    22  GLN22      -0.2715
     27  CB       -26.4420   -5.2570  -39.1840 C.3    22  GLN22       0.0408
     28  CG       -27.1920   -4.8400  -40.4370 C.3    22  GLN22       0.0908
     29  CD       -27.9050   -3.5080  -40.2680 C.2    22  GLN22       0.2608
     30  OE1      -29.1260   -3.4620  -40.1120 O.2    22  GLN22      -0.2717
     31  NE2      -27.1450   -2.4180  -40.2960 N.am   22  GLN22      -0.0878
     32  N        -24.1810   -7.3080  -39.3900 N.am   23  PHE23      -0.1960
     33  CA       -23.0870   -7.8560  -40.1840 C.3    23  PHE23       0.1771
     34  C        -22.1300   -8.6800  -39.3310 C.2    23  PHE23       0.2619
     35  O        -21.1460   -9.2280  -39.8340 O.2    23  PHE23      -0.2715
     36  CB       -22.3240   -6.7230  -40.8710 C.3    23  PHE23       0.0574
     37  CG       -22.9350   -5.3660  -40.6560 C.ar   23  PHE23      -0.0200
     38  CD1      -22.8740   -4.7530  -39.4130 C.ar   23  PHE23      -0.0042
     39  CD2      -23.5820   -4.7100  -41.6920 C.ar   23  PHE23      -0.0042
     40  CE1      -23.4410   -3.5090  -39.2090 C.ar   23  PHE23      -0.0003
     41  CE2      -24.1490   -3.4650  -41.4940 C.ar   23  PHE23      -0.0003
     42  CZ       -24.0770   -2.8640  -40.2510 C.ar   23  PHE23      -0.0000
     43  N        -22.4220   -8.7680  -38.0390 N.am   24  ALA24      -0.1977
     44  CA       -21.5730   -9.5240  -37.1330 C.3    24  ALA24       0.1597
     45  C        -22.3180  -10.6920  -36.5050 C.2    24  ALA24       0.2287
     46  O        -23.5370  -10.6640  -36.3680 O.2    24  ALA24      -0.2864
     47  CB       -21.0050   -8.6160  -36.0530 C.3    24  ALA24       0.0319
     48  N        -21.5590  -13.1460  -33.0020 N.3    26  VAL26      -0.1245
     49  CA       -20.6870  -13.2210  -31.8420 C.3    26  VAL26       0.1561
     50  C        -20.8070  -14.5740  -31.1460 C.2    26  VAL26       0.2260
     51  O        -21.9070  -15.0310  -30.8510 O.2    26  VAL26      -0.2867
     52  CB       -21.0230  -12.0950  -30.8470 C.3    26  VAL26       0.0252
     53  CG1      -19.9840  -12.0340  -29.7350 C.3    26  VAL26       0.0019
     54  CG2      -21.1120  -10.7610  -31.5740 C.3    26  VAL26       0.0019
     55  N        -15.1640  -13.6020  -26.1620 N.3    39  ALA39      -0.1245
     56  CA       -16.2400  -13.5330  -27.1420 C.3    39  ALA39       0.1562
     57  C        -15.6350  -13.1900  -28.4950 C.2    39  ALA39       0.2260
     58  O        -14.9100  -12.2010  -28.6170 O.2    39  ALA39      -0.2867
     59  CB       -17.2720  -12.4940  -26.7360 C.3    39  ALA39       0.0290
     60  N        -16.2180  -11.9090  -32.1230 N.3    41  LYS41      -0.1245
     61  CA       -17.1620  -11.1830  -32.9550 C.3    41  LYS41       0.1561
     62  C        -16.7350  -11.2630  -34.4140 C.2    41  LYS41       0.2260
     63  O        -15.7910  -10.5900  -34.8230 O.2    41  LYS41      -0.2867
     64  CB       -17.2450   -9.7210  -32.5180 C.3    41  LYS41       0.0271
     65  CG       -18.2370   -8.8980  -33.3230 C.3    41  LYS41       0.0035
     66  CD       -18.1680   -7.4310  -32.9500 C.3    41  LYS41       0.0206
     67  CE       -19.2300   -6.6300  -33.6950 C.3    41  LYS41       0.1093
     68  NZ       -19.1660   -5.1640  -33.4050 N.3    41  LYS41      -0.1314
     69  N        -17.0560  -10.2190  -37.9150 N.3    43  ILE43      -0.1245
     70  CA       -17.6130   -9.1470  -38.7300 C.3    43  ILE43       0.1561
     71  C        -17.4220   -9.4430  -40.2100 C.2    43  ILE43       0.2260
     72  O        -16.2940   -9.4990  -40.7040 O.2    43  ILE43      -0.2867
     73  CB       -16.9830   -7.7790  -38.4020 C.3    43  ILE43       0.0252
     74  CG1      -17.1120   -7.4740  -36.9110 C.3    43  ILE43       0.0019
     75  CG2      -17.6450   -6.6760  -39.2160 C.3    43  ILE43       0.0019
     76  CD1      -16.5260   -6.1420  -36.5170 C.3    43  ILE43       0.0001
     77  N        -16.0480   -2.8950  -22.3510 N.3    76  ILE76      -0.1245
     78  CA       -15.4460   -4.1420  -22.8010 C.3    76  ILE76       0.1561
     79  C        -14.0170   -3.8990  -23.2570 C.2    76  ILE76       0.2260
     80  O        -13.6430   -2.7810  -23.6290 O.2    76  ILE76      -0.2867
     81  CB       -16.2220   -4.8060  -23.9480 C.3    76  ILE76       0.0252
     82  CG1      -16.4970   -3.7920  -25.0580 C.3    76  ILE76       0.0019
     83  CG2      -17.5050   -5.4210  -23.4300 C.3    76  ILE76       0.0019
     84  CD1      -16.7030   -4.4170  -26.4150 C.3    76  ILE76       0.0001
     85  N        -12.9680  -10.3830  -28.0150 N.3    92  LEU92      -0.1231
     86  CA       -13.3630   -9.4200  -26.9960 C.3    92  LEU92       0.1693
     87  C        -13.5140  -10.0550  -25.6170 C.2    92  LEU92       0.2592
     88  O        -13.6990  -11.2640  -25.4880 O.2    92  LEU92      -0.2718
     89  CB       -14.6990   -8.7710  -27.3830 C.3    92  LEU92       0.0284
     90  CG       -14.8370   -8.1680  -28.7840 C.3    92  LEU92       0.0019
     91  CD1      -16.2850   -7.8030  -29.0620 C.3    92  LEU92       0.0001
     92  CD2      -13.9430   -6.9540  -28.9420 C.3    92  LEU92       0.0001
     93  N        -13.4450   -9.2200  -24.5890 N.am   93  GLU93      -0.1966
     94  CA       -13.8030   -9.6390  -23.2450 C.3    93  GLU93       0.1733
     95  C        -15.2200  -10.2160  -23.2540 C.2    93  GLU93       0.2616
     96  O        -16.1590   -9.5760  -23.7310 O.2    93  GLU93      -0.2715
     97  CB       -13.7190   -8.4520  -22.2800 C.3    93  GLU93       0.0429
     98  CG       -14.1720   -8.7710  -20.8620 C.3    93  GLU93       0.1163
     99  CD       -14.1700   -7.5520  -19.9610 C.2    93  GLU93       0.3649
    100  OE1      -14.0710   -6.4230  -20.4870 O.co2  93  GLU93      -0.2457
    101  OE2      -14.2610   -7.7220  -18.7260 O.co2  93  GLU93      -0.2457
    102  N        -15.3630  -11.4320  -22.7390 N.am   94  LEU94      -0.1963
    103  CA       -16.6630  -12.0860  -22.6570 C.3    94  LEU94       0.1728
    104  C        -17.5140  -11.4990  -21.5300 C.2    94  LEU94       0.2616
    105  O        -17.0870  -11.4610  -20.3780 O.2    94  LEU94      -0.2715
    106  CB       -16.4790  -13.5890  -22.4350 C.3    94  LEU94       0.0311
    107  CG       -17.7210  -14.3980  -22.0520 C.3    94  LEU94       0.0022
    108  CD1      -18.7230  -14.4300  -23.2060 C.3    94  LEU94       0.0001
    109  CD2      -17.3270  -15.8070  -21.6380 C.3    94  LEU94       0.0001
    110  N        -18.7170  -11.0430  -21.8720 N.am   95  VAL95      -0.1977
    111  CA       -19.6630  -10.5300  -20.8860 C.3    95  VAL95       0.1596
    112  C        -20.8240  -11.5130  -20.7550 C.2    95  VAL95       0.2287
    113  O        -21.6500  -11.6240  -21.6600 O.2    95  VAL95      -0.2864
    114  CB       -20.2160   -9.1460  -21.2970 C.3    95  VAL95       0.0276
    115  CG1      -20.9400   -8.4990  -20.1310 C.3    95  VAL95       0.0022
    116  CG2      -19.0910   -8.2400  -21.7870 C.3    95  VAL95       0.0022
    117  N        -28.2250   -8.7760  -20.5240 N.3    99  GLU99      -0.1245
    118  CA       -28.5300   -7.3470  -20.5600 C.3    99  GLU99       0.1567
    119  C        -28.9830   -6.8310  -19.1950 C.2    99  GLU99       0.2260
    120  O        -29.5130   -7.5890  -18.3840 O.2    99  GLU99      -0.2867
    121  CB       -29.6030   -7.0500  -21.6160 C.3    99  GLU99       0.0388
    122  CG       -29.1980   -7.4030  -23.0410 C.3    99  GLU99       0.1160
    123  CD       -30.2590   -7.0240  -24.0660 C.2    99  GLU99       0.3649
    124  OE1      -31.2180   -6.3060  -23.7020 O.co2  99  GLU99      -0.2457
    125  OE2      -30.1310   -7.4440  -25.2360 O.co2  99  GLU99      -0.2457
    126  N        -24.0010    4.7130  -29.9770 N.3   138  ASP138     -0.1239
    127  CA       -24.9140    3.5710  -30.0080 C.3   138  ASP138      0.1674
    128  C        -25.3630    3.1510  -28.6090 C.2   138  ASP138      0.2266
    129  O        -25.5490    1.9630  -28.3280 O.2   138  ASP138     -0.2867
    130  CB       -24.3090    2.3900  -30.7850 C.3   138  ASP138      0.1410
    131  CG       -25.3730    1.4440  -31.3230 C.2   138  ASP138      0.3668
    132  OD1      -26.5640    1.8090  -31.2700 O.co2 138  ASP138     -0.2456
    133  OD2      -25.0280    0.3430  -31.7960 O.co2 138  ASP138     -0.2456
    134  N        -27.7830    2.3010  -25.9990 N.3   140  LYS140     -0.1245
    135  CA       -29.1440    1.8070  -25.9210 C.3   140  LYS140      0.1561
    136  C        -29.1200    0.5670  -25.0460 C.2   140  LYS140      0.2260
    137  O        -28.0620   -0.0460  -24.8790 O.2   140  LYS140     -0.2867
    138  CB       -29.6780    1.4700  -27.3130 C.3   140  LYS140      0.0271
    139  CG       -28.8950    0.3980  -28.0420 C.3   140  LYS140      0.0035
    140  CD       -29.4620    0.1750  -29.4400 C.3   140  LYS140      0.0206
    141  CE       -28.6830   -0.8880  -30.2010 C.3   140  LYS140      0.1093
    142  NZ       -29.2660   -1.1350  -31.5490 N.3   140  LYS140     -0.1314
    143  N        -29.7820   -2.6550  -25.1120 N.3   142  GLU142     -0.1231
    144  CA       -29.1290   -3.9090  -25.4800 C.3   142  GLU142      0.1699
    145  C        -27.5950   -3.8450  -25.4750 C.2   142  GLU142      0.2592
    146  O        -26.9330   -4.8800  -25.4060 O.2   142  GLU142     -0.2718
    147  CB       -29.6550   -4.4480  -26.8150 C.3   142  GLU142      0.0402
    148  CG       -29.2970   -3.6170  -28.0300 C.3   142  GLU142      0.1161
    149  CD       -29.9850   -4.1220  -29.2900 C.2   142  GLU142      0.3649
    150  OE1      -31.1330   -3.6980  -29.5530 O.co2 142  GLU142     -0.2457
    151  OE2      -29.3800   -4.9470  -30.0120 O.co2 142  GLU142     -0.2457
    152  N        -27.0330   -2.6400  -25.5340 N.am  143  ASN143     -0.1974
    153  CA       -25.5770   -2.4780  -25.4650 C.3   143  ASN143      0.1688
    154  C        -25.0930   -2.2190  -24.0420 C.2   143  ASN143      0.2292
    155  O        -23.9430   -1.8350  -23.8130 O.2   143  ASN143     -0.2864
    156  CB       -25.0980   -1.3670  -26.4010 C.3   143  ASN143      0.1181
    157  CG       -25.2140   -1.7480  -27.8620 C.2   143  ASN143      0.2629
    158  OD1      -25.2310   -2.9270  -28.2070 O.2   143  ASN143     -0.2716
    159  ND2      -25.2990   -0.7490  -28.7280 N.am  143  ASN143     -0.0877
    160  N        -24.6660   -4.2980  -20.8510 N.3   145  MET145     -0.1245
    161  CA       -24.6720   -5.6570  -20.3180 C.3   145  MET145      0.1570
    162  C        -24.0370   -5.7660  -18.9340 C.2   145  MET145      0.2261
    163  O        -23.5280   -4.7880  -18.3860 O.2   145  MET145     -0.2867
    164  CB       -23.9880   -6.6190  -21.2940 C.3   145  MET145      0.0387
    165  CG       -24.6490   -6.6680  -22.6640 C.3   145  MET145      0.0595
    166  SD       -23.9060   -7.8840  -23.7580 S.3   145  MET145     -0.1393
    167  CE       -24.3110   -9.4190  -22.9230 C.3   145  MET145      0.0692
    168  N        -20.9170   -2.3740  -24.5450 N.3   159  ILE159     -0.1231
    169  CA       -20.3790   -3.1150  -25.6810 C.3   159  ILE159      0.1692
    170  C        -20.6900   -2.3950  -26.9830 C.2   159  ILE159      0.2592
    171  O        -21.2120   -1.2790  -26.9740 O.2   159  ILE159     -0.2718
    172  CB       -20.9830   -4.5310  -25.7710 C.3   159  ILE159      0.0266
    173  CG1      -22.4740   -4.4520  -26.0970 C.3   159  ILE159      0.0019
    174  CG2      -20.7820   -5.2910  -24.4720 C.3   159  ILE159      0.0020
    175  CD1      -23.1160   -5.8090  -26.3410 C.3   159  ILE159      0.0001
    176  N        -20.3570   -3.0510  -28.0930 N.am  160  ASP160     -0.1974
    177  CA       -20.7780   -2.6440  -29.4380 C.3   160  ASP160      0.1709
    178  C        -20.2790   -1.2690  -29.8600 C.2   160  ASP160      0.2293
    179  O        -21.0060   -0.2780  -29.7710 O.2   160  ASP160     -0.2864
    180  CB       -22.2980   -2.7020  -29.5660 C.3   160  ASP160      0.1436
    181  CG       -22.7670   -2.5250  -31.0010 C.2   160  ASP160      0.3671
    182  OD1      -21.9080   -2.5370  -31.9130 O.co2 160  ASP160     -0.2456
    183  OD2      -23.9900   -2.3920  -31.2160 O.co2 160  ASP160     -0.2456
    184  N        -19.4280   -0.3880  -32.9230 N.3   162  GLY162     -0.1210
    185  CA       -19.5740   -0.2890  -34.3640 C.3   162  GLY162      0.1956
    186  C        -19.8040    1.1220  -34.8720 C.2   162  GLY162      0.2611
    187  O        -19.4070    1.4560  -35.9810 O.2   162  GLY162     -0.2717
    188  N        -20.4440    1.9580  -34.0610 N.am  163  LEU163     -0.1979
    189  CA       -20.7630    3.3220  -34.4800 C.3   163  LEU163      0.1596
    190  C        -19.8830    4.3500  -33.7690 C.2   163  LEU163      0.2287
    191  O        -19.9950    5.5520  -34.0060 O.2   163  LEU163     -0.2864
    192  CB       -22.2410    3.6310  -34.2310 C.3   163  LEU163      0.0297
    193  CG       -23.2590    2.8390  -35.0570 C.3   163  LEU163      0.0022
    194  CD1      -24.6910    3.2020  -34.6540 C.3   163  LEU163      0.0001
    195  CD2      -23.0460    3.0580  -36.5520 C.3   163  LEU163      0.0001
@<TRIPOS>BOND
     1    39    41   ar
     2    39    37   ar
     3    41    42   ar
     4    36    37    1
     5    36    33    1
     6    72    71    2
     7    37    38   ar
     8    26    25    2
     9    28    29    1
    10    28    27    1
    11    31    29   am
    12    29    30    2
    13    42    40   ar
    14    71    70    1
    15    33    32    1
    16    33    34    1
    17    35    34    2
    18    25    32   am
    19    25    24    1
    20    38    40   ar
    21    34    43   am
    22    75    73    1
    23    27    24    1
    24    24    23    1
    25    70    73    1
    26    70    69    1
    27    73    74    1
    28    43    44    1
    29    22    21    2
    30    23    21   am
    31    44    45    1
    32    44    47    1
    33    21    20    1
    34    74    76    1
    35   195   193    1
    36    45    46    2
    37   187   186    2
    38    20    19    1
    39   193   194    1
    40   193   192    1
    41    19    15   am
    42   186   185    1
    43   186   188   am
    44    63    62    2
    45    17    18    1
    46    17    14    1
    47   189   192    1
    48   189   188    1
    49   189   190    1
    50    62    61    1
    51   185   184    1
    52   191   190    2
    53    15    14    1
    54    15    16    2
    55    67    68    1
    56    67    66    1
    57    14    13    1
    58    65    66    1
    59    65    64    1
    60    48    49    1
    61    61    64    1
    62    61    60    1
    63    13    11   am
    64    12    11    2
    65   182   181   ar
    66    49    50    1
    67    49    52    1
    68   133   131   ar
    69    54    52    1
    70   142   141    1
    71    11    10    1
    72   131   132   ar
    73   131   130    1
    74   183   181   ar
    75    50    51    2
    76   181   180    1
    77    52    53    1
    78   130   127    1
    79   141   140    1
    80    10     9    1
    81   151   149   ar
    82   127   126    1
    83   127   128    1
    84   178   179    2
    85   178   177    1
    86   180   177    1
    87   150   149   ar
    88     9     3   am
    89   140   139    1
    90   177   176    1
    91   149   148    1
    92    91    90    1
    93    92    90    1
    94     1     2    1
    95    90    89    1
    96   159   157   am
    97    58    57    2
    98   128   129    2
    99    57    56    1
   100     3     2    1
   101     3     4    2
   102   158   157    2
   103   176   170   am
   104   139   138    1
   105   148   147    1
   106    85    86    1
   107     2     5    1
   108   157   156    1
   109     5     6    1
   110    89    86    1
   111   138   135    1
   112    56    59    1
   113    56    55    1
   114    86    87    1
   115   170   171    2
   116   170   169    1
   117   147   144    1
   118     8     6    1
   119    84    82    1
   120   156   153    1
   121   175   173    1
   122     6     7    1
   123   173   172    1
   124   134   135    1
   125   135   136    1
   126   172   169    1
   127   172   174    1
   128   169   168    1
   129    87    88    2
   130    87    93   am
   131   152   145   am
   132   152   153    1
   133   144   145    1
   134   144   143    1
   135   145   146    2
   136   153   154    1
   137   125   123   ar
   138    82    81    1
   139   136   137    2
   140    93    94    1
   141   123   124   ar
   142   123   122    1
   143   154   155    2
   144    81    83    1
   145    81    78    1
   146   166   167    1
   147   166   165    1
   148    96    95    2
   149    80    79    2
   150    79    78    1
   151    95    94    1
   152    95   102   am
   153    94    97    1
   154   108   107    1
   155   122   121    1
   156    78    77    1
   157   102   103    1
   158   165   164    1
   159   103   106    1
   160   103   104    1
   161   106   107    1
   162    97    98    1
   163   107   109    1
   164   110   104   am
   165   110   111    1
   166   116   114    1
   167   113   112    2
   168   121   118    1
   169   104   105    2
   170   114   111    1
   171   114   115    1
   172   164   161    1
   173   111   112    1
   174    98    99    1
   175   160   161    1
   176   118   117    1
   177   118   119    1
   178   100    99   ar
   179   161   162    1
   180    99   101   ar
   181   119   120    2
   182   162   163    2
