@<TRIPOS>MOLECULE
tmp/2yabB00.pdb
 147 136 0 0 0
SMALL
GASTEIGER

@<TRIPOS>ATOM
      1  N        -39.3850  -17.2920  -53.8110 N.3    17  LEU17      -0.1231
      2  CA       -38.9200  -16.5300  -54.9660 C.3    17  LEU17       0.1693
      3  C        -37.9010  -15.4750  -54.5740 C.2    17  LEU17       0.2593
      4  O        -37.0110  -15.1310  -55.3510 O.2    17  LEU17      -0.2718
      5  CB       -40.1060  -15.8460  -55.6480 C.3    17  LEU17       0.0284
      6  CG       -41.0850  -16.8440  -56.2650 C.3    17  LEU17       0.0019
      7  CD1      -42.2540  -16.1380  -56.9070 C.3    17  LEU17       0.0001
      8  CD2      -40.3540  -17.7210  -57.2830 C.3    17  LEU17       0.0001
      9  N        -38.0420  -14.9450  -53.3700 N.am   18  GLY18      -0.1942
     10  CA       -37.1230  -13.9290  -52.8970 C.3    18  GLY18       0.2014
     11  C        -37.4900  -13.5140  -51.4970 C.2    18  GLY18       0.2640
     12  O        -38.4340  -14.0380  -50.9120 O.2    18  GLY18      -0.2714
     13  N        -36.7430  -12.5710  -50.9480 N.am   19  SER19      -0.1935
     14  CA       -37.0200  -12.1130  -49.6060 C.3    19  SER19       0.2055
     15  C        -36.4800  -10.7070  -49.4400 C.2    19  SER19       0.2644
     16  O        -35.6770  -10.2400  -50.2480 O.2    19  SER19      -0.2714
     17  CB       -36.3670  -13.0520  -48.5880 C.3    19  SER19       0.2130
     18  OG       -34.9550  -13.0540  -48.7360 O.3    19  SER19      -0.2179
     19  N        -36.9360  -10.0440  -48.3850 N.am   20  GLY20      -0.1939
     20  CA       -36.4010   -8.7610  -47.9870 C.3    20  GLY20       0.2014
     21  C        -36.4620   -8.6700  -46.4760 C.2    20  GLY20       0.2638
     22  O        -36.8870   -9.6130  -45.8010 O.2    20  GLY20      -0.2714
     23  N        -36.0120   -7.5520  -45.9290 N.am   21  GLN21      -0.1977
     24  CA       -36.2720   -7.2730  -44.5330 C.3    21  GLN21       0.1601
     25  C        -37.7870   -7.3350  -44.3880 C.2    21  GLN21       0.2287
     26  O        -38.5010   -6.7110  -45.1730 O.2    21  GLN21      -0.2864
     27  CB       -35.7580   -5.8810  -44.1660 C.3    21  GLN21       0.0394
     28  CG       -35.1590   -5.7750  -42.7750 C.3    21  GLN21       0.0908
     29  CD       -34.9390   -4.3330  -42.3500 C.2    21  GLN21       0.2608
     30  OE1      -35.3810   -3.4010  -43.0230 O.2    21  GLN21      -0.2717
     31  NE2      -34.2560   -4.1430  -41.2270 N.am   21  GLN21      -0.0878
     32  N        -40.0820   -9.5130  -45.0910 N.3    23  ALA23      -0.1245
     33  CA       -40.9490  -10.2240  -46.0270 C.3    23  ALA23       0.1562
     34  C        -40.3170  -11.4350  -46.7060 C.2    23  ALA23       0.2260
     35  O        -39.1250  -11.4520  -47.0120 O.2    23  ALA23      -0.2867
     36  CB       -41.4630   -9.2600  -47.0750 C.3    23  ALA23       0.0290
     37  N        -41.3060  -13.9380  -50.0450 N.3    25  VAL25      -0.1245
     38  CA       -42.1950  -14.0480  -51.2000 C.3    25  VAL25       0.1561
     39  C        -42.1360  -15.4620  -51.7410 C.2    25  VAL25       0.2260
     40  O        -41.0610  -15.9650  -52.0310 O.2    25  VAL25      -0.2867
     41  CB       -41.7760  -13.0700  -52.3090 C.3    25  VAL25       0.0252
     42  CG1      -42.7110  -13.1730  -53.5120 C.3    25  VAL25       0.0019
     43  CG2      -41.7530  -11.6460  -51.7780 C.3    25  VAL25       0.0019
     44  N        -47.5860  -14.2530  -56.8510 N.3    38  ALA38      -0.1245
     45  CA       -46.5370  -14.2610  -55.8370 C.3    38  ALA38       0.1562
     46  C        -47.1610  -13.8670  -54.5090 C.2    38  ALA38       0.2260
     47  O        -47.7620  -12.8090  -54.4050 O.2    38  ALA38      -0.2867
     48  CB       -45.4300  -13.2800  -56.2030 C.3    38  ALA38       0.0290
     49  N        -46.6370  -12.5320  -50.9570 N.3    40  LYS40      -0.1245
     50  CA       -45.6610  -11.8090  -50.1550 C.3    40  LYS40       0.1561
     51  C        -46.0860  -11.8230  -48.6930 C.2    40  LYS40       0.2260
     52  O        -46.9990  -11.1080  -48.3020 O.2    40  LYS40      -0.2867
     53  CB       -45.5370  -10.3650  -50.6440 C.3    40  LYS40       0.0271
     54  CG       -44.4270   -9.5740  -49.9620 C.3    40  LYS40       0.0035
     55  CD       -44.2220   -8.2080  -50.6360 C.3    40  LYS40       0.0206
     56  CE       -43.2920   -7.3050  -49.8190 C.3    40  LYS40       0.1093
     57  NZ       -42.8180   -6.1500  -50.6360 N.3    40  LYS40      -0.1314
     58  N        -46.8210   -3.1620  -60.3750 N.3    75  ILE75      -0.1245
     59  CA       -47.2850   -4.4570  -59.9130 C.3    75  ILE75       0.1561
     60  C        -48.7800   -4.3590  -59.5640 C.2    75  ILE75       0.2260
     61  O        -49.2390   -3.3430  -59.0390 O.2    75  ILE75      -0.2867
     62  CB       -46.4810   -4.9200  -58.6890 C.3    75  ILE75       0.0252
     63  CG1      -46.7520   -6.3950  -58.4060 C.3    75  ILE75       0.0019
     64  CG2      -46.8090   -4.0560  -57.4720 C.3    75  ILE75       0.0019
     65  CD1      -46.0470   -7.3260  -59.3730 C.3    75  ILE75       0.0001
     66  N        -49.7990  -11.0040  -54.9690 N.3    91  LEU91      -0.1231
     67  CA       -49.3930  -10.0710  -56.0130 C.3    91  LEU91       0.1693
     68  C        -49.3190  -10.7280  -57.3800 C.2    91  LEU91       0.2592
     69  O        -49.0450  -11.9170  -57.4950 O.2    91  LEU91      -0.2718
     70  CB       -48.0060   -9.5190  -55.6970 C.3    91  LEU91       0.0284
     71  CG       -47.8540   -8.7790  -54.3710 C.3    91  LEU91       0.0019
     72  CD1      -46.3830   -8.6460  -54.0190 C.3    91  LEU91       0.0001
     73  CD2      -48.5230   -7.4320  -54.4490 C.3    91  LEU91       0.0001
     74  N        -49.5370   -9.9320  -58.4190 N.am   92  GLU92      -0.1966
     75  CA       -49.2100  -10.3490  -59.7710 C.3    92  GLU92       0.1733
     76  C        -47.8160  -10.9770  -59.7650 C.2    92  GLU92       0.2616
     77  O        -46.8890  -10.4240  -59.1790 O.2    92  GLU92      -0.2715
     78  CB       -49.2230   -9.1220  -60.6860 C.3    92  GLU92       0.0429
     79  CG       -48.8050   -9.3770  -62.1130 C.3    92  GLU92       0.1163
     80  CD       -48.7790   -8.1050  -62.9230 C.2    92  GLU92       0.3649
     81  OE1      -48.7240   -7.0040  -62.3260 O.co2  92  GLU92      -0.2457
     82  OE2      -48.8110   -8.1970  -64.1540 O.co2  92  GLU92      -0.2457
     83  N        -47.6690  -12.1330  -60.4040 N.am   93  LEU93      -0.1963
     84  CA       -46.3770  -12.8110  -60.4810 C.3    93  LEU93       0.1728
     85  C        -45.4890  -12.1410  -61.5240 C.2    93  LEU93       0.2616
     86  O        -45.8880  -11.9860  -62.6690 O.2    93  LEU93      -0.2715
     87  CB       -46.5740  -14.2750  -60.8700 C.3    93  LEU93       0.0311
     88  CG       -45.3070  -15.1280  -60.9770 C.3    93  LEU93       0.0022
     89  CD1      -44.6340  -15.2190  -59.6160 C.3    93  LEU93       0.0001
     90  CD2      -45.6380  -16.5160  -61.5190 C.3    93  LEU93       0.0001
     91  N        -44.2820  -11.7500  -61.1290 N.am   94  VAL94      -0.1977
     92  CA       -43.3240  -11.1850  -62.0720 C.3    94  VAL94       0.1596
     93  C        -42.1530  -12.1600  -62.1510 C.2    94  VAL94       0.2287
     94  O        -41.4440  -12.3520  -61.1710 O.2    94  VAL94      -0.2864
     95  CB       -42.8340   -9.8000  -61.5920 C.3    94  VAL94       0.0276
     96  CG1      -41.8380   -9.2030  -62.5620 C.3    94  VAL94       0.0022
     97  CG2      -44.0190   -8.8610  -61.3990 C.3    94  VAL94       0.0022
     98  N        -34.7830   -9.0150  -61.9600 N.3    98  GLU98      -0.1245
     99  CA       -34.5270   -7.5840  -61.8430 C.3    98  GLU98       0.1567
    100  C        -33.9520   -7.0670  -63.1520 C.2    98  GLU98       0.2260
    101  O        -33.2010   -7.7680  -63.8240 O.2    98  GLU98      -0.2867
    102  CB       -33.5630   -7.3080  -60.6730 C.3    98  GLU98       0.0388
    103  CG       -34.1480   -7.7060  -59.3140 C.3    98  GLU98       0.1160
    104  CD       -33.1340   -7.7120  -58.1760 C.2    98  GLU98       0.3649
    105  OE1      -32.1280   -6.9790  -58.2460 O.co2  98  GLU98      -0.2457
    106  OE2      -33.3540   -8.4560  -57.1960 O.co2  98  GLU98      -0.2457
    107  N        -33.3840   -2.9370  -57.3790 N.3   141  GLU141     -0.1231
    108  CA       -33.9800   -4.1990  -56.9520 C.3   141  GLU141      0.1699
    109  C        -35.5020   -4.1120  -56.9190 C.2   141  GLU141      0.2592
    110  O        -36.1780   -5.1270  -56.7860 O.2   141  GLU141     -0.2718
    111  CB       -33.4700   -4.6020  -55.5670 C.3   141  GLU141      0.0402
    112  CG       -34.1030   -3.8210  -54.4450 C.3   141  GLU141      0.1161
    113  CD       -33.3510   -3.9700  -53.1270 C.2   141  GLU141      0.3649
    114  OE1      -32.1040   -3.9290  -53.1400 O.co2 141  GLU141     -0.2457
    115  OE2      -34.0100   -4.1130  -52.0810 O.co2 141  GLU141     -0.2457
    116  N        -36.0450   -2.9020  -57.0160 N.am  142  ASN142     -0.1974
    117  CA       -37.5020   -2.7490  -57.1170 C.3   142  ASN142      0.1688
    118  C        -38.0040   -2.5160  -58.5370 C.2   142  ASN142      0.2292
    119  O        -39.1550   -2.1520  -58.7510 O.2   142  ASN142     -0.2864
    120  CB       -37.9790   -1.6370  -56.2030 C.3   142  ASN142      0.1181
    121  CG       -37.9230   -2.0430  -54.7550 C.2   142  ASN142      0.2629
    122  OD1      -37.9950   -3.2220  -54.4450 O.2   142  ASN142     -0.2716
    123  ND2      -37.7680   -1.0840  -53.8700 N.am  142  ASN142     -0.0877
    124  N        -38.4480   -4.7180  -61.6750 N.3   144  MET144     -0.1245
    125  CA       -38.4150   -6.0840  -62.1790 C.3   144  MET144      0.1570
    126  C        -38.9170   -6.1480  -63.6150 C.2   144  MET144      0.2261
    127  O        -39.3580   -5.1440  -64.1750 O.2   144  MET144     -0.2867
    128  CB       -39.2630   -7.0030  -61.2960 C.3   144  MET144      0.0387
    129  CG       -38.8300   -7.0570  -59.8310 C.3   144  MET144      0.0595
    130  SD       -39.6360   -8.4280  -58.9750 S.3   144  MET144     -0.1393
    131  CE       -38.9620   -9.8330  -59.8590 C.3   144  MET144      0.0692
    132  N        -42.1250   -2.6890  -58.2960 N.3   158  ILE158     -0.1231
    133  CA       -42.6720   -3.4000  -57.1470 C.3   158  ILE158      0.1692
    134  C        -42.3370   -2.6860  -55.8460 C.2   158  ILE158      0.2592
    135  O        -41.6740   -1.6450  -55.8340 O.2   158  ILE158     -0.2718
    136  CB       -42.1120   -4.8350  -57.0420 C.3   158  ILE158      0.0266
    137  CG1      -40.6020   -4.7990  -56.8060 C.3   158  ILE158      0.0019
    138  CG2      -42.4260   -5.6380  -58.3060 C.3   158  ILE158      0.0020
    139  CD1      -40.0020   -6.1600  -56.4310 C.3   158  ILE158      0.0001
    140  N        -42.8340   -3.2580  -54.7540 N.am  159  ASP159     -0.1974
    141  CA       -42.4320   -2.8880  -53.3980 C.3   159  ASP159      0.1709
    142  C        -42.8880   -1.5020  -52.9890 C.2   159  ASP159      0.2293
    143  O        -42.1510   -0.5220  -53.0970 O.2   159  ASP159     -0.2864
    144  CB       -40.9210   -2.9850  -53.2260 C.3   159  ASP159      0.1436
    145  CG       -40.5190   -2.9560  -51.7600 C.2   159  ASP159      0.3671
    146  OD1      -41.3960   -2.6520  -50.9140 O.co2 159  ASP159     -0.2456
    147  OD2      -39.3460   -3.2350  -51.4600 O.co2 159  ASP159     -0.2456
@<TRIPOS>BOND
     1   127   126    2
     2    82    80   ar
     3   101   100    2
     4   126   125    1
     5   100    99    1
     6    80    81   ar
     7    80    79    1
     8    86    85    2
     9    96    95    1
    10   125   124    1
    11   125   128    1
    12    93    92    1
    13    93    94    2
    14    79    78    1
    15    92    95    1
    16    92    91    1
    17    98    99    1
    18    99   102    1
    19    95    97    1
    20    85    91   am
    21    85    84    1
    22    90    88    1
    23   128   129    1
    24    88    87    1
    25    88    89    1
    26    87    84    1
    27    78    75    1
    28   102   103    1
    29    84    83    1
    30    83    76   am
    31    58    59    1
    32    59    60    1
    33    59    62    1
    34   131   130    1
    35   129   130    1
    36    75    76    1
    37    75    74    1
    38    76    77    2
    39    60    61    2
    40    65    63    1
    41   103   104    1
    42   119   118    2
    43    62    63    1
    44    62    64    1
    45   118   117    1
    46    74    68   am
    47   138   136    1
    48   132   133    1
    49   105   104   ar
    50   104   106   ar
    51    69    68    2
    52    68    67    1
    53   107   108    1
    54     8     6    1
    55   133   136    1
    56   133   134    1
    57   117   116    1
    58   117   120    1
    59   136   137    1
    60   116   109   am
    61   108   109    1
    62   108   111    1
    63   109   110    2
    64     7     6    1
    65    44    45    1
    66   137   139    1
    67     6     5    1
    68    48    45    1
    69   120   121    1
    70    67    70    1
    71    67    66    1
    72   134   135    2
    73   134   140   am
    74    45    46    1
    75    70    71    1
    76     5     2    1
    77   111   112    1
    78     4     3    2
    79     2     3    1
    80     2     1    1
    81   121   122    2
    82   121   123   am
    83   140   141    1
    84     3     9   am
    85    46    47    2
    86    73    71    1
    87   112   113    1
    88    71    72    1
    89    42    41    1
    90   141   144    1
    91   141   142    1
    92     9    10    1
    93   144   145    1
    94   114   113   ar
    95   113   115   ar
    96   143   142    2
    97    10    11    1
    98    41    43    1
    99    41    38    1
   100    40    39    2
   101   145   147   ar
   102   145   146   ar
   103    39    38    1
   104    11    13   am
   105    11    12    2
   106    38    37    1
   107    49    50    1
   108    13    14    1
   109    53    50    1
   110    53    54    1
   111    57    56    1
   112    55    54    1
   113    55    56    1
   114    16    15    2
   115    50    51    1
   116    14    15    1
   117    14    17    1
   118    15    19   am
   119    18    17    1
   120    51    52    2
   121    19    20    1
   122    20    21    1
   123    36    33    1
   124    35    34    2
   125    34    33    1
   126    21    23   am
   127    21    22    2
   128    33    32    1
   129    23    24    1
   130    26    25    2
   131    24    25    1
   132    24    27    1
   133    27    28    1
   134    30    29    2
   135    28    29    1
   136    29    31   am
