@<TRIPOS>MOLECULE
tmp/2yacA00.pdb
 194 181 0 0 0
SMALL
GASTEIGER

@<TRIPOS>ATOM
      1  N        -55.2400   13.4840   10.4150 N.3    19  ARG19      -0.1245
      2  CA       -54.8510   12.0740   10.3880 C.3    19  ARG19       0.1563
      3  C        -53.5490   11.7200   11.1060 C.2    19  ARG19       0.2260
      4  O        -52.5580   12.4550   11.0600 O.2    19  ARG19      -0.2867
      5  CB       -54.7850   11.5650    8.9460 C.3    19  ARG19       0.0307
      6  CG       -53.9790   12.4350    8.0170 C.3    19  ARG19       0.0489
      7  CD       -53.4970   11.6320    6.8280 C.3    19  ARG19       0.2205
      8  NE       -52.8490   12.4840    5.8380 N.pl3  19  ARG19      -0.0865
      9  CZ       -52.0790   12.0300    4.8570 C.cat  19  ARG19       0.5346
     10  NH1      -51.8590   10.7250    4.7430 N.pl3  19  ARG19       0.1354
     11  NH2      -51.5390   12.8800    3.9870 N.pl3  19  ARG19       0.1354
     12  N        -50.0830    9.8910   11.6720 N.3    21  LEU21      -0.1231
     13  CA       -48.9990    9.5750   10.7570 C.3    21  LEU21       0.1693
     14  C        -48.1140    8.5000   11.3690 C.2    21  LEU21       0.2593
     15  O        -47.4870    7.7040   10.6610 O.2    21  LEU21      -0.2718
     16  CB       -48.1830   10.8340   10.4520 C.3    21  LEU21       0.0284
     17  CG       -49.0320   12.0570   10.0890 C.3    21  LEU21       0.0019
     18  CD1      -48.1670   13.2670    9.7430 C.3    21  LEU21       0.0001
     19  CD2      -49.9070   11.6840    8.9220 C.3    21  LEU21       0.0001
     20  N        -48.0620    8.4540   12.6900 N.am   22  GLY22      -0.1942
     21  CA       -47.1890    7.4830   13.3070 C.3    22  GLY22       0.2014
     22  C        -46.7770    7.8990   14.6950 C.2    22  GLY22       0.2639
     23  O        -47.1840    8.9500   15.1740 O.2    22  GLY22      -0.2714
     24  N        -45.9740    7.0650   15.3390 N.am   23  LYS23      -0.1963
     25  CA       -45.6070    7.2870   16.7200 C.3    23  LYS23       0.1728
     26  C        -44.1670    6.8600   16.9750 C.2    23  LYS23       0.2616
     27  O        -43.7990    5.7010   16.7640 O.2    23  LYS23      -0.2715
     28  CB       -46.5580    6.5180   17.6400 C.3    23  LYS23       0.0311
     29  CG       -45.8630    5.5960   18.6210 C.3    23  LYS23       0.0038
     30  CD       -46.1730    4.1470   18.3130 C.3    23  LYS23       0.0206
     31  CE       -47.6580    3.8470   18.5100 C.3    23  LYS23       0.1093
     32  NZ       -48.4420    3.8890   17.2310 N.3    23  LYS23      -0.1314
     33  N        -43.3540    7.8110   17.4200 N.am   24  GLY24      -0.1955
     34  CA       -41.9780    7.5140   17.7610 C.3    24  GLY24       0.1869
     35  C        -41.5960    8.1260   19.0980 C.2    24  GLY24       0.2309
     36  O        -41.5880    9.3510   19.2540 O.2    24  GLY24      -0.2863
     37  N        -43.9020   10.5750   21.3590 N.3    27  ALA27      -0.1245
     38  CA       -44.7150   11.4110   20.4830 C.3    27  ALA27       0.1562
     39  C        -45.6970   10.6510   19.5930 C.2    27  ALA27       0.2260
     40  O        -45.4740    9.4930   19.2450 O.2    27  ALA27      -0.2867
     41  CB       -43.8160   12.2920   19.6190 C.3    27  ALA27       0.0290
     42  N        -47.7340   11.7720   15.8810 N.3    29  CYS29      -0.1235
     43  CA       -47.7420   12.8290   14.8760 C.3    29  CYS29       0.1677
     44  C        -49.0260   12.8170   14.0830 C.2    29  CYS29       0.2270
     45  O        -49.5440   11.7700   13.7260 O.2    29  CYS29      -0.2867
     46  CB       -46.5430   12.6880   13.9290 C.3    29  CYS29       0.0956
     47  SG       -44.9360   12.8250   14.7810 S.3    29  CYS29      -0.0801
     48  N        -51.3930   15.0550   10.9990 N.3    31  GLU31      -0.1245
     49  CA       -51.6510   16.1510   10.1040 C.3    31  GLU31       0.1567
     50  C        -52.5310   17.0960   10.9170 C.2    31  GLU31       0.2260
     51  O        -53.4180   16.6550   11.6570 O.2    31  GLU31      -0.2867
     52  CB       -52.3870   15.6350    8.8560 C.3    31  GLU31       0.0388
     53  CG       -52.4100   16.6190    7.6890 C.3    31  GLU31       0.1160
     54  CD       -52.5410   15.9310    6.3250 C.2    31  GLU31       0.3649
     55  OE1      -51.9240   14.8550    6.1230 O.co2  31  GLU31      -0.2457
     56  OE2      -53.2560   16.4730    5.4540 O.co2  31  GLU31      -0.2457
     57  N        -47.4180   19.1310   10.0220 N.3    42  ALA42      -0.1245
     58  CA       -47.2280   17.9610   10.8370 C.3    42  ALA42       0.1562
     59  C        -47.1800   18.4270   12.2840 C.2    42  ALA42       0.2260
     60  O        -46.4390   19.3540   12.6200 O.2    42  ALA42      -0.2867
     61  CB       -45.9280   17.2720   10.4550 C.3    42  ALA42       0.0290
     62  N        -46.4740   17.2620   16.2070 N.3    44  LYS44      -0.1245
     63  CA       -45.9020   16.2670   17.0870 C.3    44  LYS44       0.1561
     64  C        -46.3140   16.5460   18.5250 C.2    44  LYS44       0.2260
     65  O        -46.0370   17.6150   19.0730 O.2    44  LYS44      -0.2867
     66  CB       -44.3880   16.2730   16.9580 C.3    44  LYS44       0.0271
     67  CG       -43.6840   15.2460   17.8160 C.3    44  LYS44       0.0035
     68  CD       -42.3720   14.8430   17.1510 C.3    44  LYS44       0.0206
     69  CE       -41.3290   14.4460   18.1640 C.3    44  LYS44       0.1093
     70  NZ       -40.0010   14.2790   17.5000 N.3    44  LYS44      -0.1314
     71  N        -34.1190   22.2960   17.4130 N.3    67  HIS67      -0.1241
     72  CA       -34.8810   22.2780   16.1720 C.3    67  HIS67       0.1621
     73  C        -35.3730   23.6960   15.7920 C.2    67  HIS67       0.2264
     74  O        -35.3670   24.0980   14.6070 O.2    67  HIS67      -0.2867
     75  CB       -36.0630   21.3270   16.3100 C.3    67  HIS67       0.0745
     76  CG       -36.6370   20.8800   15.0000 C.ar   67  HIS67       0.0817
     77  ND1      -37.6010   19.8990   14.9070 N.ar   67  HIS67      -0.2268
     78  CD2      -36.3630   21.2570   13.7290 C.ar   67  HIS67       0.1154
     79  CE1      -37.8960   19.6880   13.6370 C.ar   67  HIS67       0.1986
     80  NE2      -37.1590   20.5000   12.8990 N.ar   67  HIS67      -0.2212
     81  N        -36.3730   19.5530    8.2550 N.3    76  VAL76      -0.1245
     82  CA       -37.8040   19.6700    8.5000 C.3    76  VAL76       0.1561
     83  C        -38.0740   21.0010    9.1670 C.2    76  VAL76       0.2260
     84  O        -37.5550   21.2590   10.2490 O.2    76  VAL76      -0.2867
     85  CB       -38.3120   18.5420    9.4400 C.3    76  VAL76       0.0252
     86  CG1      -39.7390   18.8690    9.9630 C.3    76  VAL76       0.0019
     87  CG2      -38.2950   17.2170    8.6940 C.3    76  VAL76       0.0019
     88  N        -44.6510   21.2000   12.9000 N.3    92  LEU92      -0.1231
     89  CA       -43.5540   21.0030   11.9380 C.3    92  LEU92       0.1693
     90  C        -44.0090   21.0210   10.4790 C.2    92  LEU92       0.2592
     91  O        -45.1870   20.8000   10.1870 O.2    92  LEU92      -0.2718
     92  CB       -42.8590   19.6780   12.2330 C.3    92  LEU92       0.0284
     93  CG       -42.3720   19.5750   13.6820 C.3    92  LEU92       0.0019
     94  CD1      -41.8150   18.2060   13.9530 C.3    92  LEU92       0.0001
     95  CD2      -41.3220   20.6470   13.9300 C.3    92  LEU92       0.0001
     96  N        -43.0730   21.3080    9.5770 N.am   93  GLU93      -0.1966
     97  CA       -43.2580   21.1540    8.1230 C.3    93  GLU93       0.1733
     98  C        -43.7780   19.7490    7.7820 C.2    93  GLU93       0.2616
     99  O        -43.1860   18.7430    8.1940 O.2    93  GLU93      -0.2715
    100  CB       -41.9010   21.3970    7.4220 C.3    93  GLU93       0.0429
    101  CG       -41.8710   21.2570    5.8760 C.3    93  GLU93       0.1163
    102  CD       -40.4580   21.4910    5.2740 C.2    93  GLU93       0.3649
    103  OE1      -39.4640   21.5760    6.0290 O.co2  93  GLU93      -0.2457
    104  OE2      -40.3280   21.6030    4.0340 O.co2  93  GLU93      -0.2457
    105  N        -44.8830   19.6570    7.0390 N.am   94  LEU94      -0.1963
    106  CA       -45.4290   18.3420    6.7070 C.3    94  LEU94       0.1728
    107  C        -44.7380   17.7460    5.4840 C.2    94  LEU94       0.2616
    108  O        -44.5310   18.4200    4.4780 O.2    94  LEU94      -0.2715
    109  CB       -46.9370   18.4100    6.4600 C.3    94  LEU94       0.0311
    110  CG       -47.5480   17.0670    6.0040 C.3    94  LEU94       0.0022
    111  CD1      -47.6210   16.0850    7.1820 C.3    94  LEU94       0.0001
    112  CD2      -48.9470   17.3130    5.4180 C.3    94  LEU94       0.0001
    113  N        -44.3530   16.4790    5.5760 N.am   95  CYS95      -0.1954
    114  CA       -43.7200   15.8320    4.4280 C.3    95  CYS95       0.1843
    115  C        -44.6370   14.7600    3.8630 C.2    95  CYS95       0.2625
    116  O        -44.8080   13.6840    4.4510 O.2    95  CYS95      -0.2714
    117  CB       -42.3640   15.2470    4.8350 C.3    95  CYS95       0.0997
    118  SG       -41.2410   16.4940    5.5020 S.3    95  CYS95      -0.0797
    119  N        -45.2300   15.0690    2.7170 N.am   96  ARG96      -0.1977
    120  CA       -46.3650   14.3040    2.2340 C.3    96  ARG96       0.1597
    121  C        -45.9540   12.9800    1.6340 C.2    96  ARG96       0.2287
    122  O        -46.8010   12.1540    1.3590 O.2    96  ARG96      -0.2864
    123  CB       -47.1730   15.1170    1.2080 C.3    96  ARG96       0.0334
    124  CG       -47.7010   16.4330    1.7660 C.3    96  ARG96       0.0492
    125  CD       -48.6860   17.1420    0.8340 C.3    96  ARG96       0.2205
    126  NE       -49.8140   17.6860    1.5980 N.pl3  96  ARG96      -0.0865
    127  CZ       -50.8110   16.9420    2.0810 C.cat  96  ARG96       0.5346
    128  NH1      -50.8170   15.6300    1.8690 N.pl3  96  ARG96       0.1354
    129  NH2      -51.7930   17.4940    2.7880 N.pl3  96  ARG96       0.1354
    130  N        -43.7730   10.8060    3.2140 N.3    98  ARG98      -0.1231
    131  CA       -43.2600    9.9090    4.2470 C.3    98  ARG98       0.1694
    132  C        -41.7270    9.9670    4.3740 C.2    98  ARG98       0.2592
    133  O        -41.1660   11.0530    4.4730 O.2    98  ARG98      -0.2718
    134  CB       -43.7560    8.4860    3.9640 C.3    98  ARG98       0.0321
    135  CG       -45.2760    8.4300    3.8140 C.3    98  ARG98       0.0489
    136  CD       -45.8280    7.0320    4.0430 C.3    98  ARG98       0.2205
    137  NE       -45.6950    6.2150    2.8420 N.pl3  98  ARG98      -0.0865
    138  CZ       -45.6940    4.8840    2.8270 C.cat  98  ARG98       0.5346
    139  NH1      -45.8170    4.1970    3.9570 N.pl3  98  ARG98       0.1354
    140  NH2      -45.5750    4.2380    1.6740 N.pl3  98  ARG98       0.1354
    141  N        -41.0340    8.8360    4.3740 N.am   99  SER99      -0.1952
    142  CA       -39.5810    8.8990    4.5610 C.3    99  SER99       0.1924
    143  C        -38.8180    7.9230    3.6820 C.2    99  SER99       0.2314
    144  O        -39.4160    7.0890    3.0050 O.2    99  SER99      -0.2863
    145  CB       -39.2220    8.6550    6.0260 C.3    99  SER99       0.2116
    146  OG       -39.0410    7.2810    6.3000 O.3    99  SER99      -0.2180
    147  N        -37.4600    5.5050    4.5750 N.3   101  LEU101     -0.1231
    148  CA       -37.6410    4.1450    5.0760 C.3   101  LEU101      0.1693
    149  C        -38.7210    3.4320    4.2630 C.2   101  LEU101      0.2591
    150  O        -38.5710    2.2590    3.9030 O.2   101  LEU101     -0.2718
    151  CB       -38.0260    4.1190    6.5690 C.3   101  LEU101      0.0284
    152  CG       -38.1370    2.7090    7.2080 C.3   101  LEU101      0.0019
    153  CD1      -36.8310    1.9260    6.9740 C.3   101  LEU101      0.0001
    154  CD2      -38.4280    2.8140    8.7310 C.3   101  LEU101      0.0001
    155  N        -39.8010    4.1440    3.9580 N.am  102  GLU102     -0.1979
    156  CA       -40.9100    3.5200    3.2580 C.3   102  GLU102      0.1602
    157  C        -40.5330    3.3220    1.8180 C.2   102  GLU102      0.2287
    158  O        -40.9630    2.3560    1.1880 O.2   102  GLU102     -0.2864
    159  CB       -42.1880    4.3670    3.3720 C.3   102  GLU102      0.0415
    160  CG       -42.8300    4.3110    4.7730 C.3   102  GLU102      0.1163
    161  CD       -42.0170    5.0800    5.8240 C.2   102  GLU102      0.3649
    162  OE1      -41.3850    6.0850    5.4440 O.co2 102  GLU102     -0.2457
    163  OE2      -42.0140    4.6920    7.0220 O.co2 102  GLU102     -0.2457
    164  N        -35.7250    6.3490    8.3550 N.3   142  GLY142     -0.1210
    165  CA       -37.0360    6.7950    8.8140 C.3   142  GLY142      0.1956
    166  C        -37.0490    8.1980    9.3870 C.2   142  GLY142      0.2611
    167  O        -38.1030    8.7220    9.7220 O.2   142  GLY142     -0.2717
    168  N        -35.8620    8.7920    9.4980 N.am  143  ASN143     -0.1974
    169  CA       -35.6800   10.1890    9.8760 C.3   143  ASN143      0.1688
    170  C        -35.4540   11.0840    8.6670 C.2   143  ASN143      0.2292
    171  O        -35.3240   12.3170    8.7890 O.2   143  ASN143     -0.2864
    172  CB       -34.4760   10.3330   10.7920 C.3   143  ASN143      0.1181
    173  CG       -34.8590   10.2030   12.2010 C.2   143  ASN143      0.2629
    174  OD1      -36.0370   10.3950   12.5340 O.2   143  ASN143     -0.2716
    175  ND2      -33.9060    9.8570   13.0630 N.am  143  ASN143     -0.0877
    176  N        -37.1150   12.4420    5.7490 N.3   145  PHE145     -0.1241
    177  CA       -38.4610   12.6280    5.2100 C.3   145  PHE145      0.1605
    178  C        -38.4500   13.2110    3.7990 C.2   145  PHE145      0.2264
    179  O        -37.4560   13.7830    3.3480 O.2   145  PHE145     -0.2867
    180  CB       -39.2620   13.5340    6.1370 C.3   145  PHE145      0.0534
    181  CG       -39.4050   12.9870    7.5340 C.ar  145  PHE145     -0.0203
    182  CD1      -38.4390   13.2330    8.4880 C.ar  145  PHE145     -0.0042
    183  CD2      -40.5000   12.2100    7.8800 C.ar  145  PHE145     -0.0042
    184  CE1      -38.5570   12.7200    9.7620 C.ar  145  PHE145     -0.0003
    185  CE2      -40.6270   11.6900    9.1540 C.ar  145  PHE145     -0.0003
    186  CZ       -39.6560   11.9470   10.0940 C.ar  145  PHE145     -0.0000
    187  N        -36.5180   14.7830   13.2290 N.3   156  ASP156     -0.1239
    188  CA       -36.3430   14.2360   14.5720 C.3   156  ASP156      0.1674
    189  C        -35.0250   14.5970   15.2360 C.2   156  ASP156      0.2266
    190  O        -34.0460   13.8440   15.1820 O.2   156  ASP156     -0.2867
    191  CB       -36.5190   12.7130   14.5590 C.3   156  ASP156      0.1410
    192  CG       -36.8230   12.1430   15.9650 C.2   156  ASP156      0.3668
    193  OD1      -36.4340   12.7500   17.0010 O.co2 156  ASP156     -0.2456
    194  OD2      -37.4650   11.0760   16.0250 O.co2 156  ASP156     -0.2456
@<TRIPOS>BOND
     1   125   126    1
     2   125   124    1
     3   158   157    2
     4   123   124    1
     5   123   120    1
     6   122   121    2
     7   126   127    2
     8   121   120    1
     9   140   138    1
    10   157   156    1
    11   128   127    1
    12   127   129    1
    13   120   119    1
    14   119   115   am
    15   138   137    2
    16   138   139    1
    17   137   136    1
    18   144   143    2
    19   130   131    1
    20   156   159    1
    21   156   155    1
    22   179   178    2
    23   159   160    1
    24   143   142    1
    25   178   177    1
    26   135   134    1
    27   135   136    1
    28   115   114    1
    29   115   116    2
    30   150   149    2
    31   155   149   am
    32   134   131    1
    33    11     9    1
    34   104   102   ar
    35   131   132    1
    36   149   148    1
    37   141   132   am
    38   141   142    1
    39   132   133    2
    40   114   117    1
    41   114   113    1
    42   108   107    2
    43   142   145    1
    44   147   148    1
    45    10     9    1
    46   160   161    1
    47   117   118    1
    48     9     8    2
    49   148   151    1
    50   177   176    1
    51   177   180    1
    52   102   101    1
    53   102   103   ar
    54   112   110    1
    55   162   161   ar
    56    56    54   ar
    57   107   113   am
    58   107   106    1
    59   161   163   ar
    60     8     7    1
    61   101   100    1
    62   110   109    1
    63   110   111    1
    64   145   146    1
    65    55    54   ar
    66   180   181    1
    67    54    53    1
    68   109   106    1
    69   151   152    1
    70   106   105    1
    71     7     6    1
    72   153   152    1
    73   105    98   am
    74   152   154    1
    75   100    97    1
    76   181   183   ar
    77   181   182   ar
    78    53    52    1
    79    98    97    1
    80    98    99    2
    81   183   185   ar
    82     6     5    1
    83    97    96    1
    84    81    82    1
    85   164   165    1
    86   182   184   ar
    87    82    83    1
    88    82    85    1
    89   170   171    2
    90   170   169    1
    91    87    85    1
    92   165   166    1
    93    52    49    1
    94    19    17    1
    95     5     2    1
    96   185   186   ar
    97    83    84    2
    98   166   168   am
    99   166   167    2
   100    85    86    1
   101   168   169    1
   102    96    90   am
   103    18    17    1
   104   184   186   ar
   105   169   172    1
   106    57    58    1
   107    17    16    1
   108    49    50    1
   109    49    48    1
   110    91    90    2
   111     2     1    1
   112     2     3    1
   113    16    13    1
   114    61    58    1
   115    90    89    1
   116    15    14    2
   117    13    14    1
   118    13    12    1
   119   172   173    1
   120    58    59    1
   121    50    51    2
   122     4     3    2
   123    14    20   am
   124    89    92    1
   125    89    88    1
   126   173   174    2
   127   173   175   am
   128    92    93    1
   129    59    60    2
   130    20    21    1
   131    80    79   ar
   132    80    78   ar
   133   187   188    1
   134    21    22    1
   135    79    77   ar
   136    93    95    1
   137    93    94    1
   138    45    44    2
   139    78    76   ar
   140    46    47    1
   141    46    43    1
   142    44    43    1
   143   191   188    1
   144   191   192    1
   145   188   189    1
   146    74    73    2
   147    22    23    2
   148    22    24   am
   149    43    42    1
   150    77    76   ar
   151    76    75    1
   152   190   189    2
   153    24    25    1
   154    73    72    1
   155   192   194   ar
   156   192   193   ar
   157    72    75    1
   158    72    71    1
   159    62    63    1
   160    25    26    1
   161    25    28    1
   162    27    26    2
   163    66    63    1
   164    66    67    1
   165    26    33   am
   166    63    64    1
   167    68    67    1
   168    68    69    1
   169    32    31    1
   170    33    34    1
   171    70    69    1
   172    28    29    1
   173    34    35    1
   174    30    31    1
   175    30    29    1
   176    64    65    2
   177    35    36    2
   178    40    39    2
   179    39    38    1
   180    41    38    1
   181    38    37    1
