@<TRIPOS>MOLECULE
tmp/2yajC00.pdb
 134 125 0 0 0
SMALL
GASTEIGER

@<TRIPOS>ATOM
      1  N         31.1920  122.8510   24.6600 N.3   188  PHE188     -0.1241
      2  CA        32.0220  122.0360   25.5510 C.3   188  PHE188      0.1605
      3  C         31.3300  120.7820   26.0260 C.2   188  PHE188      0.2264
      4  O         30.1270  120.5900   25.7930 O.2   188  PHE188     -0.2867
      5  CB        32.4790  122.8590   26.7760 C.3   188  PHE188      0.0534
      6  CG        31.3810  123.1820   27.7200 C.ar  188  PHE188     -0.0203
      7  CD1       30.5380  124.2590   27.4640 C.ar  188  PHE188     -0.0042
      8  CD2       31.1650  122.3960   28.8530 C.ar  188  PHE188     -0.0042
      9  CE1       29.4400  124.5370   28.3310 C.ar  188  PHE188     -0.0003
     10  CE2       30.0900  122.6630   29.7350 C.ar  188  PHE188     -0.0003
     11  CZ        29.2310  123.7350   29.4640 C.ar  188  PHE188     -0.0000
     12  N         31.5950  120.1470   33.9460 N.3   193  ILE193     -0.1245
     13  CA        30.8840  120.7040   35.0930 C.3   193  ILE193      0.1561
     14  C         29.6220  119.8950   35.3760 C.2   193  ILE193      0.2260
     15  O         28.5320  120.3360   35.0500 O.2   193  ILE193     -0.2867
     16  CB        30.5430  122.2300   34.8930 C.3   193  ILE193      0.0252
     17  CG1       29.8320  122.4920   33.5510 C.3   193  ILE193      0.0019
     18  CG2       31.8110  123.0770   34.9880 C.3   193  ILE193      0.0019
     19  CD1       29.5900  124.0330   33.3160 C.3   193  ILE193      0.0001
     20  N         24.2700  124.6490   37.6360 N.3   197  ARG197     -0.1245
     21  CA        23.0320  125.1090   37.0060 C.3   197  ARG197      0.1563
     22  C         21.8290  124.4270   37.7230 C.2   197  ARG197      0.2260
     23  O         20.9760  123.8050   37.1110 O.2   197  ARG197     -0.2867
     24  CB        23.0380  124.8380   35.5090 C.3   197  ARG197      0.0307
     25  CG        23.8730  125.8080   34.7350 C.3   197  ARG197      0.0489
     26  CD        25.3210  125.4510   34.8490 C.3   197  ARG197      0.2205
     27  NE        25.5880  124.1220   34.2850 N.pl3 197  ARG197     -0.0865
     28  CZ        26.3640  123.2090   34.8600 C.cat 197  ARG197      0.5346
     29  NH1       26.9460  123.4600   36.0430 N.pl3 197  ARG197      0.1354
     30  NH2       26.5320  122.0380   34.2690 N.pl3 197  ARG197      0.1354
     31  N         29.8350  125.1940   37.9750 N.3   318  SER318     -0.1202
     32  CA        29.3790  126.5640   38.0800 C.3   318  SER318      0.2020
     33  C         27.8450  126.5360   38.2500 C.2   318  SER318      0.2619
     34  O         27.1160  125.5880   37.8680 O.2   318  SER318     -0.2717
     35  CB        29.7270  127.3570   36.8040 C.3   318  SER318      0.2103
     36  OG        29.2530  128.6980   36.8910 O.3   318  SER318     -0.2182
     37  N         27.3500  127.6320   38.7690 N.am  319  GLY319     -0.1956
     38  CA        25.9240  127.7860   38.8590 C.3   319  GLY319      0.1869
     39  C         25.3150  126.8920   39.9200 C.2   319  GLY319      0.2309
     40  O         24.1740  126.4830   39.7570 O.2   319  GLY319     -0.2863
     41  N         32.7360  130.7430   28.3180 N.3   373  VAL373     -0.1231
     42  CA        31.3820  130.6040   28.8490 C.3   373  VAL373      0.1692
     43  C         31.2010  131.4970   30.0830 C.2   373  VAL373      0.2591
     44  O         30.4380  132.4360   30.0380 O.2   373  VAL373     -0.2718
     45  CB        31.0760  129.1400   29.1890 C.3   373  VAL373      0.0266
     46  CG1       29.6100  128.9910   29.8620 C.3   373  VAL373      0.0020
     47  CG2       31.2480  128.2770   27.9760 C.3   373  VAL373      0.0020
     48  N         31.9360  131.2340   31.1530 N.am  374  LEU374     -0.1980
     49  CA        31.6920  131.8970   32.4510 C.3   374  LEU374      0.1596
     50  C         32.2720  133.3330   32.5900 C.2   374  LEU374      0.2287
     51  O         31.7870  134.0940   33.4050 O.2   374  LEU374     -0.2864
     52  CB        32.2930  131.0910   33.5960 C.3   374  LEU374      0.0297
     53  CG        32.1590  129.5720   33.6110 C.3   374  LEU374      0.0022
     54  CD1       32.8970  128.8990   34.8090 C.3   374  LEU374      0.0001
     55  CD2       30.7350  129.2640   33.6210 C.3   374  LEU374      0.0001
     56  N         28.2450  132.0930   39.2020 N.3   379  PHE379     -0.1241
     57  CA        26.7400  132.0370   39.1620 C.3   379  PHE379      0.1605
     58  C         26.1160  131.3790   40.3780 C.2   379  PHE379      0.2264
     59  O         25.2360  130.5410   40.2530 O.2   379  PHE379     -0.2867
     60  CB        26.3340  131.2460   37.9080 C.3   379  PHE379      0.0534
     61  CG        26.8580  131.8710   36.6170 C.ar  379  PHE379     -0.0203
     62  CD1       28.2010  131.7110   36.2370 C.ar  379  PHE379     -0.0042
     63  CD2       26.0300  132.6700   35.8260 C.ar  379  PHE379     -0.0042
     64  CE1       28.6860  132.3010   35.0550 C.ar  379  PHE379     -0.0003
     65  CE2       26.5240  133.2890   34.6470 C.ar  379  PHE379     -0.0003
     66  CZ        27.8460  133.0820   34.2550 C.ar  379  PHE379     -0.0000
     67  N         21.9500  128.4130   38.5270 N.3   476  GLY476     -0.1210
     68  CA        22.9000  129.2340   37.7920 C.3   476  GLY476      0.1956
     69  C         22.2160  130.5630   37.4890 C.2   476  GLY476      0.2612
     70  O         21.4030  131.0500   38.2890 O.2   476  GLY476     -0.2717
     71  N         22.5010  131.1070   36.3090 N.am  477  CYS477     -0.1970
     72  CA        21.9360  132.3800   35.8830 C.3   477  CYS477      0.1712
     73  C         20.3960  132.3100   35.7200 C.2   477  CYS477      0.2296
     74  O         19.6030  133.0400   36.3530 O.2   477  CYS477     -0.2864
     75  CB        22.5780  132.7650   34.5420 C.3   477  CYS477      0.0983
     76  SG        23.0920  131.3320   33.4550 S.3   477  CYS477     -0.0798
     77  N         18.7440  128.9940   34.7490 N.3   479  GLU479     -0.1245
     78  CA        18.3740  127.6110   34.4830 C.3   479  GLU479      0.1567
     79  C         17.3240  127.2100   35.5000 C.2   479  GLU479      0.2260
     80  O         17.6680  126.7360   36.5940 O.2   479  GLU479     -0.2867
     81  CB        19.5870  126.7120   34.5520 C.3   479  GLU479      0.0388
     82  CG        20.3960  126.6800   33.2520 C.3   479  GLU479      0.1160
     83  CD        20.9440  128.0400   32.8630 C.2   479  GLU479      0.3649
     84  OE1       20.2140  128.7590   32.1430 O.co2 479  GLU479     -0.2457
     85  OE2       22.0950  128.3710   33.2450 O.co2 479  GLU479     -0.2457
     86  N         21.5520  122.1640   33.7810 N.3   506  GLY506     -0.1225
     87  CA        22.3480  122.8970   32.8150 C.3   506  GLY506      0.1811
     88  C         23.4540  122.0350   32.2220 C.2   506  GLY506      0.2280
     89  O         24.6080  122.3810   32.2470 O.2   506  GLY506     -0.2866
     90  N         25.4300  120.6840   25.0950 N.3   510  HIS510     -0.1226
     91  CA        25.8490  122.0380   25.3640 C.3   510  HIS510      0.1752
     92  C         25.8400  122.9540   24.1040 C.2   510  HIS510      0.2596
     93  O         25.7600  122.4790   22.9580 O.2   510  HIS510     -0.2718
     94  CB        27.2030  122.0600   26.1250 C.3   510  HIS510      0.0759
     95  CG        27.0680  121.6740   27.5580 C.ar  510  HIS510      0.0818
     96  ND1       26.3890  122.4470   28.4730 N.ar  510  HIS510     -0.2268
     97  CD2       27.5390  120.6060   28.2470 C.ar  510  HIS510      0.1154
     98  CE1       26.4790  121.8980   29.6710 C.ar  510  HIS510      0.1986
     99  NE2       27.1340  120.7580   29.5580 N.ar  510  HIS510     -0.2212
    100  N         25.8300  124.2580   24.3670 N.am  511  PHE511     -0.1976
    101  CA        25.6840  125.3050   23.3560 C.3   511  PHE511      0.1639
    102  C         26.0130  124.9070   21.9380 C.2   511  PHE511      0.2290
    103  O         27.1870  124.7620   21.5740 O.2   511  PHE511     -0.2864
    104  CB        26.5180  126.5650   23.7290 C.3   511  PHE511      0.0560
    105  CG        26.2220  127.0890   25.0980 C.ar  511  PHE511     -0.0200
    106  CD1       25.0130  127.7370   25.3490 C.ar  511  PHE511     -0.0042
    107  CD2       27.1020  126.8580   26.1460 C.ar  511  PHE511     -0.0042
    108  CE1       24.7030  128.1890   26.6210 C.ar  511  PHE511     -0.0003
    109  CE2       26.8030  127.2940   27.4280 C.ar  511  PHE511     -0.0003
    110  CZ        25.5920  127.9630   27.6570 C.ar  511  PHE511     -0.0000
    111  N         21.0210  123.0970   24.8640 N.3   611  GLU611     -0.1245
    112  CA        21.3330  124.5360   24.8870 C.3   611  GLU611      0.1567
    113  C         21.5620  125.0630   23.4920 C.2   611  GLU611      0.2260
    114  O         22.4940  124.6180   22.7770 O.2   611  GLU611     -0.2867
    115  CB        22.6080  124.8390   25.6740 C.3   611  GLU611      0.0388
    116  CG        22.5050  124.7130   27.1370 C.3   611  GLU611      0.1160
    117  CD        23.8950  124.6690   27.7900 C.2   611  GLU611      0.3649
    118  OE1       24.9000  124.4200   27.0840 O.co2 611  GLU611     -0.2457
    119  OE2       23.9730  124.8480   29.0110 O.co2 611  GLU611     -0.2457
    120  N         20.0770  130.4870   26.7270 N.3   724  ILE724     -0.1245
    121  CA        20.8500  131.5980   27.2530 C.3   724  ILE724      0.1561
    122  C         22.1050  131.6480   26.3840 C.2   724  ILE724      0.2260
    123  O         22.3290  130.7510   25.5420 O.2   724  ILE724     -0.2867
    124  CB        21.2920  131.3440   28.7140 C.3   724  ILE724      0.0252
    125  CG1       22.1610  130.0740   28.7880 C.3   724  ILE724      0.0019
    126  CG2       20.0840  131.2150   29.6750 C.3   724  ILE724      0.0019
    127  CD1       22.4680  129.6030   30.2110 C.3   724  ILE724      0.0001
    128  N         25.2060  133.0560   28.2040 N.3   726  VAL726     -0.1245
    129  CA        26.3600  133.3550   29.0560 C.3   726  VAL726      0.1561
    130  C         27.3630  134.1850   28.2400 C.2   726  VAL726      0.2260
    131  O         27.0100  135.1310   27.5400 O.2   726  VAL726     -0.2867
    132  CB        27.0830  132.0540   29.5990 C.3   726  VAL726      0.0252
    133  CG1       27.6850  132.3140   31.0070 C.3   726  VAL726      0.0019
    134  CG2       26.1280  130.8780   29.6430 C.3   726  VAL726      0.0019
@<TRIPOS>BOND
     1   103   102    2
     2   102   101    1
     3   114   113    2
     4    93    92    2
     5   101   104    1
     6   101   100    1
     7   113   112    1
     8   104   105    1
     9    92   100   am
    10    92    91    1
    11     1     2    1
    12   111   112    1
    13   112   115    1
    14    90    91    1
    15   105   106   ar
    16   105   107   ar
    17   106   108   ar
    18    91    94    1
    19   123   122    2
    20     2     3    1
    21     2     5    1
    22   115   116    1
    23     4     3    2
    24    94    95    1
    25   107   109   ar
    26   122   121    1
    27   108   110   ar
    28   120   121    1
    29     5     6    1
    30   118   117   ar
    31   116   117    1
    32   121   124    1
    33   109   110   ar
    34     7     6   ar
    35     7     9   ar
    36   131   130    2
    37    95    97   ar
    38    95    96   ar
    39     6     8   ar
    40   117   119   ar
    41    47    45    1
    42   128   129    1
    43   130   129    1
    44    97    99   ar
    45    41    42    1
    46     9    11   ar
    47    96    98   ar
    48   124   125    1
    49   124   126    1
    50   125   127    1
    51    42    45    1
    52    42    43    1
    53     8    10   ar
    54   129   132    1
    55    45    46    1
    56    11    10   ar
    57    99    98   ar
    58   132   134    1
    59   132   133    1
    60    44    43    2
    61    43    48   am
    62    48    49    1
    63    84    83   ar
    64    88    89    2
    65    88    87    1
    66    49    50    1
    67    49    52    1
    68    50    51    2
    69    87    86    1
    70    83    85   ar
    71    83    82    1
    72    82    81    1
    73    19    17    1
    74    76    75    1
    75    17    16    1
    76    52    53    1
    77    53    55    1
    78    53    54    1
    79    12    13    1
    80    66    65   ar
    81    66    64   ar
    82    30    28    1
    83    27    26    1
    84    27    28    2
    85    78    81    1
    86    78    77    1
    87    78    79    1
    88    75    72    1
    89    65    63   ar
    90    25    26    1
    91    25    24    1
    92    28    29    1
    93    16    18    1
    94    16    13    1
    95    15    14    2
    96    64    62   ar
    97    13    14    1
    98    79    80    2
    99    24    21    1
   100    73    72    1
   101    73    74    2
   102    63    61   ar
   103    72    71    1
   104    62    61   ar
   105    71    69   am
   106    61    60    1
   107    35    36    1
   108    35    32    1
   109    21    20    1
   110    21    22    1
   111    23    22    2
   112    69    68    1
   113    69    70    2
   114    68    67    1
   115    34    33    2
   116    60    57    1
   117    31    32    1
   118    32    33    1
   119    33    37   am
   120    37    38    1
   121    38    39    1
   122    57    56    1
   123    57    58    1
   124    40    39    2
   125    59    58    2
