@<TRIPOS>MOLECULE
tmp/2yakA00.pdb
 145 133 0 0 0
SMALL
GASTEIGER

@<TRIPOS>ATOM
      1  N         -3.8880  -11.1870   20.0860 N.3    18  LEU18      -0.1231
      2  CA        -4.4810  -10.1610   19.2220 C.3    18  LEU18       0.1693
      3  C         -5.7090   -9.5630   19.9220 C.2    18  LEU18       0.2592
      4  O         -5.9770   -8.3560   19.8210 O.2    18  LEU18      -0.2718
      5  CB        -4.8090  -10.7210   17.8120 C.3    18  LEU18       0.0284
      6  CG        -3.5980  -11.1880   16.9790 C.3    18  LEU18       0.0019
      7  CD1       -3.9920  -11.6600   15.5410 C.3    18  LEU18       0.0001
      8  CD2       -2.5830  -10.0600   16.8680 C.3    18  LEU18       0.0001
      9  N         -6.4310  -10.3820   20.6620 N.am   19  GLY19      -0.1957
     10  CA        -7.5310   -9.8810   21.4650 C.3    19  GLY19       0.1869
     11  C         -8.1000  -10.9540   22.3800 C.2    19  GLY19       0.2309
     12  O         -7.6490  -12.0810   22.3610 O.2    19  GLY19      -0.2863
     13  N         -7.7640  -14.7620   21.0030 N.3    26  VAL26      -0.1245
     14  CA        -7.2760  -14.8940   19.6440 C.3    26  VAL26       0.1561
     15  C         -5.8030  -14.4790   19.6760 C.2    26  VAL26       0.2260
     16  O         -5.4350  -13.4360   20.2690 O.2    26  VAL26      -0.2867
     17  CB        -8.0520  -14.0090   18.6490 C.3    26  VAL26       0.0252
     18  CG1       -7.4130  -14.0090   17.2210 C.3    26  VAL26       0.0019
     19  CG2       -9.4370  -14.4850   18.5300 C.3    26  VAL26       0.0019
     20  N         -5.0500  -16.7290   12.3020 N.3    39  ALA39      -0.1245
     21  CA        -5.4060  -16.3840   13.6650 C.3    39  ALA39       0.1562
     22  C         -5.9210  -17.6590   14.3460 C.2    39  ALA39       0.2260
     23  O         -6.6570  -18.4240   13.7260 O.2    39  ALA39      -0.2867
     24  CB        -6.4840  -15.3110   13.6590 C.3    39  ALA39       0.0290
     25  N         -8.1890  -18.8820   17.5040 N.3    41  LYS41      -0.1245
     26  CA        -9.1900  -18.5700   18.5250 C.3    41  LYS41       0.1561
     27  C         -9.3820  -19.7630   19.4570 C.2    41  LYS41       0.2260
     28  O         -9.8990  -20.7910   19.0320 O.2    41  LYS41      -0.2867
     29  CB       -10.5470  -18.1700   17.9380 C.3    41  LYS41       0.0271
     30  CG       -11.5170  -17.5770   18.9640 C.3    41  LYS41       0.0035
     31  CD       -12.8920  -17.2050   18.3450 C.3    41  LYS41       0.0206
     32  CE       -13.7140  -16.3150   19.2690 C.3    41  LYS41       0.1093
     33  NZ       -15.1700  -16.2660   18.9170 N.3    41  LYS41      -0.1314
     34  N        -21.6340  -23.0810   15.4240 N.3    63  GLU63      -0.1245
     35  CA       -20.8070  -22.0910   14.7690 C.3    63  GLU63       0.1567
     36  C        -19.8750  -22.7300   13.7550 C.2    63  GLU63       0.2260
     37  O        -19.7050  -22.2410   12.6180 O.2    63  GLU63      -0.2867
     38  CB       -19.9750  -21.3370   15.8010 C.3    63  GLU63       0.0388
     39  CG       -19.1280  -20.2450   15.1930 C.3    63  GLU63       0.1160
     40  CD       -18.5540  -19.2990   16.2250 C.2    63  GLU63       0.3649
     41  OE1      -18.7940  -19.4890   17.4440 O.co2  63  GLU63      -0.2457
     42  OE2      -17.8560  -18.3570   15.7950 O.co2  63  GLU63      -0.2457
     43  N        -19.5600  -22.0860    9.6810 N.3    67  LEU67      -0.1245
     44  CA       -18.3280  -21.5740    9.0800 C.3    67  LEU67       0.1561
     45  C        -17.7520  -22.4910    8.0170 C.2    67  LEU67       0.2260
     46  O        -17.1970  -22.0130    7.0630 O.2    67  LEU67      -0.2867
     47  CB       -17.2490  -21.2840   10.1120 C.3    67  LEU67       0.0270
     48  CG       -17.3340  -20.1160   11.1070 C.3    67  LEU67       0.0019
     49  CD1      -16.2630  -20.3680   12.2300 C.3    67  LEU67       0.0001
     50  CD2      -17.1410  -18.8020   10.4890 C.3    67  LEU67       0.0001
     51  N        -15.1080  -14.2570    6.6870 N.3    76  ILE76      -0.1245
     52  CA       -13.9550  -14.9210    7.2260 C.3    76  ILE76       0.1561
     53  C        -14.0110  -16.4020    6.9050 C.2    76  ILE76       0.2260
     54  O        -15.0670  -17.0430    6.9570 O.2    76  ILE76      -0.2867
     55  CB       -13.8750  -14.6930    8.7350 C.3    76  ILE76       0.0252
     56  CG1      -12.4120  -14.7300    9.2610 C.3    76  ILE76       0.0019
     57  CG2      -14.8500  -15.6580    9.4220 C.3    76  ILE76       0.0019
     58  CD1      -11.4790  -13.5390    8.9130 C.3    76  ILE76       0.0001
     59  N        -10.0010  -22.6820   16.9700 N.3    90  LEU90      -0.1245
     60  CA       -10.3560  -22.4480   15.5720 C.3    90  LEU90       0.1561
     61  C         -9.1490  -21.7760   14.8890 C.2    90  LEU90       0.2260
     62  O         -8.5960  -20.8130   15.4000 O.2    90  LEU90      -0.2867
     63  CB       -11.5710  -21.5900   15.5340 C.3    90  LEU90       0.0270
     64  CG       -12.8980  -22.0850   16.1100 C.3    90  LEU90       0.0019
     65  CD1      -13.9450  -20.9620   15.8300 C.3    90  LEU90       0.0001
     66  CD2      -13.3480  -23.2890   15.4430 C.3    90  LEU90       0.0001
     67  N         -8.2800  -19.5650   11.9600 N.3    92  LEU92      -0.1231
     68  CA        -8.9790  -18.7120   11.0190 C.3    92  LEU92       0.1693
     69  C         -8.0330  -17.8580   10.1850 C.2    92  LEU92       0.2592
     70  O         -6.8730  -17.5900   10.5550 O.2    92  LEU92      -0.2718
     71  CB        -9.9550  -17.7990   11.7800 C.3    92  LEU92       0.0284
     72  CG       -11.0890  -18.4640   12.5470 C.3    92  LEU92       0.0019
     73  CD1      -11.2200  -17.8420   13.9020 C.3    92  LEU92       0.0001
     74  CD2      -12.3920  -18.3830   11.7760 C.3    92  LEU92       0.0001
     75  N         -8.5420  -17.4480    9.0380 N.am   93  GLU93      -0.1966
     76  CA        -7.9000  -16.4390    8.1880 C.3    93  GLU93       0.1733
     77  C         -7.5730  -15.2350    9.0840 C.2    93  GLU93       0.2616
     78  O         -8.4160  -14.8420    9.9270 O.2    93  GLU93      -0.2715
     79  CB        -8.8770  -16.0410    7.0780 C.3    93  GLU93       0.0429
     80  CG        -8.4660  -14.8650    6.2030 C.3    93  GLU93       0.1163
     81  CD        -9.4530  -14.6630    4.9580 C.2    93  GLU93       0.3649
     82  OE1      -10.6580  -15.0340    5.0760 O.co2  93  GLU93      -0.2457
     83  OE2       -9.0230  -14.1200    3.8870 O.co2  93  GLU93      -0.2457
     84  N         -6.3650  -14.6950    8.9150 N.am   94  LEU94      -0.1963
     85  CA        -5.8550  -13.5580    9.6780 C.3    94  LEU94       0.1728
     86  C         -6.3940  -12.3060    9.0480 C.2    94  LEU94       0.2616
     87  O         -6.2130  -12.1080    7.8480 O.2    94  LEU94      -0.2715
     88  CB        -4.3270  -13.5570    9.6240 C.3    94  LEU94       0.0311
     89  CG        -3.5020  -12.4540   10.3320 C.3    94  LEU94       0.0022
     90  CD1       -3.7860  -12.3880   11.7960 C.3    94  LEU94       0.0001
     91  CD2       -2.0560  -12.7120   10.1300 C.3    94  LEU94       0.0001
     92  N         -7.0710  -11.4670    9.8330 N.am   95  VAL95      -0.1977
     93  CA        -7.3410  -10.0750    9.4110 C.3    95  VAL95       0.1596
     94  C         -6.3920   -9.1060   10.1840 C.2    95  VAL95       0.2287
     95  O         -6.4190   -9.0430   11.4220 O.2    95  VAL95      -0.2864
     96  CB        -8.8300   -9.7290    9.5720 C.3    95  VAL95       0.0276
     97  CG1       -9.6380  -10.4330    8.5110 C.3    95  VAL95       0.0022
     98  CG2       -9.3560  -10.0820   10.9690 C.3    95  VAL95       0.0022
     99  N         -7.4990   -4.4150   11.2780 N.3    98  GLY98      -0.1225
    100  CA        -8.3500   -3.9340   12.3860 C.3    98  GLY98       0.1811
    101  C         -9.7890   -3.6090   11.9640 C.2    98  GLY98       0.2280
    102  O        -10.2160   -3.9470   10.8700 O.2    98  GLY98      -0.2866
    103  N        -17.5190   -6.0710   14.1380 N.3   143  ASN143     -0.1240
    104  CA       -17.4190   -7.3470   13.4170 C.3   143  ASN143      0.1653
    105  C        -17.1870   -7.1740   11.9230 C.2   143  ASN143      0.2266
    106  O        -17.2460   -8.1270   11.1570 O.2   143  ASN143     -0.2867
    107  CB       -18.6530   -8.2060   13.6460 C.3   143  ASN143      0.1155
    108  CG       -18.7390   -8.7380   15.0440 C.2   143  ASN143      0.2627
    109  OD1      -17.7210   -8.9800   15.7010 O.2   143  ASN143     -0.2716
    110  ND2      -19.9510   -8.9710   15.5030 N.am  143  ASN143     -0.0877
    111  N        -14.1400   -6.2220    9.7480 N.3   145  MET145     -0.1245
    112  CA       -12.6920   -6.0670    9.8480 C.3   145  MET145      0.1570
    113  C        -12.0980   -5.8760    8.4540 C.2   145  MET145      0.2261
    114  O        -12.7560   -6.2250    7.4680 O.2   145  MET145     -0.2867
    115  CB       -12.0770   -7.3450   10.4220 C.3   145  MET145      0.0387
    116  CG       -12.4990   -7.7050   11.8420 C.3   145  MET145      0.0595
    117  SD       -11.8370   -6.5490   13.0230 S.3   145  MET145     -0.1393
    118  CE       -10.2020   -7.1320   13.4060 C.3   145  MET145      0.0692
    119  N        -16.7350  -11.1010   10.4330 N.3   159  ILE159     -0.1231
    120  CA       -16.3030  -12.0780   11.4080 C.3   159  ILE159      0.1692
    121  C        -17.3800  -12.3080   12.4740 C.2   159  ILE159      0.2592
    122  O        -18.4250  -11.6670   12.4520 O.2   159  ILE159     -0.2718
    123  CB       -14.9830  -11.6520   12.1120 C.3   159  ILE159      0.0266
    124  CG1      -15.1690  -10.3380   12.8960 C.3   159  ILE159      0.0019
    125  CG2      -13.8420  -11.5510   11.0770 C.3   159  ILE159      0.0020
    126  CD1      -14.1570  -10.1030   14.0340 C.3   159  ILE159      0.0001
    127  N        -17.1160  -13.2500   13.3710 N.am  160  ASP160     -0.1960
    128  CA       -17.9510  -13.5780   14.5400 C.3   160  ASP160      0.1840
    129  C        -19.3690  -14.2000   14.2840 C.2   160  ASP160      0.2622
    130  O        -20.4460  -13.5310   14.2660 O.2   160  ASP160     -0.2715
    131  CB       -18.0160  -12.3900   15.5000 C.3   160  ASP160      0.1450
    132  CG       -18.3900  -12.8190   16.9060 C.2   160  ASP160      0.3671
    133  OD1      -18.9300  -13.9740   17.0990 O.co2 160  ASP160     -0.2456
    134  OD2      -18.1270  -12.0110   17.8230 O.co2 160  ASP160     -0.2456
    135  N        -19.3610  -15.5150   14.1550 N.am  161  PHE161     -0.1974
    136  CA       -20.5540  -16.2550   13.8370 C.3   161  PHE161      0.1639
    137  C        -21.1360  -16.9350   15.0580 C.2   161  PHE161      0.2290
    138  O        -21.8130  -17.9870   14.9600 O.2   161  PHE161     -0.2864
    139  CB       -20.2170  -17.2280   12.6990 C.3   161  PHE161      0.0560
    140  CG       -20.1820  -16.5480   11.3650 C.ar  161  PHE161     -0.0200
    141  CD1      -19.0960  -15.7700   10.9950 C.ar  161  PHE161     -0.0042
    142  CD2      -21.2740  -16.6050   10.5100 C.ar  161  PHE161     -0.0042
    143  CE1      -19.1080  -15.0710    9.7760 C.ar  161  PHE161     -0.0003
    144  CE2      -21.2930  -15.9320    9.2950 C.ar  161  PHE161     -0.0003
    145  CZ       -20.2180  -15.1480    8.9330 C.ar  161  PHE161     -0.0000
@<TRIPOS>BOND
     1    83    81   ar
     2    81    82   ar
     3    81    80    1
     4    80    79    1
     5    51    52    1
     6    53    54    2
     7    53    52    1
     8    46    45    2
     9    79    76    1
    10    52    55    1
    11   114   113    2
    12    87    86    2
    13    45    44    1
    14    76    75    1
    15    76    77    1
    16   113   112    1
    17    97    96    1
    18    55    56    1
    19    55    57    1
    20    58    56    1
    21    84    77   am
    22    84    85    1
    23   145   144   ar
    24   145   143   ar
    25    75    69   am
    26    86    85    1
    27    86    92   am
    28    44    43    1
    29    44    47    1
    30    77    78    2
    31   144   142   ar
    32    93    96    1
    33    93    92    1
    34    93    94    1
    35    96    98    1
    36    88    85    1
    37    88    89    1
    38   111   112    1
    39   143   141   ar
    40   112   115    1
    41    47    48    1
    42    91    89    1
    43    94    95    2
    44    69    70    2
    45    69    68    1
    46    89    90    1
    47   115   116    1
    48   119   120    1
    49    50    48    1
    50   142   140   ar
    51   102   101    2
    52   141   140   ar
    53    68    71    1
    54    68    67    1
    55   125   123    1
    56    48    49    1
    57   106   105    2
    58    99   100    1
    59   140   139    1
    60   120   123    1
    61   120   121    1
    62    74    72    1
    63    71    72    1
    64   116   117    1
    65   105   104    1
    66   101   100    1
    67   123   124    1
    68    20    21    1
    69   122   121    2
    70   121   127   am
    71    72    73    1
    72    37    36    2
    73   139   136    1
    74   124   126    1
    75   117   118    1
    76   127   128    1
    77   104   107    1
    78   104   103    1
    79   107   108    1
    80    24    21    1
    81    21    22    1
    82    23    22    2
    83    36    35    1
    84   136   135    1
    85   136   137    1
    86   135   129   am
    87   130   129    2
    88   129   128    1
    89   128   131    1
    90    35    34    1
    91    35    38    1
    92    61    62    2
    93    61    60    1
    94   138   137    2
    95   108   110   am
    96   108   109    2
    97    39    38    1
    98    39    40    1
    99    66    64    1
   100   131   132    1
   101    63    60    1
   102    63    64    1
   103     7     6    1
   104    60    59    1
   105    42    40   ar
   106    65    64    1
   107    40    41   ar
   108     8     6    1
   109   132   133   ar
   110   132   134   ar
   111     6     5    1
   112    18    17    1
   113    25    26    1
   114     5     2    1
   115    29    26    1
   116    29    30    1
   117    31    30    1
   118    31    32    1
   119    26    27    1
   120    19    17    1
   121    17    14    1
   122    33    32    1
   123    28    27    2
   124     2     3    1
   125     2     1    1
   126    14    15    1
   127    14    13    1
   128    15    16    2
   129     4     3    2
   130     3     9   am
   131     9    10    1
   132    10    11    1
   133    12    11    2
