@<TRIPOS>MOLECULE
tmp/2yatA00.pdb
 195 185 0 0 0
SMALL
GASTEIGER

@<TRIPOS>ATOM
      1  N        -22.8450    6.6700  -26.2500 N.3    32  MET32      -0.1230
      2  CA       -22.4100    5.2810  -26.3200 C.3    32  MET32       0.1702
      3  C        -21.4000    4.9400  -25.2420 C.2    32  MET32       0.2592
      4  O        -21.4560    3.8540  -24.6610 O.2    32  MET32      -0.2718
      5  CB       -21.8200    4.9550  -27.6870 C.3    32  MET32       0.0401
      6  CG       -21.4010    3.5010  -27.8420 C.3    32  MET32       0.0596
      7  SD       -22.6610    2.2900  -27.3670 S.3    32  MET32      -0.1393
      8  CE       -24.0350    2.7230  -28.4140 C.3    32  MET32       0.0692
      9  N        -20.4690    5.8560  -24.9860 N.am   33  MET33      -0.1979
     10  CA       -19.4800    5.6340  -23.9360 C.3    33  MET33       0.1605
     11  C        -20.1510    5.5260  -22.5780 C.2    33  MET33       0.2287
     12  O        -19.6840    4.7960  -21.7090 O.2    33  MET33      -0.2864
     13  CB       -18.4190    6.7330  -23.9100 C.3    33  MET33       0.0413
     14  CG       -17.2490    6.4730  -24.8390 C.3    33  MET33       0.0598
     15  SD       -16.3370    4.9840  -24.4140 S.3    33  MET33      -0.1393
     16  CE       -15.5300    5.4980  -22.8980 C.3    33  MET33       0.0692
     17  N        -21.5830    2.1030  -22.0350 N.3    36  LEU36      -0.1231
     18  CA       -20.5160    1.1290  -21.8520 C.3    36  LEU36       0.1693
     19  C        -19.8800    1.1990  -20.4630 C.2    36  LEU36       0.2592
     20  O        -19.5750    0.1700  -19.8650 O.2    36  LEU36      -0.2718
     21  CB       -19.4550    1.2990  -22.9480 C.3    36  LEU36       0.0284
     22  CG       -19.9470    1.0220  -24.3800 C.3    36  LEU36       0.0019
     23  CD1      -18.8080    1.2240  -25.3710 C.3    36  LEU36       0.0001
     24  CD2      -20.5700   -0.3710  -24.5570 C.3    36  LEU36       0.0001
     25  N        -19.6690    2.4100  -19.9600 N.am   37  THR37      -0.1953
     26  CA       -19.0140    2.5940  -18.6760 C.3    37  THR37       0.1897
     27  C        -19.9990    2.3410  -17.5350 C.2    37  THR37       0.2313
     28  O        -19.6130    1.9480  -16.4400 O.2    37  THR37      -0.2863
     29  CB       -18.4760    4.0060  -18.5380 C.3    37  THR37       0.1794
     30  OG1      -19.5720    4.9240  -18.6240 O.3    37  THR37      -0.2208
     31  CG2      -17.5060    4.2830  -19.6360 C.3    37  THR37       0.0378
     32  N        -22.5430   -0.0160  -17.8530 N.3    39  LEU39      -0.1231
     33  CA       -22.5140   -1.4740  -17.8310 C.3    39  LEU39       0.1693
     34  C        -21.2410   -1.9520  -17.1320 C.2    39  LEU39       0.2591
     35  O        -21.2830   -2.7250  -16.1660 O.2    39  LEU39      -0.2718
     36  CB       -22.5800   -2.0330  -19.2470 C.3    39  LEU39       0.0284
     37  CG       -22.5980   -3.5560  -19.3670 C.3    39  LEU39       0.0019
     38  CD1      -23.8060   -4.1170  -18.6200 C.3    39  LEU39       0.0001
     39  CD2      -22.5880   -4.0150  -20.8350 C.3    39  LEU39       0.0001
     40  N        -20.1020   -1.4660  -17.6100 N.am   40  ALA40      -0.1980
     41  CA       -18.8350   -1.7970  -16.9970 C.3    40  ALA40       0.1597
     42  C        -18.8670   -1.5930  -15.4590 C.2    40  ALA40       0.2287
     43  O        -18.4570   -2.4850  -14.7020 O.2    40  ALA40      -0.2864
     44  CB       -17.7140   -0.9990  -17.6520 C.3    40  ALA40       0.0319
     45  N        -21.0940   -4.2130  -13.8220 N.3    43  GLU43      -0.1245
     46  CA       -20.5700   -5.5690  -13.8740 C.3    43  GLU43       0.1567
     47  C        -19.5230   -5.8130  -12.7840 C.2    43  GLU43       0.2260
     48  O        -19.3330   -6.9450  -12.3150 O.2    43  GLU43      -0.2867
     49  CB       -19.9660   -5.8360  -15.2410 C.3    43  GLU43       0.0388
     50  CG       -20.9720   -6.0750  -16.3500 C.3    43  GLU43       0.1160
     51  CD       -20.2930   -6.5300  -17.6250 C.2    43  GLU43       0.3649
     52  OE1      -19.9970   -7.7360  -17.7400 O.co2  43  GLU43      -0.2457
     53  OE2      -20.0340   -5.6750  -18.4970 O.co2  43  GLU43      -0.2457
     54  N         -9.3310   -6.6600  -13.8260 N.3    73  TRP73      -0.1227
     55  CA       -10.7360   -6.3560  -14.0750 C.3    73  TRP73       0.1737
     56  C        -11.0920   -6.1540  -15.5560 C.2    73  TRP73       0.2595
     57  O        -12.0720   -6.7230  -16.0380 O.2    73  TRP73      -0.2718
     58  CB       -11.2290   -5.1870  -13.2090 C.3    73  TRP73       0.0564
     59  CG       -10.6700   -3.8300  -13.5710 C.ar   73  TRP73       0.0003
     60  CD1       -9.5550   -3.2420  -13.0630 C.ar   73  TRP73       0.0946
     61  CD2      -11.2260   -2.8960  -14.5090 C.ar   73  TRP73       0.0152
     62  NE1       -9.3710   -2.0030  -13.6310 N.ar   73  TRP73      -0.2442
     63  CE2      -10.3830   -1.7680  -14.5280 C.ar   73  TRP73       0.0810
     64  CE3      -12.3560   -2.9070  -15.3400 C.ar   73  TRP73       0.0012
     65  CZ2      -10.6240   -0.6580  -15.3470 C.ar   73  TRP73       0.0191
     66  CZ3      -12.6000   -1.8070  -16.1510 C.ar   73  TRP73       0.0001
     67  CH2      -11.7320   -0.6930  -16.1490 C.ar   73  TRP73       0.0015
     68  N        -10.3080   -5.3690  -16.2870 N.am   74  LEU74      -0.1980
     69  CA       -10.6470   -5.1450  -17.6730 C.3    74  LEU74       0.1596
     70  C        -10.5310   -6.4230  -18.4900 C.2    74  LEU74       0.2287
     71  O        -11.4270   -6.7370  -19.2790 O.2    74  LEU74      -0.2864
     72  CB        -9.8110   -4.0230  -18.2690 C.3    74  LEU74       0.0297
     73  CG       -10.2960   -3.4430  -19.6040 C.3    74  LEU74       0.0022
     74  CD1      -11.8000   -3.2180  -19.6260 C.3    74  LEU74       0.0001
     75  CD2       -9.5560   -2.1490  -19.8830 C.3    74  LEU74       0.0001
     76  N        -13.4900   -8.4270  -17.9680 N.3    77  LEU77      -0.1231
     77  CA       -14.6280   -7.8350  -18.6210 C.3    77  LEU77       0.1693
     78  C        -14.5600   -8.2000  -20.1040 C.2    77  LEU77       0.2591
     79  O        -15.5590   -8.6120  -20.7130 O.2    77  LEU77      -0.2718
     80  CB       -14.5570   -6.3250  -18.4500 C.3    77  LEU77       0.0284
     81  CG       -15.7390   -5.6890  -17.7330 C.3    77  LEU77       0.0019
     82  CD1      -16.2030   -6.5590  -16.5810 C.3    77  LEU77       0.0001
     83  CD2      -15.3700   -4.3040  -17.2780 C.3    77  LEU77       0.0001
     84  N        -13.3590   -8.0520  -20.6640 N.am   78  MET78      -0.1979
     85  CA       -13.1140   -8.2940  -22.0770 C.3    78  MET78       0.1605
     86  C        -13.2980   -9.7460  -22.4550 C.2    78  MET78       0.2287
     87  O        -13.9090  -10.0290  -23.4840 O.2    78  MET78      -0.2864
     88  CB       -11.7250   -7.8280  -22.4800 C.3    78  MET78       0.0413
     89  CG       -11.6200   -6.3400  -22.4960 C.3    78  MET78       0.0598
     90  SD        -9.9950   -5.8380  -22.9940 S.3    78  MET78      -0.1393
     91  CE       -10.2910   -4.1050  -23.3830 C.3    78  MET78       0.0692
     92  N        -16.9330  -10.3760  -22.8240 N.3    81  LEU81      -0.1245
     93  CA       -17.4940   -9.7750  -24.0360 C.3    81  LEU81       0.1561
     94  C        -17.2140  -10.6230  -25.2640 C.2    81  LEU81       0.2260
     95  O        -18.1160  -11.0750  -25.9560 O.2    81  LEU81      -0.2867
     96  CB       -16.8820   -8.3940  -24.2340 C.3    81  LEU81       0.0270
     97  CG       -17.2600   -7.7360  -25.5540 C.3    81  LEU81       0.0019
     98  CD1      -18.7470   -7.4260  -25.5560 C.3    81  LEU81       0.0001
     99  CD2      -16.4300   -6.4790  -25.7890 C.3    81  LEU81       0.0001
    100  N        -19.3310  -13.5840  -25.2320 N.3    84  ARG84      -0.1245
    101  CA       -20.7270  -13.3140  -25.5530 C.3    84  ARG84       0.1563
    102  C        -20.9160  -13.0760  -27.0500 C.2    84  ARG84       0.2260
    103  O        -21.9790  -13.3530  -27.6220 O.2    84  ARG84      -0.2867
    104  CB       -21.1950  -12.0530  -24.8210 C.3    84  ARG84       0.0307
    105  CG       -21.5340  -12.2560  -23.3740 C.3    84  ARG84       0.0489
    106  CD       -22.3140  -11.0680  -22.8270 C.3    84  ARG84       0.2205
    107  NE       -21.5980   -9.7880  -22.8110 N.pl3  84  ARG84      -0.0865
    108  CZ       -20.6650   -9.4660  -21.9160 C.cat  84  ARG84       0.5346
    109  NH1      -20.3030  -10.3470  -20.9890 N.pl3  84  ARG84       0.1354
    110  NH2      -20.0780   -8.2760  -21.9520 N.pl3  84  ARG84       0.1354
    111  N        -22.3830   -6.5360  -25.9320 N.3    94  PHE94      -0.1241
    112  CA       -21.9700   -6.0540  -24.6240 C.3    94  PHE94       0.1605
    113  C        -22.9800   -6.5030  -23.5940 C.2    94  PHE94       0.2264
    114  O        -22.6250   -6.8830  -22.4610 O.2    94  PHE94      -0.2867
    115  CB       -21.8160   -4.5410  -24.6280 C.3    94  PHE94       0.0534
    116  CG       -20.5270   -4.0910  -25.2320 C.ar   94  PHE94      -0.0203
    117  CD1      -19.3660   -4.0500  -24.4600 C.ar   94  PHE94      -0.0042
    118  CD2      -20.4560   -3.7560  -26.5830 C.ar   94  PHE94      -0.0042
    119  CE1      -18.1700   -3.6550  -25.0130 C.ar   94  PHE94      -0.0003
    120  CE2      -19.2590   -3.3610  -27.1450 C.ar   94  PHE94      -0.0003
    121  CZ       -18.1110   -3.3110  -26.3620 C.ar   94  PHE94      -0.0000
    122  N        -23.2700   -4.4260  -31.1620 N.3   100  LEU100     -0.1245
    123  CA       -22.6460   -3.5290  -32.1490 C.3   100  LEU100      0.1561
    124  C        -21.8430   -4.3260  -33.1980 C.2   100  LEU100      0.2260
    125  O        -21.5280   -5.4950  -32.9730 O.2   100  LEU100     -0.2867
    126  CB       -21.7370   -2.5020  -31.4540 C.3   100  LEU100      0.0270
    127  CG       -22.2310   -1.7400  -30.2120 C.3   100  LEU100      0.0019
    128  CD1      -22.5400   -2.6970  -29.0750 C.3   100  LEU100      0.0001
    129  CD2      -21.2120   -0.6950  -29.7540 C.3   100  LEU100      0.0001
    130  N         -6.9920   -0.7820  -33.5120 N.3   104  GLU104     -0.1231
    131  CA        -8.2990   -0.4880  -32.9160 C.3   104  GLU104      0.1699
    132  C         -8.7380   -1.5520  -31.9030 C.2   104  GLU104      0.2592
    133  O         -8.7840   -2.7430  -32.2070 O.2   104  GLU104     -0.2718
    134  CB        -9.3640   -0.3320  -34.0000 C.3   104  GLU104      0.0402
    135  CG       -10.7700   -0.1190  -33.4530 C.3   104  GLU104      0.1161
    136  CD       -10.8510    1.1030  -32.5590 C.2   104  GLU104      0.3649
    137  OE1      -10.1950    2.1180  -32.9000 O.co2 104  GLU104     -0.2457
    138  OE2      -11.5500    1.0430  -31.5130 O.co2 104  GLU104     -0.2457
    139  N         -9.0690   -1.1160  -30.6950 N.am  105  ILE105     -0.1966
    140  CA        -9.3980   -2.0500  -29.6240 C.3   105  ILE105      0.1727
    141  C        -10.5600   -2.9650  -30.0010 C.2   105  ILE105      0.2616
    142  O        -10.4760   -4.1720  -29.8590 O.2   105  ILE105     -0.2715
    143  CB        -9.6570   -1.3080  -28.2830 C.3   105  ILE105      0.0290
    144  CG1      -10.1580   -2.2790  -27.2230 C.3   105  ILE105      0.0022
    145  CG2      -10.6440   -0.1530  -28.4770 C.3   105  ILE105      0.0023
    146  CD1       -9.1400   -3.3140  -26.8530 C.3   105  ILE105      0.0001
    147  N        -11.6340   -2.3680  -30.4980 N.am  106  PHE106     -0.1974
    148  CA       -12.8230   -3.1020  -30.9060 C.3   106  PHE106      0.1639
    149  C        -12.5330   -4.1890  -31.9220 C.2   106  PHE106      0.2290
    150  O        -13.1090   -5.2810  -31.8320 O.2   106  PHE106     -0.2864
    151  CB       -13.8910   -2.1440  -31.4210 C.3   106  PHE106      0.0560
    152  CG       -14.7510   -1.5910  -30.3350 C.ar  106  PHE106     -0.0200
    153  CD1      -14.1980   -1.2920  -29.0850 C.ar  106  PHE106     -0.0042
    154  CD2      -16.1150   -1.4120  -30.5310 C.ar  106  PHE106     -0.0042
    155  CE1      -14.9840   -0.8060  -28.0530 C.ar  106  PHE106     -0.0003
    156  CE2      -16.9130   -0.9170  -29.5150 C.ar  106  PHE106     -0.0003
    157  CZ       -16.3470   -0.6140  -28.2660 C.ar  106  PHE106     -0.0000
    158  N        -10.8680   -7.0120  -30.3160 N.3   109  LEU109     -0.1245
    159  CA       -11.8610   -7.7510  -29.5570 C.3   109  LEU109      0.1561
    160  C        -12.6400   -8.6820  -30.4810 C.2   109  LEU109      0.2260
    161  O        -12.8580   -9.8410  -30.1390 O.2   109  LEU109     -0.2867
    162  CB       -12.7760   -6.8030  -28.7690 C.3   109  LEU109      0.0270
    163  CG       -12.1970   -6.1040  -27.5260 C.3   109  LEU109      0.0019
    164  CD1      -12.9820   -4.8280  -27.2000 C.3   109  LEU109      0.0001
    165  CD2      -12.1390   -7.0390  -26.3040 C.3   109  LEU109      0.0001
    166  N         -7.1220   -0.6750  -23.7360 N.3   200  GLY200     -0.1225
    167  CA        -8.3920   -0.1900  -23.2130 C.3   200  GLY200      0.1811
    168  C         -8.2500    0.6920  -21.9770 C.2   200  GLY200      0.2280
    169  O         -8.9740    1.6820  -21.8170 O.2   200  GLY200     -0.2866
    170  N         -7.1780    3.9370  -23.2210 N.3   203  HIS203     -0.1226
    171  CA        -8.3080    4.6120  -23.7950 C.3   203  HIS203      0.1752
    172  C         -9.1920    5.1970  -22.7050 C.2   203  HIS203      0.2595
    173  O         -9.4110    6.3940  -22.6610 O.2   203  HIS203     -0.2718
    174  CB        -9.1090    3.6790  -24.6780 C.3   203  HIS203      0.0759
    175  CG       -10.2480    4.3610  -25.3730 C.ar  203  HIS203      0.0818
    176  ND1      -11.3820    4.7800  -24.7050 N.ar  203  HIS203     -0.2268
    177  CD2      -10.4170    4.7200  -26.6690 C.ar  203  HIS203      0.1154
    178  CE1      -12.2070    5.3500  -25.5660 C.ar  203  HIS203      0.1986
    179  NE2      -11.6450    5.3240  -26.7640 N.ar  203  HIS203     -0.2212
    180  N         -9.6890    4.3470  -21.8200 N.am  204  LEU204     -0.1980
    181  CA       -10.5310    4.7940  -20.7210 C.3   204  LEU204      0.1596
    182  C         -9.9350    5.9800  -20.0040 C.2   204  LEU204      0.2287
    183  O        -10.6370    6.8940  -19.6010 O.2   204  LEU204     -0.2864
    184  CB       -10.7220    3.6700  -19.7110 C.3   204  LEU204      0.0297
    185  CG       -11.7470    4.0180  -18.6320 C.3   204  LEU204      0.0022
    186  CD1      -12.9840    4.6530  -19.2610 C.3   204  LEU204      0.0001
    187  CD2      -12.1270    2.7850  -17.8370 C.3   204  LEU204      0.0001
    188  N        -15.8010    1.8900  -11.0710 N.3   219  LEU219     -0.1245
    189  CA       -15.0550    1.9210  -12.3170 C.3   219  LEU219      0.1561
    190  C        -13.8600    2.8800  -12.2980 C.2   219  LEU219      0.2260
    191  O        -12.7970    2.5870  -12.8540 O.2   219  LEU219     -0.2867
    192  CB       -16.0420    2.3090  -13.4250 C.3   219  LEU219      0.0270
    193  CG       -15.7830    2.1270  -14.9220 C.3   219  LEU219      0.0019
    194  CD1      -15.3270    3.4490  -15.4790 C.3   219  LEU219      0.0001
    195  CD2      -14.7940    0.9820  -15.2150 C.3   219  LEU219      0.0001
@<TRIPOS>BOND
     1   134   135    1
     2   134   131    1
     3   130   131    1
     4   135   136    1
     5   124   125    2
     6   124   123    1
     7   131   132    1
     8   137   136   ar
     9   136   138   ar
    10   133   132    2
    11   123   126    1
    12   123   122    1
    13   149   150    2
    14   149   148    1
    15   132   139   am
    16   126   127    1
    17   151   148    1
    18   151   152    1
    19   148   147    1
    20   139   140    1
    21   154   152   ar
    22   154   156   ar
    23   147   141   am
    24   160   161    2
    25   160   159    1
    26   152   153   ar
    27   158   159    1
    28   127   129    1
    29   127   128    1
    30   141   142    2
    31   141   140    1
    32   140   143    1
    33   159   162    1
    34   156   157   ar
    35   153   155   ar
    36   162   163    1
    37   145   143    1
    38     8     7    1
    39   143   144    1
    40   157   155   ar
    41     6     5    1
    42     6     7    1
    43     5     2    1
    44   103   102    2
    45   163   164    1
    46   163   165    1
    47   144   146    1
    48   120   118   ar
    49   120   121   ar
    50   102   101    1
    51   179   177   ar
    52   179   178   ar
    53   177   175   ar
    54   118   116   ar
    55   121   119   ar
    56     2     1    1
    57     2     3    1
    58    95    94    2
    59   111   112    1
    60    99    97    1
    61   178   176   ar
    62    98    97    1
    63    97    96    1
    64   101   100    1
    65   101   104    1
    66   175   176   ar
    67   175   174    1
    68    23    22    1
    69    94    93    1
    70     3     9   am
    71     3     4    2
    72   116   115    1
    73   116   117   ar
    74   119   117   ar
    75     9    10    1
    76    14    15    1
    77    14    13    1
    78   104   105    1
    79   174   171    1
    80   115   112    1
    81   112   113    1
    82    24    22    1
    83    15    16    1
    84    22    21    1
    85    96    93    1
    86    93    92    1
    87    10    13    1
    88    10    11    1
    89   171   170    1
    90   171   172    1
    91   166   167    1
    92   113   114    2
    93    87    86    2
    94    91    90    1
    95   105   106    1
    96   167   168    1
    97    90    89    1
    98    21    18    1
    99   106   107    1
   100   107   108    2
   101   172   173    2
   102   172   180   am
   103    11    12    2
   104    89    88    1
   105    88    85    1
   106    86    85    1
   107    85    84    1
   108    17    18    1
   109   168   169    2
   110   110   108    1
   111   108   109    1
   112    18    19    1
   113   180   181    1
   114    39    37    1
   115   181   182    1
   116   181   184    1
   117    79    78    2
   118    84    78   am
   119    19    25   am
   120    19    20    2
   121    78    77    1
   122   182   183    2
   123    25    26    1
   124    75    73    1
   125   184   185    1
   126    31    29    1
   127    74    73    1
   128    73    72    1
   129    37    36    1
   130    37    38    1
   131    71    70    2
   132   186   185    1
   133    36    33    1
   134    26    29    1
   135    26    27    1
   136   185   187    1
   137    30    29    1
   138    77    80    1
   139    77    76    1
   140    53    51   ar
   141    70    69    1
   142    80    81    1
   143    72    69    1
   144    32    33    1
   145    33    34    1
   146    52    51   ar
   147    81    83    1
   148    81    82    1
   149    69    68    1
   150    44    41    1
   151    51    50    1
   152    40    34   am
   153    40    41    1
   154    27    28    2
   155    34    35    2
   156    41    42    1
   157    50    49    1
   158    68    56   am
   159    66    67   ar
   160    66    64   ar
   161    67    65   ar
   162    57    56    2
   163    56    55    1
   164   194   193    1
   165    42    43    2
   166    65    63   ar
   167    64    61   ar
   168    49    46    1
   169   195   193    1
   170   193   192    1
   171    63    61   ar
   172    63    62   ar
   173    61    59   ar
   174    55    54    1
   175    55    58    1
   176    46    45    1
   177    46    47    1
   178    62    60   ar
   179    59    58    1
   180    59    60   ar
   181   192   189    1
   182   191   190    2
   183    47    48    2
   184   189   190    1
   185   189   188    1
