@<TRIPOS>MOLECULE
tmp/2yauB03.pdb
 76 69 0 0 0
SMALL
GASTEIGER

@<TRIPOS>ATOM
      1  N          3.8190  -23.2080   10.7330 N.3    14  SER14      -0.1217
      2  CA         3.1450  -24.4970   10.7740 C.3    14  SER14       0.1889
      3  C          4.1740  -25.5550   11.1320 C.2    14  SER14       0.2288
      4  O          3.8900  -26.4660   11.9060 O.2    14  SER14      -0.2866
      5  CB         2.4810  -24.8160    9.4300 C.3    14  SER14       0.2089
      6  OG         1.2620  -24.1020    9.2620 O.3    14  SER14      -0.2183
      7  N          0.0770  -19.9320    7.0280 N.3    52  CYS52      -0.1221
      8  CA        -1.0280  -20.8310    6.7440 C.3    52  CYS52       0.1808
      9  C         -2.1680  -20.6660    7.7380 C.2    52  CYS52       0.2601
     10  O         -3.3340  -20.6010    7.3440 O.2    52  CYS52      -0.2717
     11  CB        -0.5520  -22.2760    6.7690 C.3    52  CYS52       0.0970
     12  SG        -1.8850  -23.4730    6.5640 S.3    52  CYS52      -0.0800
     13  N         -1.8320  -20.6220    9.0230 N.am   53  VAL53      -0.1979
     14  CA        -2.8410  -20.5300   10.0720 C.3    53  VAL53       0.1595
     15  C         -3.5320  -19.1720   10.0290 C.2    53  VAL53       0.2287
     16  O         -4.7490  -19.0870   10.1460 O.2    53  VAL53      -0.2864
     17  CB        -2.2300  -20.8050   11.4670 C.3    53  VAL53       0.0276
     18  CG1       -3.2560  -20.5860   12.5700 C.3    53  VAL53       0.0022
     19  CG2       -1.6920  -22.2320   11.5330 C.3    53  VAL53       0.0022
     20  N         -4.2920  -21.3220    4.7120 N.3    57  CYS57      -0.1221
     21  CA        -5.2780  -22.4030    4.6210 C.3    57  CYS57       0.1808
     22  C         -6.5750  -22.1620    5.4110 C.2    57  CYS57       0.2601
     23  O         -7.6610  -22.4610    4.9140 O.2    57  CYS57      -0.2717
     24  CB        -4.6480  -23.7630    4.9660 C.3    57  CYS57       0.0970
     25  SG        -5.0070  -24.4120    6.6140 S.3    57  CYS57      -0.0800
     26  N         -6.4640  -21.6070    6.6170 N.am   58  VAL58      -0.1979
     27  CA        -7.6380  -21.3980    7.4740 C.3    58  VAL58       0.1595
     28  C         -8.6510  -20.4110    6.8710 C.2    58  VAL58       0.2287
     29  O         -9.7420  -20.8280    6.4820 O.2    58  VAL58      -0.2864
     30  CB        -7.2530  -20.9960    8.9160 C.3    58  VAL58       0.0276
     31  CG1       -8.4960  -20.8440    9.7750 C.3    58  VAL58       0.0022
     32  CG2       -6.3140  -22.0230    9.5180 C.3    58  VAL58       0.0022
     33  N         -9.9050  -21.5940    3.2230 N.3    61  LYS61      -0.1245
     34  CA       -10.9400  -22.6260    3.2390 C.3    61  LYS61       0.1561
     35  C        -12.2720  -22.0750    3.7250 C.2    61  LYS61       0.2260
     36  O        -13.3120  -22.3970    3.1640 O.2    61  LYS61      -0.2867
     37  CB       -10.5110  -23.8310    4.0840 C.3    61  LYS61       0.0271
     38  CG       -11.5350  -24.9760    4.1810 C.3    61  LYS61       0.0035
     39  CD       -11.6860  -25.7440    2.8720 C.3    61  LYS61       0.0206
     40  CE       -12.4940  -27.0170    3.0560 C.3    61  LYS61       0.1093
     41  NZ       -11.7040  -28.0700    3.7410 N.3    61  LYS61      -0.1314
     42  N         -8.2320  -18.6910   17.2820 N.3   106  ILE106     -0.1245
     43  CA        -7.1230  -19.6450   17.1790 C.3   106  ILE106      0.1561
     44  C         -5.8590  -19.0880   17.8150 C.2   106  ILE106      0.2260
     45  O         -5.1520  -19.8010   18.5300 O.2   106  ILE106     -0.2867
     46  CB        -6.8660  -20.0950   15.7200 C.3   106  ILE106      0.0252
     47  CG1       -7.6240  -21.3930   15.4410 C.3   106  ILE106      0.0019
     48  CG2       -5.3770  -20.2990   15.4560 C.3   106  ILE106      0.0019
     49  CD1       -7.7850  -21.7130   13.9730 C.3   106  ILE106      0.0001
     50  N         -3.3420  -20.3670   21.1060 N.3   110  TYR110     -0.1241
     51  CA        -1.8910  -20.3700   20.9540 C.3   110  TYR110      0.1605
     52  C         -1.1870  -19.6630   22.1100 C.2   110  TYR110      0.2264
     53  O         -0.2610  -20.2230   22.7020 O.2   110  TYR110     -0.2867
     54  CB        -1.4780  -19.7610   19.6090 C.3   110  TYR110      0.0534
     55  CG        -1.3810  -20.7660   18.4790 C.ar  110  TYR110     -0.0201
     56  CD1       -0.4400  -21.7970   18.5180 C.ar  110  TYR110     -0.0009
     57  CD2       -2.2150  -20.6800   17.3640 C.ar  110  TYR110     -0.0009
     58  CE1       -0.3410  -22.7240   17.4870 C.ar  110  TYR110      0.0417
     59  CE2       -2.1200  -21.6030   16.3220 C.ar  110  TYR110      0.0417
     60  CZ        -1.1790  -22.6190   16.3930 C.ar  110  TYR110      0.1957
     61  OH        -1.0720  -23.5320   15.3720 O.3   110  TYR110     -0.2866
     62  N          1.7820  -26.9130    4.0050 N.3   335  THR335     -0.1218
     63  CA         1.6860  -26.9340    5.4540 C.3   335  THR335      0.1862
     64  C          2.0750  -28.2690    6.0770 C.2   335  THR335      0.2287
     65  O          2.8630  -28.2860    7.0140 O.2   335  THR335     -0.2866
     66  CB         0.2890  -26.5040    5.9280 C.3   335  THR335      0.1770
     67  OG1        0.1050  -25.1170    5.6280 O.3   335  THR335     -0.2211
     68  CG2        0.1260  -26.7120    7.4290 C.3   335  THR335      0.0375
     69  N          5.4240  -29.3160    8.3980 N.3   339  ILE339     -0.1245
     70  CA         5.0220  -30.0400    9.6020 C.3   339  ILE339      0.1561
     71  C          5.8460  -31.3190    9.7260 C.2   339  ILE339      0.2260
     72  O          6.4290  -31.5970   10.7780 O.2   339  ILE339     -0.2867
     73  CB         3.4850  -30.3190    9.6290 C.3   339  ILE339      0.0252
     74  CG1        2.7280  -29.0600   10.0760 C.3   339  ILE339      0.0019
     75  CG2        3.1420  -31.4810   10.5630 C.3   339  ILE339      0.0019
     76  CD1        1.2160  -29.1620    9.9980 C.3   339  ILE339      0.0001
@<TRIPOS>BOND
     1    39    40    1
     2    39    38    1
     3    40    41    1
     4    36    35    2
     5    33    34    1
     6    34    35    1
     7    34    37    1
     8    62    63    1
     9    37    38    1
    10    21    20    1
    11    21    24    1
    12    21    22    1
    13    23    22    2
    14    24    25    1
    15    22    26   am
    16    63    66    1
    17    63    64    1
    18    67    66    1
    19    66    68    1
    20    64    65    2
    21    29    28    2
    22    12    11    1
    23    26    27    1
    24     8    11    1
    25     8     7    1
    26     8     9    1
    27    28    27    1
    28    10     9    2
    29    27    30    1
    30     9    13   am
    31    69    70    1
    32    30    32    1
    33    30    31    1
    34    13    14    1
    35     6     5    1
    36     5     2    1
    37    70    73    1
    38    70    71    1
    39    73    74    1
    40    73    75    1
    41    71    72    2
    42    76    74    1
    43    15    14    1
    44    15    16    2
    45    14    17    1
    46     1     2    1
    47     2     3    1
    48     3     4    2
    49    17    19    1
    50    17    18    1
    51    49    47    1
    52    61    60    1
    53    47    46    1
    54    48    46    1
    55    46    43    1
    56    59    60   ar
    57    59    57   ar
    58    60    58   ar
    59    43    42    1
    60    43    44    1
    61    57    55   ar
    62    58    56   ar
    63    44    45    2
    64    55    56   ar
    65    55    54    1
    66    54    51    1
    67    51    50    1
    68    51    52    1
    69    52    53    2
