@<TRIPOS>MOLECULE
tmp/2yauB00.pdb
 89 88 0 0 0
SMALL
GASTEIGER

@<TRIPOS>ATOM
      1  N        -17.0870  -38.5740  -15.6740 N.3   396  PHE396     -0.1227
      2  CA       -18.5170  -38.8380  -15.5620 C.3   396  PHE396      0.1736
      3  C        -19.2180  -37.6580  -14.9230 C.2   396  PHE396      0.2596
      4  O        -18.6020  -36.8770  -14.1950 O.2   396  PHE396     -0.2718
      5  CB       -18.7660  -40.1060  -14.7430 C.3   396  PHE396      0.0547
      6  CG       -18.0930  -40.1070  -13.3910 C.ar  396  PHE396     -0.0202
      7  CD1      -16.7080  -40.2070  -13.2770 C.ar  396  PHE396     -0.0042
      8  CD2      -18.8470  -40.0290  -12.2270 C.ar  396  PHE396     -0.0042
      9  CE1      -16.0900  -40.2110  -12.0300 C.ar  396  PHE396     -0.0003
     10  CE2      -18.2350  -40.0410  -10.9690 C.ar  396  PHE396     -0.0003
     11  CZ       -16.8550  -40.1300  -10.8750 C.ar  396  PHE396     -0.0000
     12  N        -20.5070  -37.5280  -15.2080 N.am  397  THR397     -0.1939
     13  CA       -21.3070  -36.4420  -14.6590 C.3   397  THR397      0.2013
     14  C        -22.1140  -36.9830  -13.4670 C.2   397  THR397      0.2484
     15  O        -23.0540  -37.7590  -13.6630 O.2   397  THR397     -0.2729
     16  CB       -22.2000  -35.7940  -15.7690 C.3   397  THR397      0.1807
     17  OG1      -21.3620  -35.1760  -16.7580 O.3   397  THR397     -0.2208
     18  CG2      -23.1450  -34.7390  -15.2020 C.3   397  THR397      0.0379
     19  N        -21.7370  -36.5890  -12.2230 N.am  398  PRO398     -0.2715
     20  CA       -22.4010  -37.1100  -11.0340 C.3   398  PRO398      0.1536
     21  C        -23.9090  -37.0530  -11.1890 C.2   398  PRO398      0.2598
     22  O        -24.4360  -36.1030  -11.7670 O.2   398  PRO398     -0.2715
     23  CB       -21.9490  -36.1510   -9.9350 C.3   398  PRO398      0.0310
     24  CG       -20.6440  -35.6590  -10.3830 C.3   398  PRO398      0.0237
     25  CD       -20.7400  -35.5550  -11.8760 C.3   398  PRO398      0.0939
     26  N        -24.5980  -38.0650  -10.6780 N.am  399  LEU399     -0.1978
     27  CA       -26.0380  -38.2190  -10.9100 C.3   399  LEU399      0.1596
     28  C        -26.9210  -37.0550  -10.4060 C.2   399  LEU399      0.2287
     29  O        -28.0110  -36.8390  -10.9350 O.2   399  LEU399     -0.2864
     30  CB       -26.5190  -39.5760  -10.3660 C.3   399  LEU399      0.0297
     31  CG       -26.9910  -39.7930   -8.9160 C.3   399  LEU399      0.0022
     32  CD1      -27.2560  -41.2820   -8.7030 C.3   399  LEU399      0.0001
     33  CD2      -26.0300  -39.2650   -7.8410 C.3   399  LEU399      0.0001
     34  N        -27.8180  -33.6350  -12.8110 N.3   402  ASN402     -0.1240
     35  CA       -28.8610  -33.6930  -13.8330 C.3   402  ASN402      0.1653
     36  C        -30.0400  -32.8720  -13.3700 C.2   402  ASN402      0.2266
     37  O        -30.7130  -32.2210  -14.1670 O.2   402  ASN402     -0.2867
     38  CB       -29.3240  -35.1290  -14.0660 C.3   402  ASN402      0.1155
     39  CG       -28.1810  -36.0620  -14.3670 C.2   402  ASN402      0.2627
     40  OD1      -27.4360  -35.8590  -15.3300 O.2   402  ASN402     -0.2716
     41  ND2      -28.0310  -37.0970  -13.5450 N.am  402  ASN402     -0.0877
     42  N        -20.9620  -48.1470   -3.5330 N.3   461  HIS461     -0.1227
     43  CA       -21.6940  -47.7750   -4.7670 C.3   461  HIS461      0.1737
     44  C        -22.8710  -46.7800   -4.7320 C.2   461  HIS461      0.2438
     45  O        -23.9620  -47.0730   -5.2420 O.2   461  HIS461     -0.2733
     46  CB       -22.0590  -48.9950   -5.6290 C.3   461  HIS461      0.0758
     47  CG       -22.3000  -48.6520   -7.0750 C.ar  461  HIS461      0.0818
     48  ND1      -23.4310  -47.9800   -7.5030 N.ar  461  HIS461     -0.2268
     49  CD2      -21.5520  -48.8780   -8.1870 C.ar  461  HIS461      0.1154
     50  CE1      -23.3690  -47.8100   -8.8160 C.ar  461  HIS461      0.1986
     51  NE2      -22.2390  -48.3460   -9.2550 N.ar  461  HIS461     -0.2212
     52  N        -22.6800  -45.6370   -4.0750 N.am  462  PRO462     -0.2718
     53  CA       -23.2540  -44.4250   -4.6350 C.3   462  PRO462      0.1535
     54  C        -22.2880  -43.2360   -4.5110 C.2   462  PRO462      0.2599
     55  O        -22.6940  -42.1660   -4.0510 O.2   462  PRO462     -0.2715
     56  CB       -24.5080  -44.2140   -3.7740 C.3   462  PRO462      0.0310
     57  CG       -24.3350  -45.1850   -2.5710 C.3   462  PRO462      0.0237
     58  CD       -22.9280  -45.6920   -2.6320 C.3   462  PRO462      0.0939
     59  N        -21.0240  -43.4220   -4.9100 N.am  463  THR463     -0.1951
     60  CA       -19.9990  -42.3730   -4.7420 C.3   463  THR463      0.1897
     61  C        -19.1620  -42.0540   -5.9690 C.2   463  THR463      0.2313
     62  O        -19.3430  -42.6410   -7.0360 O.2   463  THR463     -0.2863
     63  CB       -19.0100  -42.6870   -3.6080 C.3   463  THR463      0.1794
     64  OG1      -18.3800  -43.9490   -3.8570 O.3   463  THR463     -0.2208
     65  CG2      -19.7140  -42.6850   -2.2590 C.3   463  THR463      0.0378
     66  N        -15.4370  -44.4120   -5.8350 N.3   466  GLU466     -0.1231
     67  CA       -15.5730  -45.7970   -6.2810 C.3   466  GLU466      0.1699
     68  C        -15.2020  -45.9830   -7.7560 C.2   466  GLU466      0.2592
     69  O        -14.9570  -47.1110   -8.1980 O.2   466  GLU466     -0.2718
     70  CB       -16.9870  -46.3270   -6.0110 C.3   466  GLU466      0.0402
     71  CG       -18.0920  -45.5960   -6.7710 C.3   466  GLU466      0.1161
     72  CD       -19.2120  -46.5150   -7.2200 C.2   466  GLU466      0.3649
     73  OE1      -18.9420  -47.7040   -7.4990 O.co2 466  GLU466     -0.2457
     74  OE2      -20.3630  -46.0360   -7.3150 O.co2 466  GLU466     -0.2457
     75  N        -15.1500  -44.8790   -8.5050 N.am  467  GLU467     -0.1979
     76  CA       -14.8180  -44.9300   -9.9280 C.3   467  GLU467      0.1602
     77  C        -13.3110  -45.1170  -10.1880 C.2   467  GLU467      0.2287
     78  O        -12.9090  -45.3490  -11.3310 O.2   467  GLU467     -0.2864
     79  CB       -15.3860  -43.7190  -10.6790 C.3   467  GLU467      0.0415
     80  CG       -15.7240  -43.9870  -12.1620 C.3   467  GLU467      0.1163
     81  CD       -17.1070  -44.6150  -12.3860 C.2   467  GLU467      0.3649
     82  OE1      -17.9960  -44.4820  -11.5100 O.co2 467  GLU467     -0.2457
     83  OE2      -17.3110  -45.2330  -13.4590 O.co2 467  GLU467     -0.2457
     84  N        -12.9040  -48.7450  -11.2390 N.3   470  SER470     -0.1217
     85  CA       -13.5260  -49.1070  -12.5140 C.3   470  SER470      0.1889
     86  C        -12.6060  -48.9030  -13.7230 C.2   470  SER470      0.2288
     87  O        -13.0650  -48.9630  -14.8690 O.2   470  SER470     -0.2866
     88  CB       -14.8540  -48.3560  -12.7100 C.3   470  SER470      0.2089
     89  OG       -15.9300  -49.0360  -12.0800 O.3   470  SER470     -0.2183
@<TRIPOS>BOND
     1    17    16    1
     2    16    18    1
     3    16    13    1
     4     1     2    1
     5     2     3    1
     6     2     5    1
     7    40    39    2
     8    12     3   am
     9    12    13    1
    10     3     4    2
    11    87    86    2
    12     5     6    1
    13    13    14    1
    14    39    38    1
    15    39    41   am
    16    37    36    2
    17    38    35    1
    18    35    36    1
    19    35    34    1
    20    86    85    1
    21    15    14    2
    22    14    19   am
    23    83    81   ar
    24     6     7   ar
    25     6     8   ar
    26     7     9   ar
    27    88    85    1
    28    88    89    1
    29    85    84    1
    30    81    80    1
    31    81    82   ar
    32     8    10   ar
    33    19    25    1
    34    19    20    1
    35    80    79    1
    36     9    11   ar
    37    25    24    1
    38    22    21    2
    39    78    77    2
    40    21    20    1
    41    21    26   am
    42    20    23    1
    43    10    11   ar
    44    29    28    2
    45    27    26    1
    46    27    28    1
    47    27    30    1
    48    79    76    1
    49    24    23    1
    50    30    31    1
    51    77    76    1
    52    76    75    1
    53    51    50   ar
    54    51    49   ar
    55    31    32    1
    56    31    33    1
    57    50    48   ar
    58    75    68   am
    59    69    68    2
    60    49    47   ar
    61    68    67    1
    62    48    47   ar
    63    73    72   ar
    64    74    72   ar
    65    72    71    1
    66    47    46    1
    67    62    61    2
    68    71    70    1
    69    67    70    1
    70    67    66    1
    71    61    60    1
    72    46    43    1
    73    45    44    2
    74    59    60    1
    75    59    54   am
    76    43    44    1
    77    43    42    1
    78    60    63    1
    79    44    52   am
    80    53    54    1
    81    53    52    1
    82    53    56    1
    83    54    55    2
    84    52    58    1
    85    64    63    1
    86    56    57    1
    87    63    65    1
    88    58    57    1
