@<TRIPOS>MOLECULE
tmp/2yayA00.pdb
 189 177 0 0 0
SMALL
GASTEIGER

@<TRIPOS>ATOM
      1  N         -4.8000   28.6780    5.8360 N.3    14  GLN14      -0.1245
      2  CA        -4.7500   28.9930    4.4140 C.3    14  GLN14       0.1566
      3  C         -3.8880   27.9660    3.6700 C.2    14  GLN14       0.2260
      4  O         -4.2400   27.5260    2.5680 O.2    14  GLN14      -0.2867
      5  CB        -4.2290   30.4050    4.1810 C.3    14  GLN14       0.0367
      6  CG        -4.3020   30.8070    2.7090 C.3    14  GLN14       0.0905
      7  CD        -5.7250   30.9460    2.2380 C.2    14  GLN14       0.2608
      8  OE1       -6.5410   31.5620    2.9250 O.2    14  GLN14      -0.2717
      9  NE2       -6.0570   30.3340    1.0820 N.am   14  GLN14      -0.0878
     10  N         -5.9570   24.7050    3.2580 N.3    17  LEU17      -0.1231
     11  CA        -6.9600   24.8420    2.1960 C.3    17  LEU17       0.1693
     12  C         -6.2670   24.7950    0.8430 C.2    17  LEU17       0.2592
     13  O         -6.7200   24.1190   -0.0620 O.2    17  LEU17      -0.2718
     14  CB        -7.7730   26.1320    2.3350 C.3    17  LEU17       0.0284
     15  CG        -8.6520   26.6130    1.1710 C.3    17  LEU17       0.0019
     16  CD1       -9.6620   25.5470    0.6480 C.3    17  LEU17       0.0001
     17  CD2       -9.3720   27.8880    1.6010 C.3    17  LEU17       0.0001
     18  N         -5.1490   25.4990    0.7160 N.am   18  ASN18      -0.1974
     19  CA        -4.4450   25.5480   -0.5800 C.3    18  ASN18       0.1688
     20  C         -3.9250   24.1760   -0.9730 C.2    18  ASN18       0.2292
     21  O         -3.9170   23.8370   -2.1690 O.2    18  ASN18      -0.2864
     22  CB        -3.2910   26.5510   -0.5590 C.3    18  ASN18       0.1181
     23  CG        -3.7450   28.0110   -0.5680 C.2    18  ASN18       0.2629
     24  OD1       -4.9280   28.3270   -0.6480 O.2    18  ASN18      -0.2716
     25  ND2       -2.7660   28.9290   -0.4800 N.am   18  ASN18      -0.0877
     26  N         -6.5270   21.8760   -2.4080 N.3    21  ILE21      -0.1245
     27  CA        -6.7130   22.1990   -3.8150 C.3    21  ILE21       0.1561
     28  C         -5.5800   21.5800   -4.6780 C.2    21  ILE21       0.2260
     29  O         -5.8280   20.9300   -5.7110 O.2    21  ILE21      -0.2867
     30  CB        -6.8170   23.7300   -3.9700 C.3    21  ILE21       0.0252
     31  CG1       -8.1300   24.2390   -3.3590 C.3    21  ILE21       0.0019
     32  CG2       -6.7070   24.1420   -5.4340 C.3    21  ILE21       0.0019
     33  CD1       -8.1980   25.7890   -3.2200 C.3    21  ILE21       0.0001
     34  N          1.8800   27.0420   -7.9640 N.3    29  ARG29      -0.1245
     35  CA         1.2710   28.3620   -8.0840 C.3    29  ARG29       0.1563
     36  C          2.3730   29.3590   -8.3360 C.2    29  ARG29       0.2260
     37  O          3.5020   28.9990   -8.2180 O.2    29  ARG29      -0.2867
     38  CB         0.4610   28.7430   -6.8490 C.3    29  ARG29       0.0307
     39  CG        -0.6870   27.8170   -6.6080 C.3    29  ARG29       0.0489
     40  CD        -1.9700   28.2450   -7.3520 C.3    29  ARG29       0.2205
     41  NE        -1.8390   28.2070   -8.7890 N.pl3  29  ARG29      -0.0865
     42  CZ        -2.0790   27.1750   -9.5950 C.cat  29  ARG29       0.5346
     43  NH1       -2.4620   26.0000   -9.1300 N.pl3  29  ARG29       0.1354
     44  NH2       -1.8900   27.3310  -10.9090 N.pl3  29  ARG29       0.1354
     45  N         -1.6660   34.7180   -7.6080 N.3    34  TRP34      -0.1241
     46  CA        -2.3360   35.2810   -6.4410 C.3    34  TRP34       0.1605
     47  C         -2.6910   36.7410   -6.7220 C.2    34  TRP34       0.2264
     48  O         -3.7160   37.2300   -6.2590 O.2    34  TRP34      -0.2867
     49  CB        -1.4720   35.1590   -5.1970 C.3    34  TRP34       0.0550
     50  CG        -1.0980   33.7680   -4.9070 C.ar   34  TRP34       0.0003
     51  CD1        0.1520   33.2300   -4.9300 C.ar   34  TRP34       0.0946
     52  CD2       -1.9840   32.7120   -4.5450 C.ar   34  TRP34       0.0152
     53  NE1        0.0880   31.8940   -4.6460 N.ar   34  TRP34      -0.2442
     54  CE2       -1.2110   31.5560   -4.3880 C.ar   34  TRP34       0.0810
     55  CE3       -3.3730   32.6270   -4.3660 C.ar   34  TRP34       0.0012
     56  CZ2       -1.7640   30.3340   -4.0020 C.ar   34  TRP34       0.0191
     57  CZ3       -3.9240   31.4000   -3.9900 C.ar   34  TRP34       0.0001
     58  CH2       -3.1320   30.2800   -3.8440 C.ar   34  TRP34       0.0015
     59  N        -11.1310   39.3260   -7.4230 N.3    41  GLU41      -0.1245
     60  CA       -11.9610   39.5690   -6.2380 C.3    41  GLU41       0.1567
     61  C        -12.2500   41.0120   -5.9380 C.2    41  GLU41       0.2260
     62  O        -13.2850   41.3240   -5.3490 O.2    41  GLU41      -0.2867
     63  CB       -11.3670   39.0000   -4.9180 C.3    41  GLU41       0.0388
     64  CG       -11.4400   37.5460   -4.6580 C.3    41  GLU41       0.1160
     65  CD       -12.7140   36.8490   -5.0600 C.2    41  GLU41       0.3649
     66  OE1      -13.8300   37.0380   -4.4900 O.co2  41  GLU41      -0.2457
     67  OE2      -12.5510   35.9620   -5.8950 O.co2  41  GLU41      -0.2457
     68  N        -15.2540   42.0970   -7.7320 N.3    44  GLU44      -0.1245
     69  CA       -16.4600   41.6200   -7.0600 C.3    44  GLU44       0.1567
     70  C        -16.8050   42.4890   -5.8620 C.2    44  GLU44       0.2260
     71  O        -17.9760   42.7720   -5.5980 O.2    44  GLU44      -0.2867
     72  CB       -16.3030   40.1670   -6.5660 C.3    44  GLU44       0.0388
     73  CG       -16.2630   39.1820   -7.6610 C.3    44  GLU44       0.1160
     74  CD       -15.7630   37.8260   -7.2170 C.2    44  GLU44       0.3649
     75  OE1      -16.2310   37.3220   -6.1950 O.co2  44  GLU44      -0.2457
     76  OE2      -14.9280   37.2510   -7.9150 O.co2  44  GLU44      -0.2457
     77  N        -16.4480   39.5610    0.3400 N.3    69  GLU69      -0.1245
     78  CA       -15.4730   39.8270   -0.6910 C.3    69  GLU69       0.1567
     79  C        -14.1560   40.2390   -0.0250 C.2    69  GLU69       0.2260
     80  O        -13.0840   39.9200   -0.5040 O.2    69  GLU69      -0.2867
     81  CB       -15.9440   40.9370   -1.6200 C.3    69  GLU69       0.0388
     82  CG       -17.3120   40.7440   -2.2490 C.3    69  GLU69       0.1160
     83  CD       -17.4700   39.5290   -3.1420 C.2    69  GLU69       0.3649
     84  OE1      -16.5830   38.6220   -3.2560 O.co2  69  GLU69      -0.2457
     85  OE2      -18.5600   39.4830   -3.7300 O.co2  69  GLU69      -0.2457
     86  N        -12.5060   37.0390    0.9810 N.3    72  ASP72      -0.1239
     87  CA       -11.9430   36.3510   -0.1840 C.3    72  ASP72       0.1674
     88  C        -10.5660   36.9500   -0.5600 C.2    72  ASP72       0.2266
     89  O         -9.5880   36.2120   -0.8000 O.2    72  ASP72      -0.2867
     90  CB       -12.9090   36.4270   -1.3920 C.3    72  ASP72       0.1410
     91  CG       -14.1710   35.6510   -1.1770 C.2    72  ASP72       0.3668
     92  OD1      -14.1980   34.7040   -0.3510 O.co2  72  ASP72      -0.2456
     93  OD2      -15.1740   35.9950   -1.8330 O.co2  72  ASP72      -0.2456
     94  N         -7.9680   35.7160    1.8980 N.3    75  HIS75      -0.1226
     95  CA        -7.4870   34.3610    1.5960 C.3    75  HIS75       0.1752
     96  C         -6.3630   34.4290    0.5450 C.2    75  HIS75       0.2596
     97  O         -5.3310   33.7840    0.7060 O.2    75  HIS75      -0.2718
     98  CB        -8.5520   33.4980    0.9700 C.3    75  HIS75       0.0759
     99  CG        -9.5210   32.8860    1.9200 C.ar   75  HIS75       0.0818
    100  ND1      -10.5600   33.5970    2.4780 N.ar   75  HIS75      -0.2268
    101  CD2       -9.6980   31.5990    2.2900 C.ar   75  HIS75       0.1154
    102  CE1      -11.2950   32.7770    3.2110 C.ar   75  HIS75       0.1986
    103  NE2      -10.8090   31.5560    3.0910 N.ar   75  HIS75      -0.2212
    104  N         -6.5830   35.1930   -0.5370 N.am   76  PHE76      -0.1976
    105  CA        -5.6050   35.2420   -1.6280 C.3    76  PHE76       0.1639
    106  C         -4.3290   36.0120   -1.2500 C.2    76  PHE76       0.2290
    107  O         -3.2490   35.7200   -1.7540 O.2    76  PHE76      -0.2864
    108  CB        -6.2300   35.8600   -2.8780 C.3    76  PHE76       0.0560
    109  CG        -7.2670   34.9960   -3.5410 C.ar   76  PHE76      -0.0200
    110  CD1       -6.9590   33.7190   -3.9650 C.ar   76  PHE76      -0.0042
    111  CD2       -8.5430   35.4510   -3.7450 C.ar   76  PHE76      -0.0042
    112  CE1       -7.8700   32.9400   -4.5710 C.ar   76  PHE76      -0.0003
    113  CE2       -9.4840   34.6580   -4.3790 C.ar   76  PHE76      -0.0003
    114  CZ        -9.1550   33.3950   -4.7860 C.ar   76  PHE76      -0.0000
    115  N        -15.8100   31.4650    5.8000 N.3   172  LYS172     -0.1245
    116  CA       -15.5990   31.2870    4.3470 C.3   172  LYS172      0.1561
    117  C        -14.5350   30.2280    4.0800 C.2   172  LYS172      0.2260
    118  O        -14.6580   29.4210    3.1450 O.2   172  LYS172     -0.2867
    119  CB       -15.2320   32.6090    3.6780 C.3   172  LYS172      0.0271
    120  CG       -15.0570   32.5160    2.1600 C.3   172  LYS172      0.0035
    121  CD       -16.2480   31.8720    1.4530 C.3   172  LYS172      0.0206
    122  CE       -16.1270   31.9160   -0.0830 C.3   172  LYS172      0.1093
    123  NZ       -16.4190   33.2990   -0.6420 N.3   172  LYS172     -0.1314
    124  N        -15.0580   27.2260    1.6660 N.3   176  ASN176     -0.1240
    125  CA       -14.1330   26.8710    0.5840 C.3   176  ASN176      0.1653
    126  C        -13.7760   25.4190    0.6090 C.2   176  ASN176      0.2266
    127  O        -13.6750   24.8010   -0.4330 O.2   176  ASN176     -0.2867
    128  CB       -12.8630   27.7060    0.6600 C.3   176  ASN176      0.1155
    129  CG       -13.0940   29.1390    0.1930 C.2   176  ASN176      0.2627
    130  OD1      -13.8750   29.3750   -0.7240 O.2   176  ASN176     -0.2716
    131  ND2      -12.4040   30.0900    0.8080 N.am  176  ASN176     -0.0877
    132  N        -16.8270   23.4470   -0.6830 N.3   179  ARG179     -0.1231
    133  CA       -16.9120   23.4490   -2.1410 C.3   179  ARG179      0.1694
    134  C        -15.9460   22.4170   -2.7750 C.2   179  ARG179      0.2591
    135  O        -16.3310   21.6740   -3.6900 O.2   179  ARG179     -0.2718
    136  CB       -16.6050   24.8470   -2.6700 C.3   179  ARG179      0.0321
    137  CG       -17.6430   25.9160   -2.3670 C.3   179  ARG179      0.0489
    138  CD       -17.0880   27.2890   -2.7170 C.3   179  ARG179      0.2205
    139  NE       -18.0840   28.3620   -2.6830 N.pl3 179  ARG179     -0.0865
    140  CZ       -17.7800   29.6500   -2.8130 C.cat 179  ARG179      0.5346
    141  NH1      -16.5140   30.0300   -2.9890 N.pl3 179  ARG179      0.1354
    142  NH2      -18.7370   30.5660   -2.7890 N.pl3 179  ARG179      0.1354
    143  N        -14.7130   22.3360   -2.2960 N.am  180  GLN180     -0.1979
    144  CA       -13.7750   21.3240   -2.8340 C.3   180  GLN180      0.1601
    145  C        -14.2190   19.8710   -2.6010 C.2   180  GLN180      0.2287
    146  O        -13.9980   18.9930   -3.4380 O.2   180  GLN180     -0.2864
    147  CB       -12.3670   21.5310   -2.2820 C.3   180  GLN180      0.0394
    148  CG       -11.7410   22.8720   -2.6650 C.3   180  GLN180      0.0908
    149  CD       -11.5270   22.9690   -4.1490 C.2   180  GLN180      0.2608
    150  OE1      -11.0850   22.0010   -4.7560 O.2   180  GLN180     -0.2717
    151  NE2      -11.8920   24.1200   -4.7620 N.am  180  GLN180     -0.0878
    152  N        -16.6090   21.3230   -6.7430 N.3   184  TYR184     -0.1241
    153  CA       -16.2090   22.6260   -7.3070 C.3   184  TYR184      0.1605
    154  C        -15.2550   22.4740   -8.5130 C.2   184  TYR184      0.2264
    155  O        -15.4320   23.1170   -9.5400 O.2   184  TYR184     -0.2867
    156  CB       -15.5410   23.5020   -6.2330 C.3   184  TYR184      0.0534
    157  CG       -15.8970   24.9620   -6.3420 C.ar  184  TYR184     -0.0201
    158  CD1      -17.2170   25.3710   -6.3450 C.ar  184  TYR184     -0.0009
    159  CD2      -14.9110   25.9300   -6.4180 C.ar  184  TYR184     -0.0009
    160  CE1      -17.5580   26.7250   -6.4330 C.ar  184  TYR184      0.0417
    161  CE2      -15.2320   27.2850   -6.5130 C.ar  184  TYR184      0.0417
    162  CZ       -16.5550   27.6790   -6.5030 C.ar  184  TYR184      0.1957
    163  OH       -16.8760   29.0320   -6.6130 O.3   184  TYR184     -0.2866
    164  N        -23.6360   26.2260   -6.5820 N.3   191  LYS191     -0.1245
    165  CA       -23.2780   27.4130   -5.7910 C.3   191  LYS191      0.1561
    166  C        -24.4880   28.2730   -5.4670 C.2   191  LYS191      0.2260
    167  O        -24.6200   28.7470   -4.3430 O.2   191  LYS191     -0.2867
    168  CB       -22.2420   28.2540   -6.5320 C.3   191  LYS191      0.0271
    169  CG       -21.7710   29.4970   -5.7780 C.3   191  LYS191      0.0035
    170  CD       -21.1280   30.4930   -6.7290 C.3   191  LYS191      0.0206
    171  CE       -20.5470   31.6970   -6.0020 C.3   191  LYS191      0.1093
    172  NZ       -21.4830   32.3010   -5.0170 N.3   191  LYS191     -0.1314
    173  N        -27.5560   32.1090   -2.7090 N.3   197  GLU197     -0.1245
    174  CA       -26.1060   31.9970   -2.8360 C.3   197  GLU197      0.1567
    175  C        -25.4660   31.3630   -1.5730 C.2   197  GLU197      0.2260
    176  O        -25.8000   31.7420   -0.4520 O.2   197  GLU197     -0.2867
    177  CB       -25.5360   33.3870   -3.1020 C.3   197  GLU197      0.0388
    178  CG       -24.0500   33.3840   -3.3670 C.3   197  GLU197      0.1160
    179  CD       -23.3960   34.6970   -3.0750 C.2   197  GLU197      0.3649
    180  OE1      -23.9600   35.5200   -2.3330 O.co2 197  GLU197     -0.2457
    181  OE2      -22.2880   34.8950   -3.5760 O.co2 197  GLU197     -0.2457
    182  N        -22.5030   31.7200   -0.0660 N.3   199  ASN199     -0.1240
    183  CA       -21.9530   32.7690    0.7820 C.3   199  ASN199      0.1653
    184  C        -23.0080   33.3860    1.6960 C.2   199  ASN199      0.2266
    185  O        -22.6800   33.7670    2.8030 O.2   199  ASN199     -0.2867
    186  CB       -21.3600   33.8920   -0.0810 C.3   199  ASN199      0.1155
    187  CG       -20.0820   33.4480   -0.8170 C.2   199  ASN199      0.2627
    188  OD1      -19.1980   32.9050   -0.2000 O.2   199  ASN199     -0.2716
    189  ND2      -19.9980   33.7000   -2.1200 N.am  199  ASN199     -0.0877
@<TRIPOS>BOND
     1    44    42    1
     2    42    43    1
     3    42    41    2
     4   155   154    2
     5    41    40    1
     6   154   153    1
     7    36    37    2
     8    36    35    1
     9    35    34    1
    10    35    38    1
    11    76    74   ar
    12    68    69    1
    13    73    74    1
    14    73    72    1
    15    45    46    1
    16    59    60    1
    17    40    39    1
    18   153   152    1
    19   153   156    1
    20    74    75   ar
    21    69    72    1
    22    69    70    1
    23    38    39    1
    24   170   171    1
    25   170   169    1
    26    47    46    1
    27    47    48    2
    28   163   162    1
    29   164   165    1
    30   168   165    1
    31   168   169    1
    32   161   162   ar
    33   161   159   ar
    34   162   160   ar
    35    46    49    1
    36   160   158   ar
    37   159   157   ar
    38   158   157   ar
    39   157   156    1
    40    60    61    1
    41    60    63    1
    42   171   172    1
    43    61    62    2
    44    67    65   ar
    45    70    71    2
    46   165   166    1
    47    29    28    2
    48   166   167    2
    49    32    30    1
    50    49    50    1
    51    65    64    1
    52    65    66   ar
    53    51    50   ar
    54    51    53   ar
    55    63    64    1
    56    50    52   ar
    57   114   112   ar
    58   114   113   ar
    59   151   149   am
    60   150   149    2
    61    28    27    1
    62    53    54   ar
    63   112   110   ar
    64    52    54   ar
    65    52    55   ar
    66    54    56   ar
    67   113   111   ar
    68    55    57   ar
    69   149   148    1
    70    56    58   ar
    71    57    58   ar
    72    30    27    1
    73    30    31    1
    74   110   109   ar
    75    27    26    1
    76   111   109   ar
    77    85    83   ar
    78   135   134    2
    79   181   179   ar
    80   109   108    1
    81   146   145    2
    82   178   177    1
    83   178   179    1
    84    31    33    1
    85    84    83   ar
    86    83    82    1
    87   177   174    1
    88   179   180   ar
    89   141   140    1
    90   108   105    1
    91   174   173    1
    92   174   175    1
    93   144   145    1
    94   144   143    1
    95   144   147    1
    96   140   142    1
    97   140   139    2
    98   134   143   am
    99   134   133    1
   100   138   139    1
   101   138   137    1
   102   136   137    1
   103   136   133    1
   104   148   147    1
   105    82    81    1
   106    21    20    2
   107   133   132    1
   108   189   187   am
   109    93    91   ar
   110   107   106    2
   111   105   106    1
   112   105   104    1
   113    81    78    1
   114   175   176    2
   115    90    91    1
   116    90    87    1
   117    91    92   ar
   118    20    19    1
   119   187   188    2
   120   187   186    1
   121    89    88    2
   122   130   129    2
   123    78    79    1
   124    78    77    1
   125    24    23    2
   126   123   122    1
   127    19    22    1
   128    19    18    1
   129    23    22    1
   130    23    25   am
   131    88    87    1
   132   104    96   am
   133    80    79    2
   134   127   126    2
   135    87    86    1
   136   122   121    1
   137   186   183    1
   138   182   183    1
   139    13    12    2
   140   129   128    1
   141   129   131   am
   142    96    97    2
   143    96    95    1
   144   125   126    1
   145   125   128    1
   146   125   124    1
   147    16    15    1
   148    18    12   am
   149   183   184    1
   150    12    11    1
   151    98    95    1
   152    98    99    1
   153     9     7   am
   154    15    17    1
   155    15    14    1
   156   121   120    1
   157    95    94    1
   158   184   185    2
   159    99   101   ar
   160    99   100   ar
   161   120   119    1
   162    11    14    1
   163    11    10    1
   164     7     6    1
   165     7     8    2
   166   101   103   ar
   167   100   102   ar
   168     4     3    2
   169     6     5    1
   170   103   102   ar
   171   118   117    2
   172     3     2    1
   173   119   116    1
   174   117   116    1
   175     5     2    1
   176   116   115    1
   177     2     1    1
