@<TRIPOS>MOLECULE
tmp/2yazC00.pdb
 159 149 0 0 0
SMALL
GASTEIGER

@<TRIPOS>ATOM
      1  N        -13.2360   33.6060  -51.4660 N.3    14  GLN14      -0.1245
      2  CA       -14.6720   33.4500  -51.7060 C.3    14  GLN14       0.1566
      3  C        -14.8760   32.6170  -52.9620 C.2    14  GLN14       0.2260
      4  O        -15.6760   31.6770  -52.9770 O.2    14  GLN14      -0.2867
      5  CB       -15.3520   34.8130  -51.8470 C.3    14  GLN14       0.0367
      6  CG       -16.8860   34.7510  -51.9380 C.3    14  GLN14       0.0905
      7  CD       -17.5280   34.1070  -50.7130 C.2    14  GLN14       0.2608
      8  OE1      -17.3210   34.5620  -49.5830 O.2    14  GLN14      -0.2717
      9  NE2      -18.3020   33.0380  -50.9300 N.am   14  GLN14      -0.0878
     10  N        -14.2190   28.9690  -52.3200 N.3    17  LEU17      -0.1231
     11  CA       -15.3610   28.3920  -51.6310 C.3    17  LEU17       0.1693
     12  C        -16.5270   28.1780  -52.5880 C.2    17  LEU17       0.2592
     13  O        -17.1560   27.1130  -52.5750 O.2    17  LEU17      -0.2718
     14  CB       -15.7870   29.2660  -50.4520 C.3    17  LEU17       0.0284
     15  CG       -17.0570   28.8390  -49.7060 C.3    17  LEU17       0.0019
     16  CD1      -16.8930   27.4610  -49.0800 C.3    17  LEU17       0.0001
     17  CD2      -17.4520   29.8740  -48.6600 C.3    17  LEU17       0.0001
     18  N        -16.8080   29.1770  -53.4250 N.am   18  ASN18      -0.1974
     19  CA       -17.9130   29.0570  -54.3700 C.3    18  ASN18       0.1688
     20  C        -17.6760   27.8690  -55.3150 C.2    18  ASN18       0.2292
     21  O        -18.6000   27.1080  -55.6120 O.2    18  ASN18      -0.2864
     22  CB       -18.1480   30.3640  -55.1430 C.3    18  ASN18       0.1181
     23  CG       -18.8110   31.4720  -54.2950 C.2    18  ASN18       0.2629
     24  OD1      -19.1250   31.2950  -53.1070 O.2    18  ASN18      -0.2716
     25  ND2      -19.0170   32.6340  -54.9200 N.am   18  ASN18      -0.0877
     26  N        -18.5690   24.4930  -53.8560 N.3    21  ILE21      -0.1245
     27  CA       -20.0090   24.2550  -53.9230 C.3    21  ILE21       0.1561
     28  C        -20.4660   23.8220  -55.3290 C.2    21  ILE21       0.2260
     29  O        -21.2000   22.8470  -55.4700 O.2    21  ILE21      -0.2867
     30  CB       -20.7860   25.4960  -53.4080 C.3    21  ILE21       0.0252
     31  CG1      -20.7700   25.5040  -51.8820 C.3    21  ILE21       0.0019
     32  CG2      -22.2270   25.5210  -53.9330 C.3    21  ILE21       0.0019
     33  CD1      -20.8680   26.8840  -51.2790 C.3    21  ILE21       0.0001
     34  N        -24.7050   30.3130  -61.2650 N.3    29  ARG29      -0.1245
     35  CA       -25.3410   31.3550  -60.4730 C.3    29  ARG29       0.1563
     36  C        -25.7630   32.5640  -61.3120 C.2    29  ARG29       0.2260
     37  O        -25.1630   32.8500  -62.3450 O.2    29  ARG29      -0.2867
     38  CB       -24.3750   31.8290  -59.3990 C.3    29  ARG29       0.0307
     39  CG       -23.9430   30.7590  -58.4110 C.3    29  ARG29       0.0489
     40  CD       -24.9450   30.6020  -57.2750 C.3    29  ARG29       0.2205
     41  NE       -26.1580   29.9030  -57.6980 N.pl3  29  ARG29      -0.0865
     42  CZ       -26.2460   28.5910  -57.8820 C.cat  29  ARG29       0.5346
     43  NH1      -25.1810   27.8130  -57.6990 N.pl3  29  ARG29       0.1354
     44  NH2      -27.4030   28.0610  -58.2610 N.pl3  29  ARG29       0.1354
     45  N        -27.5510   36.1820  -55.7720 N.3    34  TRP34      -0.1241
     46  CA       -26.7490   36.7910  -54.7090 C.3    34  TRP34       0.1605
     47  C        -27.5650   37.8740  -54.0230 C.2    34  TRP34       0.2264
     48  O        -27.5070   38.0170  -52.7970 O.2    34  TRP34      -0.2867
     49  CB       -25.4220   37.3520  -55.2520 C.3    34  TRP34       0.0550
     50  CG       -24.5680   36.2940  -55.9550 C.ar   34  TRP34       0.0003
     51  CD1      -24.2590   36.2380  -57.2790 C.ar   34  TRP34       0.0946
     52  CD2      -23.9590   35.1420  -55.3550 C.ar   34  TRP34       0.0152
     53  NE1      -23.4950   35.1380  -57.5440 N.ar   34  TRP34      -0.2442
     54  CE2      -23.2880   34.4480  -56.3780 C.ar   34  TRP34       0.0810
     55  CE3      -23.8980   34.6450  -54.0420 C.ar   34  TRP34       0.0012
     56  CZ2      -22.5660   33.2740  -56.1380 C.ar   34  TRP34       0.0191
     57  CZ3      -23.1920   33.4720  -53.8010 C.ar   34  TRP34       0.0001
     58  CH2      -22.5340   32.7990  -54.8440 C.ar   34  TRP34       0.0015
     59  N        -30.5420   37.0800  -45.7290 N.3    41  GLU41      -0.1245
     60  CA       -29.6840   37.2570  -44.5470 C.3    41  GLU41       0.1567
     61  C        -29.9290   38.5880  -43.8630 C.2    41  GLU41       0.2260
     62  O        -29.7570   38.6780  -42.6510 O.2    41  GLU41      -0.2867
     63  CB       -28.1650   37.1480  -44.8500 C.3    41  GLU41       0.0388
     64  CG       -27.6110   35.8050  -45.2620 C.3    41  GLU41       0.1160
     65  CD       -28.1470   34.6240  -44.4770 C.2    41  GLU41       0.3649
     66  OE1      -27.8150   34.4850  -43.2880 O.co2  41  GLU41      -0.2457
     67  OE2      -28.8730   33.8010  -45.0800 O.co2  41  GLU41      -0.2457
     68  N        -22.0400   36.5580  -43.2480 N.3    72  ASP72      -0.1239
     69  CA       -22.7440   35.8750  -44.3320 C.3    72  ASP72       0.1674
     70  C        -23.0620   36.8280  -45.4670 C.2    72  ASP72       0.2266
     71  O        -22.7720   36.5380  -46.6270 O.2    72  ASP72      -0.2867
     72  CB       -24.0130   35.2050  -43.8450 C.3    72  ASP72       0.1410
     73  CG       -23.7470   34.1550  -42.8000 C.2    72  ASP72       0.3668
     74  OD1      -22.6750   33.4940  -42.8150 O.co2  72  ASP72      -0.2456
     75  OD2      -24.6330   34.0040  -41.9380 O.co2  72  ASP72      -0.2456
     76  N        -19.9850   37.3230  -47.4690 N.3    75  HIS75      -0.1226
     77  CA       -19.7590   36.2620  -48.4800 C.3    75  HIS75       0.1752
     78  C        -20.5860   36.5020  -49.7400 C.2    75  HIS75       0.2596
     79  O        -20.0970   36.3250  -50.8710 O.2    75  HIS75      -0.2718
     80  CB       -20.1660   34.8720  -47.9690 C.3    75  HIS75       0.0759
     81  CG       -19.2460   34.2650  -46.9480 C.ar   75  HIS75       0.0818
     82  ND1      -19.2010   34.6900  -45.6400 N.ar   75  HIS75      -0.2268
     83  CD2      -18.4070   33.2040  -47.0250 C.ar   75  HIS75       0.1154
     84  CE1      -18.3530   33.9360  -44.9620 C.ar   75  HIS75       0.1986
     85  NE2      -17.8600   33.0260  -45.7800 N.ar   75  HIS75      -0.2212
     86  N        -21.8640   36.8550  -49.5520 N.am   76  PHE76      -0.1976
     87  CA       -22.7660   36.9380  -50.6860 C.3    76  PHE76       0.1639
     88  C        -22.4770   38.1840  -51.4720 C.2    76  PHE76       0.2290
     89  O        -22.5900   38.1880  -52.6950 O.2    76  PHE76      -0.2864
     90  CB       -24.2320   36.9060  -50.2490 C.3    76  PHE76       0.0560
     91  CG       -24.6810   35.5760  -49.7060 C.ar   76  PHE76      -0.0200
     92  CD1      -24.5370   34.4150  -50.4580 C.ar   76  PHE76      -0.0042
     93  CD2      -25.2910   35.4940  -48.4590 C.ar   76  PHE76      -0.0042
     94  CE1      -24.9890   33.1870  -49.9790 C.ar   76  PHE76      -0.0003
     95  CE2      -25.7300   34.2660  -47.9650 C.ar   76  PHE76      -0.0003
     96  CZ       -25.5720   33.1060  -48.7330 C.ar   76  PHE76      -0.0000
     97  N        -19.2980   37.5940  -53.4840 N.3    79  SER79      -0.1217
     98  CA       -19.7600   36.7900  -54.6020 C.3    79  SER79       0.1889
     99  C        -20.4470   37.6530  -55.6540 C.2    79  SER79       0.2288
    100  O        -20.1790   37.5140  -56.8620 O.2    79  SER79      -0.2866
    101  CB       -20.6950   35.6870  -54.1290 C.3    79  SER79       0.2089
    102  OG       -20.0530   34.7810  -53.2490 O.3    79  SER79      -0.2183
    103  N        -15.6920   31.9640  -40.5430 N.3   172  LYS172     -0.1245
    104  CA       -16.9190   31.4370  -41.1110 C.3   172  LYS172      0.1561
    105  C        -16.6660   30.7280  -42.4480 C.2   172  LYS172      0.2260
    106  O        -17.2490   29.6680  -42.7190 O.2   172  LYS172     -0.2867
    107  CB       -17.9820   32.5280  -41.2270 C.3   172  LYS172      0.0271
    108  CG       -19.3380   32.0590  -41.7700 C.3   172  LYS172      0.0035
    109  CD       -19.9370   30.9020  -40.9700 C.3   172  LYS172      0.0206
    110  CE       -21.2630   30.4310  -41.5770 C.3   172  LYS172      0.1093
    111  NZ       -22.3380   31.4160  -41.2440 N.3   172  LYS172     -0.1314
    112  N        -17.7190   27.0620  -43.3260 N.3   176  ASN176     -0.1240
    113  CA       -18.4220   26.7440  -44.5810 C.3   176  ASN176      0.1653
    114  C        -17.7840   25.5720  -45.3500 C.2   176  ASN176      0.2266
    115  O        -18.5000   24.7580  -45.9350 O.2   176  ASN176     -0.2867
    116  CB       -18.5500   27.9760  -45.4850 C.3   176  ASN176      0.1155
    117  CG       -19.5970   28.9920  -44.9830 C.2   176  ASN176      0.2627
    118  OD1      -20.6010   28.6330  -44.3650 O.2   176  ASN176     -0.2716
    119  ND2      -19.3660   30.2670  -45.2790 N.am  176  ASN176     -0.0877
    120  N        -18.5110   22.2220  -43.2990 N.3   179  ARG179     -0.1245
    121  CA       -19.8510   21.8230  -43.6860 C.3   179  ARG179      0.1563
    122  C        -19.8670   21.0890  -45.0160 C.2   179  ARG179      0.2260
    123  O        -20.3400   19.9500  -45.0910 O.2   179  ARG179     -0.2867
    124  CB       -20.7560   23.0510  -43.7890 C.3   179  ARG179      0.0307
    125  CG       -21.0750   23.7260  -42.4750 C.3   179  ARG179      0.0489
    126  CD       -22.1320   24.7870  -42.6870 C.3   179  ARG179      0.2205
    127  NE       -22.5100   25.4430  -41.4330 N.pl3 179  ARG179     -0.0865
    128  CZ       -23.2030   26.5820  -41.3640 C.cat 179  ARG179      0.5346
    129  NH1      -23.5920   27.2010  -42.4740 N.pl3 179  ARG179      0.1354
    130  NH2      -23.5100   27.1070  -40.1850 N.pl3 179  ARG179      0.1354
    131  N        -23.1780   18.7450  -46.2860 N.3   184  TYR184     -0.1241
    132  CA       -24.1810   19.7390  -45.9450 C.3   184  TYR184      0.1605
    133  C        -25.2330   19.7640  -47.0430 C.2   184  TYR184      0.2264
    134  O        -26.3990   20.0610  -46.7750 O.2   184  TYR184     -0.2867
    135  CB       -23.5130   21.1110  -45.8180 C.3   184  TYR184      0.0534
    136  CG       -24.3360   22.2160  -45.1650 C.ar  184  TYR184     -0.0201
    137  CD1      -24.9520   22.0320  -43.9220 C.ar  184  TYR184     -0.0009
    138  CD2      -24.4560   23.4640  -45.7770 C.ar  184  TYR184     -0.0009
    139  CE1      -25.6820   23.0530  -43.3340 C.ar  184  TYR184      0.0417
    140  CE2      -25.1790   24.4900  -45.1940 C.ar  184  TYR184      0.0417
    141  CZ       -25.7890   24.2840  -43.9770 C.ar  184  TYR184      0.1957
    142  OH       -26.5060   25.3190  -43.4100 O.3   184  TYR184     -0.2866
    143  N        -26.4810   21.4410  -38.3100 N.3   191  LYS191     -0.1245
    144  CA       -25.9060   22.6870  -37.7940 C.3   191  LYS191      0.1561
    145  C        -25.9130   22.7910  -36.2640 C.2   191  LYS191      0.2260
    146  O        -25.0030   23.3810  -35.6870 O.2   191  LYS191     -0.2867
    147  CB       -26.6600   23.8660  -38.3920 C.3   191  LYS191      0.0271
    148  CG       -25.7930   24.8310  -39.1460 C.3   191  LYS191      0.0035
    149  CD       -26.6170   25.6220  -40.1580 C.3   191  LYS191      0.0206
    150  CE       -27.5210   26.6490  -39.4880 C.3   191  LYS191      0.1093
    151  NZ       -28.1990   27.5150  -40.4890 N.3   191  LYS191     -0.1314
    152  N        -22.1160   27.9840  -35.6930 N.3   199  ASN199     -0.1240
    153  CA       -21.7130   29.3930  -35.7110 C.3   199  ASN199      0.1653
    154  C        -21.3410   29.9220  -34.3310 C.2   199  ASN199      0.2266
    155  O        -20.3760   30.6600  -34.1860 O.2   199  ASN199     -0.2867
    156  CB       -22.8260   30.2830  -36.2400 C.3   199  ASN199      0.1155
    157  CG       -23.1400   30.0480  -37.7010 C.2   199  ASN199      0.2627
    158  OD1      -22.2720   30.1080  -38.5630 O.2   199  ASN199     -0.2716
    159  ND2      -24.4110   29.8350  -37.9860 N.am  199  ASN199     -0.0877
@<TRIPOS>BOND
     1    37    36    2
     2    36    35    1
     3    34    35    1
     4    35    38    1
     5    38    39    1
     6    39    40    1
     7    44    42    1
     8    42    43    1
     9    42    41    2
    10    41    40    1
    11    53    51   ar
    12    53    54   ar
    13    51    50   ar
    14   100    99    2
    15    54    56   ar
    16    54    52   ar
    17    56    58   ar
    18    50    52   ar
    19    50    49    1
    20    45    46    1
    21    99    98    1
    22    21    20    2
    23    29    28    2
    24    52    55   ar
    25    28    27    1
    26    20    19    1
    27    49    46    1
    28    22    19    1
    29    22    23    1
    30    25    23   am
    31    58    57   ar
    32    46    47    1
    33    98   101    1
    34    98    97    1
    35    19    18    1
    36    23    24    2
    37   101   102    1
    38    55    57   ar
    39    47    48    2
    40    32    30    1
    41    27    26    1
    42    27    30    1
    43    18    12   am
    44    30    31    1
    45     4     3    2
    46     3     2    1
    47    89    88    2
    48    12    13    2
    49    12    11    1
    50    10    11    1
    51     6     5    1
    52     6     7    1
    53    31    33    1
    54     5     2    1
    55     2     1    1
    56    11    14    1
    57    88    87    1
    58     9     7   am
    59    79    78    2
    60     7     8    2
    61    87    90    1
    62    87    86    1
    63    92    94   ar
    64    92    91   ar
    65    14    15    1
    66    90    91    1
    67    94    96   ar
    68    78    86   am
    69    78    77    1
    70    91    93   ar
    71    15    16    1
    72    15    17    1
    73    96    95   ar
    74    77    80    1
    75    77    76    1
    76    93    95   ar
    77    80    81    1
    78   133   134    2
    79   133   132    1
    80    83    81   ar
    81    83    85   ar
    82    81    82   ar
    83    71    70    2
    84   131   132    1
    85   132   135    1
    86   115   114    2
    87   135   136    1
    88    85    84   ar
    89   138   140   ar
    90   138   136   ar
    91    59    60    1
    92    82    84   ar
    93   116   117    1
    94   116   113    1
    95    70    69    1
    96   114   113    1
    97   119   117   am
    98    64    63    1
    99    64    65    1
   100   140   141   ar
   101   136   137   ar
   102   123   122    2
   103    67    65   ar
   104   122   121    1
   105   117   118    2
   106    63    60    1
   107   113   112    1
   108    60    61    1
   109    65    66   ar
   110    69    72    1
   111    69    68    1
   112   141   142    1
   113   141   139   ar
   114   137   139   ar
   115    61    62    2
   116    72    73    1
   117   124   121    1
   118   124   125    1
   119   121   120    1
   120    74    73   ar
   121    73    75   ar
   122   106   105    2
   123   126   125    1
   124   126   127    1
   125   129   128    1
   126   105   104    1
   127   108   107    1
   128   108   109    1
   129   110   111    1
   130   110   109    1
   131   127   128    2
   132   128   130    1
   133   107   104    1
   134   104   103    1
   135   151   150    1
   136   149   150    1
   137   149   148    1
   138   148   147    1
   139   158   157    2
   140   147   144    1
   141   143   144    1
   142   159   157   am
   143   144   145    1
   144   157   156    1
   145   145   146    2
   146   156   153    1
   147   153   152    1
   148   153   154    1
   149   154   155    2
