@<TRIPOS>MOLECULE
tmp/2yb0D00.pdb
 136 129 0 0 0
SMALL
GASTEIGER

@<TRIPOS>ATOM
      1  N        -59.3520   43.8490  -37.6050 N.3    21  GLN21      -0.1245
      2  CA       -57.9420   44.1980  -37.5590 C.3    21  GLN21       0.1566
      3  C        -57.7020   45.2980  -36.5440 C.2    21  GLN21       0.2260
      4  O        -56.7390   45.2340  -35.7680 O.2    21  GLN21      -0.2867
      5  CB       -57.4560   44.6520  -38.9270 C.3    21  GLN21       0.0367
      6  CG       -55.9360   44.8330  -38.9960 C.3    21  GLN21       0.0905
      7  CD       -55.2280   43.5330  -38.7440 C.2    21  GLN21       0.2608
      8  OE1      -55.4280   42.5740  -39.4900 O.2    21  GLN21      -0.2717
      9  NE2      -54.4260   43.4710  -37.6660 N.am   21  GLN21      -0.0878
     10  N        -57.9580   43.7750  -33.0210 N.3    24  LEU24      -0.1231
     11  CA       -56.7650   42.9990  -32.6660 C.3    24  LEU24       0.1693
     12  C        -55.6000   43.9310  -32.3500 C.2    24  LEU24       0.2592
     13  O        -54.9240   43.7500  -31.3560 O.2    24  LEU24      -0.2718
     14  CB       -56.3530   42.0560  -33.7970 C.3    24  LEU24       0.0284
     15  CG       -54.9730   41.3970  -33.6280 C.3    24  LEU24       0.0019
     16  CD1      -54.8270   40.6230  -32.3070 C.3    24  LEU24       0.0001
     17  CD2      -54.7260   40.4930  -34.7970 C.3    24  LEU24       0.0001
     18  N        -55.3710   44.9260  -33.2050 N.am   25  ASN25      -0.1974
     19  CA       -54.3070   45.9270  -32.9540 C.3    25  ASN25       0.1688
     20  C        -54.5160   46.6760  -31.6730 C.2    25  ASN25       0.2292
     21  O        -53.5510   47.0850  -31.0470 O.2    25  ASN25      -0.2864
     22  CB       -54.2370   46.9590  -34.0740 C.3    25  ASN25       0.1181
     23  CG       -53.7080   46.3850  -35.3540 C.2    25  ASN25       0.2629
     24  OD1      -53.3330   45.2270  -35.3970 O.2    25  ASN25      -0.2716
     25  ND2      -53.7330   47.1720  -36.4200 N.am   25  ASN25      -0.0877
     26  N        -53.3850   44.8840  -28.6170 N.3    28  ILE28      -0.1245
     27  CA       -51.9200   44.9980  -28.5370 C.3    28  ILE28       0.1561
     28  C        -51.5140   46.3690  -27.9630 C.2    28  ILE28       0.2260
     29  O        -50.7640   46.4280  -26.9970 O.2    28  ILE28      -0.2867
     30  CB       -51.3110   44.6990  -29.9230 C.3    28  ILE28       0.0252
     31  CG1      -51.5870   43.2270  -30.2750 C.3    28  ILE28       0.0019
     32  CG2      -49.8100   45.0170  -29.9740 C.3    28  ILE28       0.0019
     33  CD1      -51.2510   42.8380  -31.7010 C.3    28  ILE28       0.0001
     34  N        -47.8690   53.2380  -33.4700 N.3    36  ARG36      -0.1245
     35  CA       -47.2470   52.5610  -34.6100 C.3    36  ARG36       0.1563
     36  C        -46.9300   53.5660  -35.7250 C.2    36  ARG36       0.2260
     37  O        -47.5790   54.5920  -35.8470 O.2    36  ARG36      -0.2867
     38  CB       -48.1600   51.4830  -35.1880 C.3    36  ARG36       0.0307
     39  CG       -48.5900   50.3720  -34.2420 C.3    36  ARG36       0.0489
     40  CD       -47.5930   49.2090  -34.1890 C.3    36  ARG36       0.2205
     41  NE       -46.2560   49.6450  -33.8200 N.pl3  36  ARG36      -0.0865
     42  CZ       -45.7470   49.7180  -32.5930 C.cat  36  ARG36       0.5346
     43  NH1      -46.4330   49.3510  -31.5380 N.pl3  36  ARG36       0.1354
     44  NH2      -44.4840   50.1350  -32.4270 N.pl3  36  ARG36       0.1354
     45  N        -45.2560   48.8260  -40.2160 N.3    41  TRP41      -0.1241
     46  CA       -46.0390   47.8710  -41.0180 C.3    41  TRP41       0.1605
     47  C        -45.2490   47.4030  -42.2240 C.2    41  TRP41       0.2264
     48  O        -45.2950   46.2270  -42.5690 O.2    41  TRP41      -0.2867
     49  CB       -47.4110   48.4470  -41.4630 C.3    41  TRP41       0.0550
     50  CG       -48.2370   48.9570  -40.3140 C.ar   41  TRP41       0.0003
     51  CD1      -48.5450   50.2510  -40.0480 C.ar   41  TRP41       0.0946
     52  CD2      -48.8050   48.1820  -39.2480 C.ar   41  TRP41       0.0152
     53  NE1      -49.2850   50.3340  -38.8860 N.ar   41  TRP41      -0.2442
     54  CE2      -49.4560   49.0750  -38.3800 C.ar   41  TRP41       0.0810
     55  CE3      -48.8350   46.8200  -38.9550 C.ar   41  TRP41       0.0012
     56  CZ2      -50.1160   48.6530  -37.2350 C.ar   41  TRP41       0.0191
     57  CZ3      -49.4820   46.4030  -37.8380 C.ar   41  TRP41       0.0001
     58  CH2      -50.1130   47.3170  -36.9720 C.ar   41  TRP41       0.0015
     59  N        -42.1040   39.1150  -42.9760 N.3    48  GLU48      -0.1245
     60  CA       -42.9520   37.9920  -43.2900 C.3    48  GLU48       0.1567
     61  C        -42.7550   37.5560  -44.7310 C.2    48  GLU48       0.2260
     62  O        -42.8790   36.3750  -45.0480 O.2    48  GLU48      -0.2867
     63  CB       -44.4400   38.3190  -43.0380 C.3    48  GLU48       0.0388
     64  CG       -44.8040   38.6590  -41.5960 C.3    48  GLU48       0.1160
     65  CD       -44.5920   37.5280  -40.5930 C.2    48  GLU48       0.3649
     66  OE1      -44.4650   36.3500  -40.9870 O.co2  48  GLU48      -0.2457
     67  OE2      -44.5530   37.8320  -39.3850 O.co2  48  GLU48      -0.2457
     68  N        -50.5820   36.3730  -42.6260 N.3    79  ASP79      -0.1239
     69  CA       -49.8510   37.2690  -41.7210 C.3    79  ASP79       0.1674
     70  C        -49.5660   38.5860  -42.4490 C.2    79  ASP79       0.2266
     71  O        -49.7520   39.6650  -41.9180 O.2    79  ASP79      -0.2867
     72  CB       -48.5630   36.6050  -41.2350 C.3    79  ASP79       0.1410
     73  CG       -48.8190   35.4050  -40.3020 C.2    79  ASP79       0.3668
     74  OD1      -49.8680   35.3650  -39.6180 O.co2  79  ASP79      -0.2456
     75  OD2      -47.9410   34.5080  -40.2390 O.co2  79  ASP79      -0.2456
     76  N        -52.7160   40.6590  -42.6440 N.3    82  HIS82      -0.1226
     77  CA       -52.9000   41.4000  -41.3870 C.3    82  HIS82       0.1752
     78  C        -52.0990   42.7010  -41.3580 C.2    82  HIS82       0.2596
     79  O        -52.6080   43.7440  -40.9280 O.2    82  HIS82      -0.2718
     80  CB       -52.4310   40.6010  -40.1820 C.3    82  HIS82       0.0759
     81  CG       -53.3780   39.5430  -39.7000 C.ar   82  HIS82       0.0818
     82  ND1      -53.5780   38.3530  -40.3710 N.ar   82  HIS82      -0.2268
     83  CD2      -54.1080   39.4620  -38.5590 C.ar   82  HIS82       0.1154
     84  CE1      -54.4220   37.6030  -39.6800 C.ar   82  HIS82       0.1986
     85  NE2      -54.7560   38.2520  -38.5760 N.ar   82  HIS82      -0.2212
     86  N        -50.8170   42.6180  -41.7480 N.am   83  PHE83      -0.1976
     87  CA       -49.9190   43.7640  -41.6330 C.3    83  PHE83       0.1639
     88  C        -50.2500   44.7620  -42.7060 C.2    83  PHE83       0.2290
     89  O        -50.1970   45.9670  -42.4650 O.2    83  PHE83      -0.2864
     90  CB       -48.4430   43.3580  -41.7580 C.3    83  PHE83       0.0560
     91  CG       -47.9100   42.6070  -40.5590 C.ar   83  PHE83      -0.0200
     92  CD1      -47.9290   43.1800  -39.3040 C.ar   83  PHE83      -0.0042
     93  CD2      -47.3730   41.3470  -40.6960 C.ar   83  PHE83      -0.0042
     94  CE1      -47.4580   42.4990  -38.2050 C.ar   83  PHE83      -0.0003
     95  CE2      -46.8760   40.6510  -39.5730 C.ar   83  PHE83      -0.0003
     96  CZ       -46.9190   41.2170  -38.3520 C.ar   83  PHE83      -0.0000
     97  N        -56.6800   32.8620  -38.1180 N.3   179  LYS179     -0.1245
     98  CA       -55.4350   33.3660  -37.5310 C.3   179  LYS179      0.1561
     99  C        -55.6710   34.5760  -36.6410 C.2   179  LYS179      0.2260
    100  O        -55.0730   34.7160  -35.5600 O.2   179  LYS179     -0.2867
    101  CB       -54.4490   33.7420  -38.6140 C.3   179  LYS179      0.0271
    102  CG       -53.1320   34.3080  -38.0750 C.3   179  LYS179      0.0035
    103  CD       -52.4230   33.3440  -37.1340 C.3   179  LYS179      0.0206
    104  CE       -51.0120   33.8290  -36.7640 C.3   179  LYS179      0.1093
    105  NZ       -50.0360   33.5450  -37.8300 N.3   179  LYS179     -0.1314
    106  N        -54.3860   35.0250  -33.0940 N.3   183  ASN183     -0.1240
    107  CA       -53.7080   36.2630  -32.6600 C.3   183  ASN183      0.1653
    108  C        -54.3090   36.8820  -31.4150 C.2   183  ASN183      0.2266
    109  O        -53.5710   37.3180  -30.5280 O.2   183  ASN183     -0.2867
    110  CB       -53.7120   37.2950  -33.7820 C.3   183  ASN183      0.1155
    111  CG       -52.7970   36.9190  -34.8970 C.2   183  ASN183      0.2627
    112  OD1      -51.8120   36.2260  -34.6620 O.2   183  ASN183     -0.2716
    113  ND2      -53.0980   37.3780  -36.1320 N.am  183  ASN183     -0.0877
    114  N        -53.3220   34.5390  -28.5050 N.3   186  ARG186     -0.1245
    115  CA       -51.9460   34.7470  -28.0660 C.3   186  ARG186      0.1563
    116  C        -51.8280   35.9690  -27.1400 C.2   186  ARG186      0.2260
    117  O        -51.2110   35.8810  -26.0810 O.2   186  ARG186     -0.2867
    118  CB       -50.9930   34.8260  -29.2730 C.3   186  ARG186      0.0307
    119  CG       -51.2100   33.6550  -30.2250 C.3   186  ARG186      0.0489
    120  CD       -50.0070   33.0830  -30.9250 C.3   186  ARG186      0.2205
    121  NE       -49.6100   33.8730  -32.0720 N.pl3 186  ARG186     -0.0865
    122  CZ       -49.0440   33.4070  -33.1840 C.cat 186  ARG186      0.5346
    123  NH1      -48.8310   32.1060  -33.3760 N.pl3 186  ARG186      0.1354
    124  NH2      -48.7040   34.2680  -34.1350 N.pl3 186  ARG186      0.1354
    125  N        -48.3300   36.6550  -24.8040 N.3   191  TYR191     -0.1241
    126  CA       -47.3350   36.5450  -25.8720 C.3   191  TYR191      0.1605
    127  C        -46.2390   37.6070  -25.6280 C.2   191  TYR191      0.2264
    128  O        -45.0340   37.3410  -25.8140 O.2   191  TYR191     -0.2867
    129  CB       -48.0490   36.7580  -27.2150 C.3   191  TYR191      0.0534
    130  CG       -47.4670   36.0940  -28.4500 C.ar  191  TYR191     -0.0201
    131  CD1      -46.9270   34.8070  -28.4240 C.ar  191  TYR191     -0.0009
    132  CD2      -47.5040   36.7570  -29.6700 C.ar  191  TYR191     -0.0009
    133  CE1      -46.4280   34.2130  -29.6020 C.ar  191  TYR191      0.0417
    134  CE2      -47.0070   36.1920  -30.8260 C.ar  191  TYR191      0.0417
    135  CZ       -46.4840   34.9160  -30.8010 C.ar  191  TYR191      0.1957
    136  OH       -45.9910   34.4140  -31.9910 O.3   191  TYR191     -0.2866
@<TRIPOS>BOND
     1    62    61    2
     2    61    60    1
     3    60    63    1
     4    60    59    1
     5    63    64    1
     6    88    89    2
     7    88    87    1
     8    76    77    1
     9    68    69    1
    10    48    47    2
    11    70    71    2
    12    70    69    1
    13    47    46    1
    14    90    87    1
    15    90    91    1
    16    86    87    1
    17    86    78   am
    18    69    72    1
    19    64    65    1
    20    49    46    1
    21    49    50    1
    22    77    78    1
    23    77    80    1
    24    78    79    2
    25    72    73    1
    26    46    45    1
    27    66    65   ar
    28    93    91   ar
    29    93    95   ar
    30    65    67   ar
    31    91    92   ar
    32    82    81   ar
    33    82    84   ar
    34    50    51   ar
    35    50    52   ar
    36    73    75   ar
    37    73    74   ar
    38    80    81    1
    39    51    53   ar
    40    81    83   ar
    41    84    85   ar
    42    95    96   ar
    43     8     7    2
    44    92    94   ar
    45    52    55   ar
    46    52    54   ar
    47     6     5    1
    48     6     7    1
    49    55    57   ar
    50     5     2    1
    51    53    54   ar
    52     7     9   am
    53   101   102    1
    54   101    98    1
    55    85    83   ar
    56    54    56   ar
    57    96    94   ar
    58    97    98    1
    59   102   103    1
    60    57    58   ar
    61   105   104    1
    62     1     2    1
    63     2     3    1
    64    98    99    1
    65    56    58   ar
    66   103   104    1
    67    99   100    2
    68     3     4    2
    69    25    23   am
    70   113   111   am
    71    37    36    2
    72    36    35    1
    73    24    23    2
    74    23    22    1
    75    38    35    1
    76    38    39    1
    77   111   112    2
    78   111   110    1
    79    17    15    1
    80    35    34    1
    81    39    40    1
    82    40    41    1
    83   124   122    1
    84    22    19    1
    85    41    42    2
    86    14    15    1
    87    14    11    1
    88   110   107    1
    89    15    16    1
    90   123   122    1
    91    18    19    1
    92    18    12   am
    93   122   121    2
    94   106   107    1
    95    10    11    1
    96    19    20    1
    97    11    12    1
    98   107   108    1
    99    42    44    1
   100    42    43    1
   101    12    13    2
   102   121   120    1
   103   136   135    1
   104    33    31    1
   105    20    21    2
   106   108   109    2
   107   120   119    1
   108   134   135   ar
   109   134   132   ar
   110   135   133   ar
   111    31    30    1
   112   119   118    1
   113    32    30    1
   114    30    27    1
   115   132   130   ar
   116   133   131   ar
   117   118   115    1
   118    26    27    1
   119    27    28    1
   120   114   115    1
   121   130   131   ar
   122   130   129    1
   123   115   116    1
   124    28    29    2
   125   129   126    1
   126   116   117    2
   127   126   127    1
   128   126   125    1
   129   128   127    2
