@<TRIPOS>MOLECULE
tmp/2yb1A00.pdb
 152 145 0 0 0
SMALL
GASTEIGER

@<TRIPOS>ATOM
      1  N         25.8340   26.6860   40.3100 N.3    13  ASP13      -0.1239
      2  CA        27.2010   27.1330   40.0100 C.3    13  ASP13       0.1674
      3  C         28.2880   26.0820   39.7460 C.2    13  ASP13       0.2266
      4  O         29.4710   26.4210   39.6800 O.2    13  ASP13      -0.2867
      5  CB        27.6680   28.2770   40.9210 C.3    13  ASP13       0.1410
      6  CG        27.9300   27.8220   42.3240 C.2    13  ASP13       0.3668
      7  OD1       27.5750   26.6740   42.6440 O.co2  13  ASP13      -0.2456
      8  OD2       28.4910   28.6200   43.0940 O.co2  13  ASP13      -0.2456
      9  N         22.5810   25.5830   44.8240 N.3    38  HIS38      -0.1241
     10  CA        22.1340   26.8220   45.4600 C.3    38  HIS38       0.1621
     11  C         20.6940   27.1480   45.1080 C.2    38  HIS38       0.2264
     12  O         20.3470   27.2380   43.9300 O.2    38  HIS38      -0.2867
     13  CB        22.9860   27.9940   44.9850 C.3    38  HIS38       0.0745
     14  CG        24.4150   27.9290   45.4220 C.ar   38  HIS38       0.0817
     15  ND1       24.8040   28.1830   46.7200 N.ar   38  HIS38      -0.2268
     16  CD2       25.5530   27.6860   44.7270 C.ar   38  HIS38       0.1154
     17  CE1       26.1210   28.0890   46.8090 C.ar   38  HIS38       0.1986
     18  NE2       26.6000   27.7910   45.6150 N.ar   38  HIS38      -0.2212
     19  N         20.5250   30.1440   50.5030 N.3    65  SER65      -0.1217
     20  CA        21.1750   31.4140   50.8320 C.3    65  SER65       0.1889
     21  C         20.3710   32.1520   51.8940 C.2    65  SER65       0.2288
     22  O         19.1580   32.3290   51.7530 O.2    65  SER65      -0.2866
     23  CB        21.2770   32.3040   49.5870 C.3    65  SER65       0.2089
     24  OG        21.9100   31.6330   48.5010 O.3    65  SER65      -0.2183
     25  N         24.9960   29.9430   54.6020 N.3    74  HIS74      -0.1241
     26  CA        24.3660   28.9490   53.7380 C.3    74  HIS74       0.1621
     27  C         23.8560   27.7740   54.5530 C.2    74  HIS74       0.2264
     28  O         24.5970   27.1950   55.3550 O.2    74  HIS74      -0.2867
     29  CB        25.3500   28.4810   52.6600 C.3    74  HIS74       0.0745
     30  CG        25.6090   29.5040   51.5990 C.ar   74  HIS74       0.0817
     31  ND1       26.6330   29.3860   50.6830 N.ar   74  HIS74      -0.2268
     32  CD2       24.9660   30.6560   51.2960 C.ar   74  HIS74       0.1154
     33  CE1       26.6120   30.4240   49.8640 C.ar   74  HIS74       0.1986
     34  NE2       25.6040   31.2050   50.2080 N.ar   74  HIS74      -0.2212
     35  N         18.0470   37.5560   41.6020 N.3    98  ARG98      -0.1245
     36  CA        19.3920   37.1310   41.2140 C.3    98  ARG98       0.1563
     37  C         19.8640   37.7710   39.8950 C.2    98  ARG98       0.2260
     38  O         20.9740   38.3070   39.8180 O.2    98  ARG98      -0.2867
     39  CB        19.4500   35.5950   41.1400 C.3    98  ARG98       0.0307
     40  CG        20.7950   35.0030   41.4640 C.3    98  ARG98       0.0489
     41  CD        20.7020   33.5060   41.7450 C.3    98  ARG98       0.2205
     42  NE        21.0840   33.1650   43.1190 N.pl3  98  ARG98      -0.0865
     43  CZ        22.2930   33.3640   43.6430 C.cat  98  ARG98       0.5346
     44  NH1       23.2620   33.9170   42.9150 N.pl3  98  ARG98       0.1354
     45  NH2       22.5370   33.0120   44.9070 N.pl3  98  ARG98       0.1354
     46  N         20.4240   41.5900   40.2860 N.3   101  ARG101     -0.1245
     47  CA        21.6630   41.8040   41.0220 C.3   101  ARG101      0.1563
     48  C         22.8840   41.5960   40.1270 C.2   101  ARG101      0.2260
     49  O         23.8800   42.3310   40.2220 O.2   101  ARG101     -0.2867
     50  CB        21.7130   40.8410   42.2050 C.3   101  ARG101      0.0307
     51  CG        23.0300   40.7700   42.9840 C.3   101  ARG101      0.0489
     52  CD        22.8380   39.7130   44.0890 C.3   101  ARG101      0.2205
     53  NE        24.0140   39.4320   44.9170 N.pl3 101  ARG101     -0.0865
     54  CZ        24.7820   38.3510   44.7890 C.cat 101  ARG101      0.5346
     55  NH1       24.5200   37.4440   43.8420 N.pl3 101  ARG101      0.1354
     56  NH2       25.8100   38.1720   45.6160 N.pl3 101  ARG101      0.1354
     57  N         25.5040   33.7320   39.2430 N.3   132  SER132     -0.1202
     58  CA        26.1850   33.7380   40.5440 C.3   132  SER132      0.2020
     59  C         27.5370   34.4440   40.4620 C.2   132  SER132      0.2619
     60  O         28.1180   34.5160   39.3890 O.2   132  SER132     -0.2717
     61  CB        26.3850   32.2780   40.9640 C.3   132  SER132      0.2103
     62  OG        27.4320   32.1030   41.8850 O.3   132  SER132     -0.2182
     63  N         28.0360   34.9490   41.5930 N.am  133  ARG133     -0.1965
     64  CA        29.4040   35.4690   41.6680 C.3   133  ARG133      0.1729
     65  C         30.4030   34.4440   41.1390 C.2   133  ARG133      0.2616
     66  O         31.4680   34.8150   40.6540 O.2   133  ARG133     -0.2715
     67  CB        29.7910   35.8420   43.1070 C.3   133  ARG133      0.0348
     68  CG        29.0700   37.0850   43.6440 C.3   133  ARG133      0.0492
     69  CD        29.6150   37.5250   45.0020 C.3   133  ARG133      0.2205
     70  NE        29.1570   36.6530   46.0840 N.pl3 133  ARG133     -0.0865
     71  CZ        29.7870   36.5000   47.2430 C.cat 133  ARG133      0.5346
     72  NH1       30.9180   37.1600   47.4770 N.pl3 133  ARG133      0.1354
     73  NH2       29.2880   35.6860   48.1740 N.pl3 133  ARG133      0.1354
     74  N         30.0700   33.1560   41.2600 N.am  134  THR134     -0.1951
     75  CA        30.9550   32.0870   40.7800 C.3   134  THR134      0.1897
     76  C         31.1730   32.2000   39.2810 C.2   134  THR134      0.2313
     77  O         32.2930   32.0610   38.7960 O.2   134  THR134     -0.2863
     78  CB        30.3900   30.6900   41.1030 C.3   134  THR134      0.1794
     79  OG1       30.2220   30.5590   42.5200 O.3   134  THR134     -0.2208
     80  CG2       31.3320   29.5850   40.5970 C.3   134  THR134      0.0378
     81  N         40.8790   32.0840   40.7970 N.3   149  MET149     -0.1230
     82  CA        39.6330   32.2730   41.5460 C.3   149  MET149      0.1702
     83  C         39.8790   32.9690   42.8770 C.2   149  MET149      0.2592
     84  O         39.0930   33.8260   43.3000 O.2   149  MET149     -0.2718
     85  CB        38.9270   30.9330   41.7960 C.3   149  MET149      0.0401
     86  CG        38.4560   30.2130   40.5430 C.3   149  MET149      0.0596
     87  SD        36.9720   30.9120   39.8040 S.3   149  MET149     -0.1393
     88  CE        35.6870   30.2930   40.9080 C.3   149  MET149      0.0692
     89  N         40.9650   32.5790   43.5420 N.am  150  ARG150     -0.1980
     90  CA        41.3180   33.1390   44.8410 C.3   150  ARG150      0.1597
     91  C         41.5700   34.6420   44.7500 C.2   150  ARG150      0.2287
     92  O         41.0890   35.4120   45.5750 O.2   150  ARG150     -0.2864
     93  CB        42.5500   32.4280   45.4130 C.3   150  ARG150      0.0334
     94  CG        42.8910   32.8280   46.8450 C.3   150  ARG150      0.0492
     95  CD        43.9700   31.9220   47.4330 C.3   150  ARG150      0.2205
     96  NE        43.5390   30.5230   47.4870 N.pl3 150  ARG150     -0.0865
     97  CZ        43.3160   29.8460   48.6120 C.cat 150  ARG150      0.5346
     98  NH1       43.4910   30.4340   49.7890 N.pl3 150  ARG150      0.1354
     99  NH2       42.9270   28.5770   48.5620 N.pl3 150  ARG150      0.1354
    100  N         38.3220   37.0320   44.3000 N.3   153  PHE153     -0.1241
    101  CA        37.5280   37.4150   45.4630 C.3   153  PHE153      0.1605
    102  C         38.3100   38.2840   46.4400 C.2   153  PHE153      0.2264
    103  O         37.7460   38.9140   47.3360 O.2   153  PHE153     -0.2867
    104  CB        36.9280   36.1740   46.1340 C.3   153  PHE153      0.0534
    105  CG        35.8420   35.5330   45.3140 C.ar  153  PHE153     -0.0203
    106  CD1       34.5300   35.9740   45.4150 C.ar  153  PHE153     -0.0042
    107  CD2       36.1420   34.5300   44.3950 C.ar  153  PHE153     -0.0042
    108  CE1       33.5270   35.4000   44.6380 C.ar  153  PHE153     -0.0003
    109  CE2       35.1420   33.9570   43.6150 C.ar  153  PHE153     -0.0003
    110  CZ        33.8340   34.3920   43.7410 C.ar  153  PHE153     -0.0000
    111  N         33.4080   41.0920   46.5020 N.3   158  THR158     -0.1218
    112  CA        33.2700   41.0080   47.9520 C.3   158  THR158      0.1862
    113  C         33.0150   42.4160   48.4940 C.2   158  THR158      0.2287
    114  O         33.3600   43.4020   47.8310 O.2   158  THR158     -0.2866
    115  CB        34.5350   40.4210   48.6100 C.3   158  THR158      0.1770
    116  OG1       35.6890   41.1370   48.1510 O.3   158  THR158     -0.2211
    117  CG2       34.6920   38.9480   48.2540 C.3   158  THR158      0.0375
    118  N         18.9460   37.7890   51.3200 N.3   169  TRP169     -0.1241
    119  CA        18.4900   36.4360   51.0050 C.3   169  TRP169      0.1605
    120  C         17.4140   35.9960   52.0010 C.2   169  TRP169      0.2264
    121  O         16.7730   36.8400   52.6340 O.2   169  TRP169     -0.2867
    122  CB        19.6670   35.4560   50.9520 C.3   169  TRP169      0.0550
    123  CG        20.8050   35.9380   50.1020 C.ar  169  TRP169      0.0003
    124  CD1       21.9810   36.4780   50.5380 C.ar  169  TRP169      0.0946
    125  CD2       20.8690   35.9410   48.6680 C.ar  169  TRP169      0.0152
    126  NE1       22.7820   36.8040   49.4650 N.ar  169  TRP169     -0.2442
    127  CE2       22.1240   36.4840   48.3070 C.ar  169  TRP169      0.0810
    128  CE3       20.0000   35.5160   47.6550 C.ar  169  TRP169      0.0012
    129  CZ2       22.5330   36.6150   46.9720 C.ar  169  TRP169      0.0191
    130  CZ3       20.4050   35.6590   46.3230 C.ar  169  TRP169      0.0001
    131  CH2       21.6610   36.2030   46.0010 C.ar  169  TRP169      0.0015
    132  N         34.0460   29.1600   57.1560 N.3   193  ARG193     -0.1245
    133  CA        34.1750   30.2530   56.1910 C.3   193  ARG193      0.1563
    134  C         33.5980   31.5700   56.7130 C.2   193  ARG193      0.2260
    135  O         33.8800   32.6270   56.1590 O.2   193  ARG193     -0.2867
    136  CB        33.4820   29.9100   54.8640 C.3   193  ARG193      0.0307
    137  CG        34.0930   28.7640   54.0920 C.3   193  ARG193      0.0489
    138  CD        34.4220   29.1810   52.6520 C.3   193  ARG193      0.2205
    139  NE        33.3280   29.8970   51.9750 N.pl3 193  ARG193     -0.0865
    140  CZ        32.6100   29.4100   50.9620 C.cat 193  ARG193      0.5346
    141  NH1       32.8550   28.1870   50.4970 N.pl3 193  ARG193      0.1354
    142  NH2       31.6460   30.1460   50.4100 N.pl3 193  ARG193      0.1354
    143  N         32.7340   22.0310   42.9780 N.3   249  HIS249     -0.1241
    144  CA        32.1480   22.8640   41.9120 C.3   249  HIS249      0.1621
    145  C         32.6960   22.4450   40.5570 C.2   249  HIS249      0.2264
    146  O         31.9490   22.2310   39.6100 O.2   249  HIS249     -0.2867
    147  CB        32.4210   24.3570   42.1080 C.3   249  HIS249      0.0745
    148  CG        31.6000   24.9890   43.1820 C.ar  249  HIS249      0.0817
    149  ND1       31.7840   24.7110   44.5210 N.ar  249  HIS249     -0.2268
    150  CD2       30.5970   25.8950   43.1190 C.ar  249  HIS249      0.1154
    151  CE1       30.9290   25.4190   45.2360 C.ar  249  HIS249      0.1986
    152  NE2       30.2000   26.1470   44.4090 N.ar  249  HIS249     -0.2212
@<TRIPOS>BOND
     1    77    76    2
     2    57    58    1
     3    76    75    1
     4    60    59    2
     5   146   145    2
     6     4     3    2
     7     3     2    1
     8    87    86    1
     9    87    88    1
    10    38    37    2
    11    37    36    1
    12     2     1    1
    13     2     5    1
    14    48    49    2
    15    48    47    1
    16    46    47    1
    17    59    58    1
    18    59    63   am
    19    86    85    1
    20    58    61    1
    21   145   144    1
    22    80    78    1
    23    66    65    2
    24    75    78    1
    25    75    74    1
    26    81    82    1
    27     5     6    1
    28    61    62    1
    29    47    50    1
    30    78    79    1
    31    65    74   am
    32    65    64    1
    33    39    36    1
    34    39    40    1
    35    36    35    1
    36    40    41    1
    37    82    85    1
    38    82    83    1
    39    63    64    1
    40    64    67    1
    41    41    42    1
    42   144   147    1
    43   144   143    1
    44   147   148    1
    45    50    51    1
    46     6     7   ar
    47     6     8   ar
    48    83    84    2
    49    83    89   am
    50    44    43    1
    51    51    52    1
    52    67    68    1
    53    42    43    2
    54   150   148   ar
    55   150   152   ar
    56   148   149   ar
    57    89    90    1
    58   109   110   ar
    59   109   107   ar
    60    43    45    1
    61    68    69    1
    62   110   108   ar
    63    55    54    1
    64    12    11    2
    65    52    53    1
    66   100   101    1
    67   107   105   ar
    68   152   151   ar
    69   149   151   ar
    70   108   106   ar
    71    16    14   ar
    72    16    18   ar
    73    91    90    1
    74    91    92    2
    75    54    53    2
    76    54    56    1
    77     9    10    1
    78    90    93    1
    79    13    14    1
    80    13    10    1
    81    69    70    1
    82    11    10    1
    83   105   106   ar
    84   105   104    1
    85    93    94    1
    86    14    15   ar
    87   101   104    1
    88   101   102    1
    89    18    17   ar
    90   131   130   ar
    91   131   129   ar
    92    70    71    2
    93   130   128   ar
    94   102   103    2
    95   111   112    1
    96    15    17   ar
    97    94    95    1
    98   129   127   ar
    99    71    72    1
   100    71    73    1
   101    95    96    1
   102    96    97    2
   103   128   125   ar
   104   114   113    2
   105   112   113    1
   106   112   115    1
   107   116   115    1
   108   117   115    1
   109   127   125   ar
   110   127   126   ar
   111    24    23    1
   112    99    97    1
   113    97    98    1
   114   125   123   ar
   115   126   124   ar
   116    23    20    1
   117    33    34   ar
   118    33    31   ar
   119   123   124   ar
   120   123   122    1
   121    34    32   ar
   122   142   140    1
   123   141   140    1
   124    19    20    1
   125    31    30   ar
   126    20    21    1
   127   122   119    1
   128   140   139    2
   129   119   118    1
   130   119   120    1
   131    32    30   ar
   132    30    29    1
   133    22    21    2
   134   139   138    1
   135   120   121    2
   136   138   137    1
   137    29    26    1
   138    26    27    1
   139    26    25    1
   140   137   136    1
   141    27    28    2
   142   136   133    1
   143   135   134    2
   144   133   134    1
   145   133   132    1
