@<TRIPOS>MOLECULE
tmp/2yb9A00.pdb
 245 241 0 0 0
SMALL
GASTEIGER

@<TRIPOS>ATOM
      1  N         28.5030   34.4500   46.5400 N.3    49  ARG49      -0.1231
      2  CA        29.6110   35.3790   46.5250 C.3    49  ARG49       0.1694
      3  C         29.1290   36.6540   47.2130 C.2    49  ARG49       0.2592
      4  O         27.9200   36.8400   47.3630 O.2    49  ARG49      -0.2718
      5  CB        30.1470   35.6200   45.0910 C.3    49  ARG49       0.0321
      6  CG        29.3540   36.5940   44.2490 C.3    49  ARG49       0.0489
      7  CD        29.4990   36.2880   42.7790 C.3    49  ARG49       0.2205
      8  NE        28.7280   37.1980   41.9270 N.pl3  49  ARG49      -0.0865
      9  CZ        27.4170   37.1220   41.7000 C.cat  49  ARG49       0.5346
     10  NH1       26.6840   36.1910   42.3020 N.pl3  49  ARG49       0.1354
     11  NH2       26.8260   37.9900   40.8920 N.pl3  49  ARG49       0.1354
     12  N         30.0640   37.4920   47.6810 N.am   50  TYR50      -0.1962
     13  CA        29.7090   38.7240   48.3670 C.3    50  TYR50       0.1771
     14  C         30.7780   39.7670   48.0980 C.2    50  TYR50       0.2620
     15  O         31.9270   39.4210   47.8950 O.2    50  TYR50      -0.2715
     16  CB        29.5170   38.4490   49.8670 C.3    50  TYR50       0.0574
     17  CG        28.7650   39.5110   50.6450 C.ar   50  TYR50      -0.0198
     18  CD1       27.4260   39.7950   50.3700 C.ar   50  TYR50      -0.0009
     19  CD2       29.3410   40.1220   51.7550 C.ar   50  TYR50      -0.0009
     20  CE1       26.7050   40.7120   51.1440 C.ar   50  TYR50       0.0417
     21  CE2       28.6450   41.0620   52.5110 C.ar   50  TYR50       0.0417
     22  CZ        27.3180   41.3300   52.2270 C.ar   50  TYR50       0.1957
     23  OH        26.6490   42.2180   53.0390 O.3    50  TYR50      -0.2866
     24  N         30.3920   41.0270   48.0660 N.am   51  GLY51      -0.1954
     25  CA        31.3250   42.1060   47.7520 C.3    51  GLY51       0.1869
     26  C         30.6020   43.3320   47.3020 C.2    51  GLY51       0.2309
     27  O         29.3730   43.3640   47.3830 O.2    51  GLY51      -0.2863
     28  N         29.4870   44.7300   44.3400 N.3    53  PHE53      -0.1227
     29  CA        28.3220   44.4880   43.4860 C.3    53  PHE53       0.1736
     30  C         27.1290   43.8720   44.2140 C.2    53  PHE53       0.2595
     31  O         26.0130   44.3880   44.0800 O.2    53  PHE53      -0.2718
     32  CB        28.6840   43.6590   42.2430 C.3    53  PHE53       0.0547
     33  CG        29.1480   44.5020   41.0850 C.ar   53  PHE53      -0.0202
     34  CD1       28.2350   45.1650   40.2770 C.ar   53  PHE53      -0.0042
     35  CD2       30.5050   44.6530   40.8140 C.ar   53  PHE53      -0.0042
     36  CE1       28.6690   45.9650   39.2180 C.ar   53  PHE53      -0.0003
     37  CE2       30.9410   45.4630   39.7640 C.ar   53  PHE53      -0.0003
     38  CZ        30.0220   46.0940   38.9540 C.ar   53  PHE53      -0.0000
     39  N         27.3660   42.8200   45.0160 N.am   54  ASP54      -0.1974
     40  CA        26.2990   42.1160   45.7520 C.3    54  ASP54       0.1709
     41  C         25.6940   42.9030   46.8800 C.2    54  ASP54       0.2293
     42  O         24.4950   42.7880   47.1220 O.2    54  ASP54      -0.2864
     43  CB        26.7530   40.7230   46.2060 C.3    54  ASP54       0.1436
     44  CG        27.2840   39.8860   45.0560 C.2    54  ASP54       0.3671
     45  OD1       26.4960   39.5850   44.1240 O.co2  54  ASP54      -0.2456
     46  OD2       28.5080   39.6140   45.0380 O.co2  54  ASP54      -0.2456
     47  N         23.4630   45.4010   45.2120 N.3    57  ARG57      -0.1245
     48  CA        22.2740   44.6730   44.7520 C.3    57  ARG57       0.1563
     49  C         21.3080   44.4330   45.8980 C.2    57  ARG57       0.2260
     50  O         20.1060   44.6750   45.7320 O.2    57  ARG57      -0.2867
     51  CB        22.6590   43.3810   43.9970 C.3    57  ARG57       0.0307
     52  CG        23.1890   43.7470   42.6230 C.3    57  ARG57       0.0489
     53  CD        23.7750   42.6040   41.8850 C.3    57  ARG57       0.2205
     54  NE        24.3590   43.0240   40.6100 N.pl3  57  ARG57      -0.0865
     55  CZ        25.3090   42.3440   39.9830 C.cat  57  ARG57       0.5346
     56  NH1       25.8000   41.2340   40.5160 N.pl3  57  ARG57       0.1354
     57  NH2       25.7870   42.7750   38.8260 N.pl3  57  ARG57       0.1354
     58  N         24.3120   47.0330   37.1790 N.3   489  ASN489     -0.1225
     59  CA        25.1150   46.4590   36.0980 C.3   489  ASN489      0.1785
     60  C         25.0960   47.3880   34.9040 C.2   489  ASN489      0.2597
     61  O         24.3440   48.3680   34.9010 O.2   489  ASN489     -0.2718
     62  CB        24.5210   45.0930   35.6870 C.3   489  ASN489      0.1169
     63  CG        25.5090   43.9540   35.6850 C.2   489  ASN489      0.2627
     64  OD1       26.7150   44.1210   35.9110 O.2   489  ASN489     -0.2716
     65  ND2       25.0100   42.7700   35.4080 N.am  489  ASN489     -0.0877
     66  N         25.9360   47.1020   33.9000 N.am  490  ALA490     -0.1966
     67  CA        25.9640   47.8560   32.6410 C.3   490  ALA490      0.1728
     68  C         26.0620   46.8330   31.5120 C.2   490  ALA490      0.2616
     69  O         26.4010   45.6560   31.7750 O.2   490  ALA490     -0.2715
     70  CB        27.1150   48.8530   32.6080 C.3   490  ALA490      0.0334
     71  N         25.6550   47.2260   30.2780 N.am  491  PHE491     -0.1960
     72  CA        25.6130   46.2570   29.1660 C.3   491  PHE491      0.1771
     73  C         26.0410   46.8240   27.8410 C.2   491  PHE491      0.2619
     74  O         26.1100   48.0320   27.6710 O.2   491  PHE491     -0.2715
     75  CB        24.1830   45.6490   29.0140 C.3   491  PHE491      0.0574
     76  CG        23.5730   45.1210   30.2890 C.ar  491  PHE491     -0.0200
     77  CD1       23.7950   43.8100   30.6930 C.ar  491  PHE491     -0.0042
     78  CD2       22.8370   45.9540   31.1210 C.ar  491  PHE491     -0.0042
     79  CE1       23.2820   43.3380   31.8960 C.ar  491  PHE491     -0.0003
     80  CE2       22.3420   45.4840   32.3380 C.ar  491  PHE491     -0.0003
     81  CZ        22.5370   44.1720   32.7000 C.ar  491  PHE491     -0.0000
     82  N         26.2940   45.9210   26.8880 N.am  492  TYR492     -0.1974
     83  CA        26.5760   46.2200   25.4910 C.3   492  TYR492      0.1639
     84  C         25.8190   45.2170   24.6060 C.2   492  TYR492      0.2290
     85  O         25.8670   44.0150   24.8740 O.2   492  TYR492     -0.2864
     86  CB        28.0890   46.1890   25.1850 C.3   492  TYR492      0.0560
     87  CG        28.3620   46.3970   23.7180 C.ar  492  TYR492     -0.0198
     88  CD1       28.1920   47.6510   23.1310 C.ar  492  TYR492     -0.0009
     89  CD2       28.7210   45.3300   22.8940 C.ar  492  TYR492     -0.0009
     90  CE1       28.3900   47.8430   21.7680 C.ar  492  TYR492      0.0417
     91  CE2       28.8890   45.5040   21.5190 C.ar  492  TYR492      0.0417
     92  CZ        28.7320   46.7670   20.9660 C.ar  492  TYR492      0.1957
     93  OH        28.8850   46.9810   19.6280 O.3   492  TYR492     -0.2866
     94  N         23.4310   51.3100   38.6560 N.3   505  ILE505     -0.1245
     95  CA        24.9080   51.3690   38.7210 C.3   505  ILE505      0.1561
     96  C         25.4440   52.8290   38.8350 C.2   505  ILE505      0.2260
     97  O         26.6430   53.0470   39.0040 O.2   505  ILE505     -0.2867
     98  CB        25.5850   50.5780   37.5570 C.3   505  ILE505      0.0252
     99  CG1       27.0540   50.1750   37.9290 C.3   505  ILE505      0.0019
    100  CG2       25.4820   51.3310   36.1920 C.3   505  ILE505      0.0019
    101  CD1       27.7740   49.1040   37.0500 C.3   505  ILE505      0.0001
    102  N         35.6380   53.5980   33.9700 N.3   526  MET526     -0.1230
    103  CA        36.1690   52.2610   33.6370 C.3   526  MET526      0.1702
    104  C         35.0260   51.3790   33.0440 C.2   526  MET526      0.2592
    105  O         35.2150   50.6660   32.0290 O.2   526  MET526     -0.2718
    106  CB        36.7900   51.6230   34.8970 C.3   526  MET526      0.0401
    107  CG        37.3070   50.2290   34.6900 C.3   526  MET526      0.0596
    108  SD        35.9790   49.0370   34.9300 S.3   526  MET526     -0.1393
    109  CE        36.6230   47.6410   33.9980 C.3   526  MET526      0.0692
    110  N         33.8310   51.4760   33.6750 N.am  527  VAL527     -0.1980
    111  CA        32.6340   50.7230   33.2880 C.3   527  VAL527      0.1595
    112  C         32.1020   51.1640   31.9130 C.2   527  VAL527      0.2287
    113  O         31.7420   50.3110   31.1090 O.2   527  VAL527     -0.2864
    114  CB        31.5970   50.7080   34.4420 C.3   527  VAL527      0.0276
    115  CG1       30.2740   50.0650   34.0110 C.3   527  VAL527      0.0022
    116  CG2       32.1940   49.9950   35.6690 C.3   527  VAL527      0.0022
    117  N         34.6580   49.7580   29.4630 N.3   530  HIS530     -0.1226
    118  CA        34.4140   48.3040   29.3850 C.3   530  HIS530      0.1752
    119  C         33.3090   48.0330   28.3520 C.2   530  HIS530      0.2595
    120  O         33.5090   47.2110   27.4500 O.2   530  HIS530     -0.2718
    121  CB        34.0230   47.7540   30.7730 C.3   530  HIS530      0.0759
    122  CG        33.7940   46.2810   30.8370 C.ar  530  HIS530      0.0818
    123  ND1       34.7120   45.4410   31.4190 N.ar  530  HIS530     -0.2268
    124  CD2       32.7350   45.5490   30.4330 C.ar  530  HIS530      0.1154
    125  CE1       34.2070   44.2220   31.3180 C.ar  530  HIS530      0.1986
    126  NE2       33.0190   44.2400   30.7410 N.ar  530  HIS530     -0.2212
    127  N         32.1680   48.7690   28.4570 N.am  531  GLU531     -0.1979
    128  CA        31.0380   48.6000   27.5200 C.3   531  GLU531      0.1602
    129  C         31.3410   49.0160   26.0920 C.2   531  GLU531      0.2287
    130  O         30.9920   48.2770   25.1720 O.2   531  GLU531     -0.2864
    131  CB        29.6930   49.1430   28.0520 C.3   531  GLU531      0.0415
    132  CG        29.3480   48.6490   29.4480 C.3   531  GLU531      0.1163
    133  CD        29.2660   47.1480   29.6760 C.2   531  GLU531      0.3649
    134  OE1       28.9730   46.4030   28.7140 O.co2 531  GLU531     -0.2457
    135  OE2       29.4160   46.7260   30.8460 O.co2 531  GLU531     -0.2457
    136  N         33.5810   46.3990   24.4460 N.3   534  HIS534     -0.1241
    137  CA        32.8720   45.1740   24.0700 C.3   534  HIS534      0.1621
    138  C         32.5030   45.1840   22.5890 C.2   534  HIS534      0.2264
    139  O         32.3710   44.1260   21.9680 O.2   534  HIS534     -0.2867
    140  CB        31.6400   44.9440   24.9490 C.3   534  HIS534      0.0745
    141  CG        31.8790   44.0370   26.1230 C.ar  534  HIS534      0.0817
    142  ND1       32.5760   42.8530   25.9890 N.ar  534  HIS534     -0.2268
    143  CD2       31.4510   44.1530   27.4020 C.ar  534  HIS534      0.1154
    144  CE1       32.6080   42.3230   27.1960 C.ar  534  HIS534      0.1986
    145  NE2       31.9400   43.0720   28.0780 N.ar  534  HIS534     -0.2212
    146  N         35.9220   39.7060   28.1000 N.3   593  GLU593     -0.1245
    147  CA        35.8190   40.4920   29.3410 C.3   593  GLU593      0.1567
    148  C         37.1210   41.1120   29.7990 C.2   593  GLU593      0.2260
    149  O         37.1120   42.2490   30.2780 O.2   593  GLU593     -0.2867
    150  CB        35.2360   39.6480   30.4780 C.3   593  GLU593      0.0388
    151  CG        33.8300   39.1590   30.1940 C.3   593  GLU593      0.1160
    152  CD        32.8080   40.2390   29.9380 C.2   593  GLU593      0.3649
    153  OE1       32.9530   41.3410   30.5110 O.co2 593  GLU593     -0.2457
    154  OE2       31.8480   39.9760   29.1820 O.co2 593  GLU593     -0.2457
    155  N         35.7990   48.4700   43.3070 N.3   639  VAL639     -0.1231
    156  CA        34.6030   48.0870   42.5610 C.3   639  VAL639      0.1692
    157  C         34.4770   46.5660   42.5640 C.2   639  VAL639      0.2592
    158  O         33.3640   46.0470   42.5900 O.2   639  VAL639     -0.2718
    159  CB        34.6370   48.7090   41.1460 C.3   639  VAL639      0.0266
    160  CG1       33.7300   47.9720   40.1640 C.3   639  VAL639      0.0020
    161  CG2       34.2900   50.2000   41.2010 C.3   639  VAL639      0.0020
    162  N         35.6380   45.8720   42.6460 N.am  640  TRP640     -0.1962
    163  CA        35.7910   44.4230   42.6180 C.3   640  TRP640      0.1771
    164  C         36.0570   43.7500   43.9480 C.2   640  TRP640      0.2620
    165  O         36.3000   42.5500   43.9520 O.2   640  TRP640     -0.2715
    166  CB        36.7990   43.9940   41.5220 C.3   640  TRP640      0.0590
    167  CG        36.5430   44.6660   40.2080 C.ar  640  TRP640      0.0006
    168  CD1       37.2180   45.7330   39.6970 C.ar  640  TRP640      0.0946
    169  CD2       35.4140   44.4550   39.3470 C.ar  640  TRP640      0.0152
    170  NE1       36.6020   46.1830   38.5530 N.ar  640  TRP640     -0.2442
    171  CE2       35.4870   45.4200   38.3180 C.ar  640  TRP640      0.0810
    172  CE3       34.3270   43.5680   39.3680 C.ar  640  TRP640      0.0012
    173  CZ2       34.5650   45.4670   37.2730 C.ar  640  TRP640      0.0191
    174  CZ3       33.4050   43.6190   38.3350 C.ar  640  TRP640      0.0001
    175  CH2       33.5290   44.5580   37.3040 C.ar  640  TRP640      0.0015
    176  N         35.9800   44.4910   45.0760 N.am  641  CYS641     -0.1954
    177  CA        36.0870   43.9050   46.4180 C.3   641  CYS641      0.1843
    178  C         35.0490   42.7950   46.4980 C.2   641  CYS641      0.2626
    179  O         33.8800   43.0180   46.1820 O.2   641  CYS641     -0.2714
    180  CB        35.8350   44.9390   47.5150 C.3   641  CYS641      0.0997
    181  SG        37.2200   46.0600   47.8460 S.3   641  CYS641     -0.0797
    182  N         35.4880   41.6180   46.8990 N.am  642  GLY642     -0.1940
    183  CA        34.6060   40.4740   47.0060 C.3   642  GLY642      0.2014
    184  C         35.3120   39.1580   47.1700 C.2   642  GLY642      0.2640
    185  O         36.5370   39.0620   47.0340 O.2   642  GLY642     -0.2714
    186  N         34.5250   38.1500   47.5040 N.am  643  THR643     -0.1936
    187  CA        34.9540   36.7740   47.6980 C.3   643  THR643      0.2028
    188  C         33.8320   35.8320   47.2550 C.2   643  THR643      0.2642
    189  O         32.7010   36.2740   47.0590 O.2   643  THR643     -0.2714
    190  CB        35.5630   36.5380   49.1100 C.3   643  THR643      0.1808
    191  OG1       36.2420   35.2820   49.1260 O.3   643  THR643     -0.2208
    192  CG2       34.5270   36.6370   50.2560 C.3   643  THR643      0.0379
    193  N         34.1770   34.5480   47.0540 N.am  644  TYR644     -0.1973
    194  CA        33.3030   33.5140   46.5210 C.3   644  TYR644      0.1639
    195  C         33.2840   32.2960   47.4390 C.2   644  TYR644      0.2290
    196  O         34.2740   32.0310   48.1120 O.2   644  TYR644     -0.2864
    197  CB        33.8350   33.0670   45.1260 C.3   644  TYR644      0.0560
    198  CG        33.8490   34.1400   44.0500 C.ar  644  TYR644     -0.0198
    199  CD1       34.8510   35.1090   44.0140 C.ar  644  TYR644     -0.0009
    200  CD2       32.9150   34.1300   43.0140 C.ar  644  TYR644     -0.0009
    201  CE1       34.8810   36.0860   43.0180 C.ar  644  TYR644      0.0417
    202  CE2       32.9420   35.0960   42.0030 C.ar  644  TYR644      0.0417
    203  CZ        33.9190   36.0800   42.0170 C.ar  644  TYR644      0.1957
    204  OH        33.9460   37.0430   41.0310 O.3   644  TYR644     -0.2866
    205  N         31.0070   31.4440   33.9940 N.3   656  ASP656     -0.1239
    206  CA        31.1250   32.8760   33.8760 C.3   656  ASP656      0.1674
    207  C         32.2440   33.2240   32.9030 C.2   656  ASP656      0.2266
    208  O         33.3300   32.6430   32.9640 O.2   656  ASP656     -0.2867
    209  CB        31.3410   33.5030   35.2670 C.3   656  ASP656      0.1410
    210  CG        31.2070   35.0130   35.3560 C.2   656  ASP656      0.3668
    211  OD1       30.9960   35.6580   34.3110 O.co2 656  ASP656     -0.2456
    212  OD2       31.3050   35.5440   36.4690 O.co2 656  ASP656     -0.2456
    213  N         33.5590   36.1990   32.8350 N.3   658  HIS658     -0.1241
    214  CA        34.3800   37.2080   33.5220 C.3   658  HIS658      0.1621
    215  C         35.4290   36.5340   34.3830 C.2   658  HIS658      0.2264
    216  O         35.1360   35.5220   35.0070 O.2   658  HIS658     -0.2867
    217  CB        33.5110   38.1100   34.4510 C.3   658  HIS658      0.0745
    218  CG        32.4240   38.8430   33.7480 C.ar  658  HIS658      0.0817
    219  ND1       31.1760   38.2660   33.5430 N.ar  658  HIS658     -0.2268
    220  CD2       32.4190   40.0870   33.2280 C.ar  658  HIS658      0.1154
    221  CE1       30.4670   39.1660   32.8780 C.ar  658  HIS658      0.1986
    222  NE2       31.1710   40.2830   32.6770 N.ar  658  HIS658     -0.2212
    223  N         36.7890   38.7090   40.5080 N.3   661  GLY661     -0.1210
    224  CA        37.1290   40.0930   40.8360 C.3   661  GLY661      0.1956
    225  C         38.5890   40.3710   41.1310 C.2   661  GLY661      0.2611
    226  O         39.1430   41.3520   40.6140 O.2   661  GLY661     -0.2717
    227  N         39.2230   39.4960   41.9440 N.am  662  ASN662     -0.1974
    228  CA        40.6380   39.6460   42.3120 C.3   662  ASN662      0.1688
    229  C         41.5690   39.6130   41.1220 C.2   662  ASN662      0.2292
    230  O         42.4930   40.4250   41.0490 O.2   662  ASN662     -0.2864
    231  CB        41.0670   38.6380   43.3990 C.3   662  ASN662      0.1181
    232  CG        40.9590   37.1880   43.0520 C.2   662  ASN662      0.2629
    233  OD1       39.9130   36.7090   42.6590 O.2   662  ASN662     -0.2716
    234  ND2       42.0190   36.4360   43.2910 N.am  662  ASN662     -0.0877
    235  N         40.5770   40.2280   37.9820 N.3   664  ARG664     -0.1245
    236  CA        40.2620   41.3540   37.0900 C.3   664  ARG664      0.1563
    237  C         41.1390   42.5170   37.5380 C.2   664  ARG664      0.2260
    238  O         41.6140   43.2460   36.6980 O.2   664  ARG664     -0.2867
    239  CB        38.7700   41.7600   37.1190 C.3   664  ARG664      0.0307
    240  CG        37.8270   40.6570   36.6490 C.3   664  ARG664      0.0489
    241  CD        36.3680   41.0270   36.8490 C.3   664  ARG664      0.2205
    242  NE        35.9240   41.9320   35.7970 N.pl3 664  ARG664     -0.0865
    243  CZ        34.6750   42.0640   35.3790 C.cat 664  ARG664      0.5346
    244  NH1       33.7030   41.3480   35.9290 N.pl3 664  ARG664      0.1354
    245  NH2       34.3760   42.9500   34.4440 N.pl3 664  ARG664      0.1354
@<TRIPOS>BOND
     1    93    92    1
     2    92    91   ar
     3    92    90   ar
     4    91    89   ar
     5    90    88   ar
     6   139   138    2
     7   138   137    1
     8    89    87   ar
     9    88    87   ar
    10    87    86    1
    11   137   136    1
    12   137   140    1
    13    84    85    2
    14    84    83    1
    15   140   141    1
    16   130   129    2
    17    86    83    1
    18    83    82    1
    19   142   141   ar
    20   142   144   ar
    21   129   128    1
    22   141   143   ar
    23    82    73   am
    24   144   145   ar
    25   143   145   ar
    26   120   119    2
    27   128   131    1
    28   128   127    1
    29    74    73    2
    30    73    72    1
    31   131   132    1
    32   146   147    1
    33   119   127   am
    34   119   118    1
    35   134   133   ar
    36    75    72    1
    37    75    76    1
    38    72    71    1
    39   154   152   ar
    40   147   148    1
    41   147   150    1
    42   118   117    1
    43   118   121    1
    44   132   133    1
    45   133   135   ar
    46   148   149    2
    47   152   151    1
    48   152   153   ar
    49   151   150    1
    50    71    68   am
    51    76    77   ar
    52    76    78   ar
    53   124   126   ar
    54   124   122   ar
    55    77    79   ar
    56   126   125   ar
    57   121   122    1
    58   122   123   ar
    59   113   112    2
    60    78    80   ar
    61   125   123   ar
    62    68    69    2
    63    68    67    1
    64    79    81   ar
    65   112   111    1
    66   105   104    2
    67    80    81   ar
    68    70    67    1
    69    67    66    1
    70   222   221   ar
    71   222   220   ar
    72   213   214    1
    73   221   219   ar
    74   207   208    2
    75   207   206    1
    76   104   103    1
    77   104   110   am
    78   220   218   ar
    79   111   110    1
    80   111   114    1
    81   214   215    1
    82   214   217    1
    83   219   218   ar
    84   103   102    1
    85   103   106    1
    86   218   217    1
    87   206   205    1
    88   206   209    1
    89    66    60   am
    90   109   108    1
    91   115   114    1
    92   211   210   ar
    93   215   216    2
    94   114   116    1
    95   245   243    1
    96   107   106    1
    97   107   108    1
    98    61    60    2
    99    60    59    1
   100   209   210    1
   101   210   212   ar
   102   243   242    2
   103   243   244    1
   104    65    63   am
   105    63    62    1
   106    63    64    2
   107    62    59    1
   108   242   241    1
   109    59    58    1
   110   100    98    1
   111   240   241    1
   112   240   239    1
   113   238   237    2
   114   101    99    1
   115   236   239    1
   116   236   237    1
   117   236   235    1
   118   173   175   ar
   119   173   171   ar
   120   175   174   ar
   121    98    99    1
   122    98    95    1
   123   171   170   ar
   124   171   169   ar
   125   174   172   ar
   126   170   168   ar
   127    94    95    1
   128    95    96    1
   129    57    55    1
   130    96    97    2
   131    38    36   ar
   132    38    37   ar
   133    36    34   ar
   134   169   172   ar
   135   169   167   ar
   136   168   167   ar
   137    37    35   ar
   138    55    56    1
   139    55    54    2
   140   160   159    1
   141   167   166    1
   142    34    33   ar
   143   223   224    1
   144    54    53    1
   145   226   225    2
   146    35    33   ar
   147   224   225    1
   148    11     9    1
   149   204   203    1
   150   230   229    2
   151    33    32    1
   152   229   228    1
   153   225   227   am
   154   159   161    1
   155   159   156    1
   156   166   163    1
   157     9     8    2
   158     9    10    1
   159    53    52    1
   160     8     7    1
   161   227   228    1
   162   202   203   ar
   163   202   200   ar
   164   203   201   ar
   165    32    29    1
   166   228   231    1
   167   156   157    1
   168   156   155    1
   169   157   158    2
   170   157   162   am
   171   163   162    1
   172   163   164    1
   173    52    51    1
   174   233   232    2
   175     7     6    1
   176   200   198   ar
   177   201   199   ar
   178   232   234   am
   179   232   231    1
   180    29    30    1
   181    29    28    1
   182   164   165    2
   183   164   176   am
   184    51    48    1
   185   199   198   ar
   186   198   197    1
   187    31    30    2
   188    45    44   ar
   189    30    39   am
   190     6     5    1
   191    48    47    1
   192    48    49    1
   193    39    40    1
   194    46    44   ar
   195    44    43    1
   196   176   177    1
   197     5     2    1
   198   197   194    1
   199    50    49    2
   200    40    43    1
   201    40    41    1
   202   179   178    2
   203   177   178    1
   204   177   180    1
   205   178   182   am
   206   194   193    1
   207   194   195    1
   208     2     1    1
   209     2     3    1
   210    41    42    2
   211   182   183    1
   212   183   184    1
   213   185   184    2
   214   193   188   am
   215   189   188    2
   216   184   186   am
   217     3     4    2
   218     3    12   am
   219   188   187    1
   220    26    27    2
   221    26    25    1
   222   195   196    2
   223   186   187    1
   224   180   181    1
   225    12    13    1
   226   187   190    1
   227    25    24    1
   228    15    14    2
   229    24    14   am
   230    14    13    1
   231    13    16    1
   232   190   191    1
   233   190   192    1
   234    16    17    1
   235    18    17   ar
   236    18    20   ar
   237    17    19   ar
   238    20    22   ar
   239    19    21   ar
   240    22    21   ar
   241    22    23    1
