@<TRIPOS>MOLECULE
tmp/2ybaB00.pdb
 240 226 0 0 0
SMALL
GASTEIGER

@<TRIPOS>ATOM
      1  N          8.9430    7.0090   10.5850 N.3    34  ALA34      -0.1231
      2  CA        10.3520    6.7310   10.3260 C.3    34  ALA34       0.1694
      3  C         10.7200    5.4500   11.0190 C.2    34  ALA34       0.2592
      4  O         10.6230    5.3440   12.2450 O.2    34  ALA34      -0.2718
      5  CB        11.2310    7.8860   10.7760 C.3    34  ALA34       0.0304
      6  N         11.0280    4.4370   10.2200 N.am   35  LEU35      -0.1966
      7  CA        11.3810    3.1240   10.7510 C.3    35  LEU35       0.1728
      8  C         12.8110    3.1700   11.2470 C.2    35  LEU35       0.2616
      9  O         13.5780    4.0030   10.7530 O.2    35  LEU35      -0.2715
     10  CB        11.2040    2.0350    9.6760 C.3    35  LEU35       0.0311
     11  CG         9.8100    1.8760    9.0720 C.3    35  LEU35       0.0022
     12  CD1        9.8890    1.3280    7.6730 C.3    35  LEU35       0.0001
     13  CD2        8.9150    1.0140    9.9500 C.3    35  LEU35       0.0001
     14  N         13.1700    2.3290   12.2380 N.am   36  GLU36      -0.1963
     15  CA        14.5400    2.2510   12.7820 C.3    36  GLU36       0.1733
     16  C         15.5410    2.0930   11.6230 C.2    36  GLU36       0.2616
     17  O         16.5250    2.8280   11.5540 O.2    36  GLU36      -0.2715
     18  CB        14.6600    1.0780   13.7790 C.3    36  GLU36       0.0429
     19  CG        16.0230    0.9540   14.4580 C.3    36  GLU36       0.1163
     20  CD        16.1450   -0.0220   15.6260 C.2    36  GLU36       0.3649
     21  OE1       15.2070   -0.8260   15.8520 O.co2  36  GLU36      -0.2457
     22  OE2       17.1900    0.0260   16.3220 O.co2  36  GLU36      -0.2457
     23  N         15.2300    1.1690   10.6870 N.am   37  TRP37      -0.1960
     24  CA        16.0180    0.8700    9.4890 C.3    37  TRP37       0.1756
     25  C         15.1440    0.9980    8.2480 C.2    37  TRP37       0.2461
     26  O         13.9270    0.7800    8.3600 O.2    37  TRP37      -0.2730
     27  CB        16.5630   -0.5700    9.5890 C.3    37  TRP37       0.0590
     28  CG        17.5590   -0.7480   10.6820 C.ar   37  TRP37       0.0006
     29  CD1       17.3450   -1.3070   11.9120 C.ar   37  TRP37       0.0946
     30  CD2       18.9040   -0.2610   10.6890 C.ar   37  TRP37       0.0152
     31  NE1       18.4940   -1.2240   12.6770 N.ar   37  TRP37      -0.2442
     32  CE2       19.4720   -0.6020   11.9390 C.ar   37  TRP37       0.0810
     33  CE3       19.7010    0.3890    9.7450 C.ar   37  TRP37       0.0012
     34  CZ2       20.7870   -0.2790   12.2730 C.ar   37  TRP37       0.0191
     35  CZ3       21.0190    0.6860   10.0720 C.ar   37  TRP37       0.0001
     36  CH2       21.5440    0.3670   11.3290 C.ar   37  TRP37       0.0015
     37  N         15.6980    1.2350    7.0440 N.am   38  PRO38      -0.2727
     38  CA        14.8170    1.2430    5.8590 C.3    38  PRO38       0.1402
     39  C         14.2920   -0.1560    5.5450 C.2    38  PRO38       0.2269
     40  O         14.9680   -1.1540    5.8240 O.2    38  PRO38      -0.2865
     41  CB        15.7050    1.7750    4.7240 C.3    38  PRO38       0.0296
     42  CG        17.0740    1.5160    5.1680 C.3    38  PRO38       0.0237
     43  CD        17.1090    1.4250    6.6810 C.3    38  PRO38       0.0939
     44  N         12.9470   -2.6590    2.4420 N.3    40  LEU40      -0.1245
     45  CA        13.0230   -2.9110    0.9950 C.3    40  LEU40       0.1561
     46  C         11.6950   -3.4960    0.4910 C.2    40  LEU40       0.2260
     47  O         11.4720   -3.6260   -0.7210 O.2    40  LEU40      -0.2867
     48  CB        14.1750   -3.9050    0.7190 C.3    40  LEU40       0.0270
     49  CG        15.6190   -3.3900    0.9230 C.3    40  LEU40       0.0019
     50  CD1       16.5930   -4.5380    1.0350 C.3    40  LEU40       0.0001
     51  CD2       16.0390   -2.4320   -0.1740 C.3    40  LEU40       0.0001
     52  N         16.7570   -3.3890    6.5420 N.3    66  HIS66      -0.1226
     53  CA        17.9590   -3.3350    5.7340 C.3    66  HIS66       0.1752
     54  C         18.9490   -2.5680    6.5930 C.2    66  HIS66       0.2597
     55  O         18.7790   -1.3680    6.7880 O.2    66  HIS66      -0.2718
     56  CB        17.7000   -2.7300    4.3420 C.3    66  HIS66       0.0759
     57  CG        18.9360   -2.5220    3.5150 C.ar   66  HIS66       0.0818
     58  ND1       18.9720   -1.5790    2.5080 N.ar   66  HIS66      -0.2268
     59  CD2       20.1350   -3.1390    3.5670 C.ar   66  HIS66       0.1154
     60  CE1       20.1750   -1.6620    1.9720 C.ar   66  HIS66       0.1986
     61  NE2       20.9150   -2.5740    2.5840 N.ar   66  HIS66      -0.2212
     62  N         19.8910   -3.2900    7.2320 N.am   67  THR67      -0.1939
     63  CA        20.8660   -2.6840    8.1560 C.3    67  THR67       0.2028
     64  C         22.2730   -2.6030    7.5710 C.2    67  THR67       0.2642
     65  O         22.6280   -3.3810    6.6740 O.2    67  THR67      -0.2714
     66  CB        20.9360   -3.4630    9.4790 C.3    67  THR67       0.1808
     67  OG1       21.6310   -4.6890    9.2520 O.3    67  THR67      -0.2208
     68  CG2       19.5670   -3.7430   10.0880 C.3    67  THR67       0.0379
     69  N         23.0940   -1.7020    8.1230 N.am   68  SER68      -0.1949
     70  CA        24.5030   -1.6360    7.7510 C.3    68  SER68       0.1924
     71  C         25.1680   -2.8650    8.3540 C.2    68  SER68       0.2314
     72  O         25.6300   -3.7560    7.6240 O.2    68  SER68      -0.2863
     73  CB        25.1470   -0.3530    8.2630 C.3    68  SER68       0.2116
     74  OG        25.0950   -0.3290    9.6820 O.3    68  SER68      -0.2180
     75  N         23.7550   -4.3020   11.7380 N.3    70  GLU70      -0.1245
     76  CA        23.0160   -4.7960   12.8970 C.3    70  GLU70       0.1567
     77  C         22.1600   -6.0200   12.5330 C.2    70  GLU70       0.2260
     78  O         22.1100   -6.4320   11.3710 O.2    70  GLU70      -0.2867
     79  CB        22.1410   -3.6790   13.5100 C.3    70  GLU70       0.0388
     80  CG        22.9400   -2.4780   13.9860 C.3    70  GLU70       0.1160
     81  CD        22.2460   -1.4950   14.9170 C.2    70  GLU70       0.3649
     82  OE1       21.0980   -1.7580   15.3560 O.co2  70  GLU70      -0.2457
     83  OE2       22.8430   -0.4180   15.1520 O.co2  70  GLU70      -0.2457
     84  N         19.4590   -8.4620    5.0270 N.3    97  GLU97      -0.1245
     85  CA        18.2790   -7.6640    4.7010 C.3    97  GLU97       0.1567
     86  C         17.1910   -8.4990    3.9970 C.2    97  GLU97       0.2260
     87  O         17.5050   -9.4410    3.2610 O.2    97  GLU97      -0.2867
     88  CB        18.6400   -6.4530    3.8190 C.3    97  GLU97       0.0388
     89  CG        19.3590   -6.7860    2.5130 C.3    97  GLU97       0.1160
     90  CD        20.8780   -6.8870    2.5640 C.2    97  GLU97       0.3649
     91  OE1       21.4500   -7.1160    3.6610 O.co2  97  GLU97      -0.2457
     92  OE2       21.4970   -6.7420    1.4850 O.co2  97  GLU97      -0.2457
     93  N         15.0250   -8.6660    1.1710 N.3    99  ASN99      -0.1225
     94  CA        14.8610   -8.1130   -0.1950 C.3    99  ASN99       0.1785
     95  C         13.3810   -8.0130   -0.5890 C.2    99  ASN99       0.2597
     96  O         12.9820   -7.0660   -1.2440 O.2    99  ASN99      -0.2718
     97  CB        15.6090   -8.9720   -1.2330 C.3    99  ASN99       0.1169
     98  CG        17.1290   -8.8390   -1.2060 C.2    99  ASN99       0.2627
     99  OD1       17.7080   -8.1100   -0.3920 O.2    99  ASN99      -0.2716
    100  ND2       17.8140   -9.5230   -2.1290 N.am   99  ASN99      -0.0877
    101  N         12.5720   -9.0080   -0.1750 N.am  100  ARG100     -0.1979
    102  CA        11.1320   -9.0990   -0.4290 C.3   100  ARG100      0.1597
    103  C         10.5240  -10.1000    0.5300 C.2   100  ARG100      0.2287
    104  O         11.1540  -11.0990    0.8640 O.2   100  ARG100     -0.2864
    105  CB        10.8680   -9.5280   -1.8860 C.3   100  ARG100      0.0334
    106  CG         9.4380   -9.3340   -2.3370 C.3   100  ARG100      0.0492
    107  CD         9.3420   -8.9900   -3.8000 C.3   100  ARG100      0.2205
    108  NE         9.9350   -7.6870   -4.0710 N.pl3 100  ARG100     -0.0865
    109  CZ        10.2130   -7.2270   -5.2860 C.cat 100  ARG100      0.5346
    110  NH1        9.9560   -7.9760   -6.3570 N.pl3 100  ARG100      0.1354
    111  NH2       10.7770   -6.0380   -5.4440 N.pl3 100  ARG100      0.1354
    112  N         19.8450  -11.7550    1.0730 N.3   116  PRO116     -0.2116
    113  CA        20.9620  -11.3020    0.2110 C.3   116  PRO116      0.1372
    114  C         21.8800  -12.4820   -0.1770 C.2   116  PRO116      0.2244
    115  O         22.9250  -12.2840   -0.8030 O.2   116  PRO116     -0.2868
    116  CB        21.6690  -10.2770    1.0770 C.3   116  PRO116      0.0268
    117  CG        21.3870  -10.6890    2.4620 C.3   116  PRO116      0.0207
    118  CD        20.0840  -11.4030    2.4920 C.3   116  PRO116      0.0892
    119  N         21.3280  -14.0270   -4.8920 N.3   150  GLU150     -0.1245
    120  CA        20.1730  -13.3090   -4.3340 C.3   150  GLU150      0.1567
    121  C         19.2170  -12.8360   -5.4490 C.2   150  GLU150      0.2260
    122  O         19.5550  -12.8790   -6.6390 O.2   150  GLU150     -0.2867
    123  CB        20.6260  -12.1290   -3.4710 C.3   150  GLU150      0.0388
    124  CG        21.2860  -10.9670   -4.2100 C.3   150  GLU150      0.1160
    125  CD        21.6000   -9.7520   -3.3470 C.2   150  GLU150      0.3649
    126  OE1       20.7470   -9.3680   -2.5110 O.co2 150  GLU150     -0.2457
    127  OE2       22.6990   -9.1740   -3.5160 O.co2 150  GLU150     -0.2457
    128  N         15.0040  -10.6370   -6.1110 N.3   152  TYR152     -0.1241
    129  CA        13.9210   -9.8210   -5.5880 C.3   152  TYR152      0.1605
    130  C         12.5690  -10.4970   -5.8900 C.2   152  TYR152      0.2264
    131  O         11.7930  -10.6590   -4.9690 O.2   152  TYR152     -0.2867
    132  CB        14.0040   -8.3680   -6.1090 C.3   152  TYR152      0.0534
    133  CG        15.2060   -7.6380   -5.5510 C.ar  152  TYR152     -0.0201
    134  CD1       16.4550   -7.7300   -6.1680 C.ar  152  TYR152     -0.0009
    135  CD2       15.1170   -6.9060   -4.3670 C.ar  152  TYR152     -0.0009
    136  CE1       17.5880   -7.1420   -5.6050 C.ar  152  TYR152      0.0417
    137  CE2       16.2400   -6.2860   -3.8120 C.ar  152  TYR152      0.0417
    138  CZ        17.4740   -6.4070   -4.4360 C.ar  152  TYR152      0.1957
    139  OH        18.5950   -5.7900   -3.9210 O.3   152  TYR152     -0.2866
    140  N         19.4120  -13.2560   -9.5250 N.3   169  ASP169     -0.1239
    141  CA        20.5180  -12.6530  -10.2700 C.3   169  ASP169      0.1674
    142  C         21.3360  -13.7280  -11.0460 C.2   169  ASP169      0.2266
    143  O         22.1050  -13.3690  -11.9310 O.2   169  ASP169     -0.2867
    144  CB        21.4330  -11.8740   -9.3120 C.3   169  ASP169      0.1410
    145  CG        20.8770  -10.5640   -8.7250 C.2   169  ASP169      0.3668
    146  OD1       19.6600  -10.2540   -8.9520 O.co2 169  ASP169     -0.2456
    147  OD2       21.6420   -9.8600   -8.0150 O.co2 169  ASP169     -0.2456
    148  N         19.9610  -11.3590  -15.3950 N.3   200  VAL200     -0.1245
    149  CA        19.3270  -11.2370  -14.0800 C.3   200  VAL200      0.1561
    150  C         17.7950  -11.2160  -14.2280 C.2   200  VAL200      0.2260
    151  O         17.2820  -10.3670  -14.9500 O.2   200  VAL200     -0.2867
    152  CB        19.8320   -9.9350  -13.3960 C.3   200  VAL200      0.0252
    153  CG1       19.0130   -9.5880  -12.1600 C.3   200  VAL200      0.0019
    154  CG2       21.3170  -10.0180  -13.0660 C.3   200  VAL200      0.0019
    155  N         14.5040  -10.1320  -12.8140 N.3   202  GLU202     -0.1245
    156  CA        14.0910   -9.1190  -11.8530 C.3   202  GLU202      0.1567
    157  C         12.8160   -9.4720  -11.1250 C.2   202  GLU202      0.2260
    158  O         12.7070   -9.1420   -9.9430 O.2   202  GLU202     -0.2867
    159  CB        13.9280   -7.7570  -12.5180 C.3   202  GLU202      0.0388
    160  CG        15.2150   -7.1370  -13.0430 C.3   202  GLU202      0.1160
    161  CD        16.2580   -6.6840  -12.0350 C.2   202  GLU202      0.3649
    162  OE1       15.9890   -6.7000  -10.8110 O.co2 202  GLU202     -0.2457
    163  OE2       17.3610   -6.3090  -12.4860 O.co2 202  GLU202     -0.2457
    164  N         16.7800   -8.5630  -17.1270 N.3   219  ASP219     -0.1239
    165  CA        17.7130   -7.5550  -17.6350 C.3   219  ASP219      0.1674
    166  C         18.0150   -7.7640  -19.1150 C.2   219  ASP219      0.2266
    167  O         18.6490   -6.9130  -19.7270 O.2   219  ASP219     -0.2867
    168  CB        19.0170   -7.5890  -16.8360 C.3   219  ASP219      0.1410
    169  CG        18.9210   -6.9790  -15.4670 C.2   219  ASP219      0.3668
    170  OD1       17.7930   -6.6100  -15.0590 O.co2 219  ASP219     -0.2456
    171  OD2       19.9780   -6.8380  -14.8100 O.co2 219  ASP219     -0.2456
    172  N         16.4010   -2.8560  -19.1130 N.3   246  GLU246     -0.1245
    173  CA        16.0550   -3.8640  -18.1040 C.3   246  GLU246      0.1567
    174  C         14.5600   -3.8060  -17.7240 C.2   246  GLU246      0.2260
    175  O         13.9940   -2.7100  -17.6120 O.2   246  GLU246     -0.2867
    176  CB        16.9050   -3.6560  -16.8280 C.3   246  GLU246      0.0388
    177  CG        18.3950   -3.8730  -17.0200 C.3   246  GLU246      0.1160
    178  CD        19.2250   -2.6820  -17.4480 C.2   246  GLU246      0.3649
    179  OE1       18.6430   -1.6630  -17.8840 O.co2 246  GLU246     -0.2457
    180  OE2       20.4690   -2.7740  -17.3510 O.co2 246  GLU246     -0.2457
    181  N         12.0730   -4.6370  -14.7910 N.3   248  ASN248     -0.1240
    182  CA        12.1840   -4.8320  -13.3530 C.3   248  ASN248      0.1653
    183  C         10.9600   -5.3910  -12.6260 C.2   248  ASN248      0.2266
    184  O         11.1120   -5.9260  -11.5130 O.2   248  ASN248     -0.2867
    185  CB        12.5690   -3.5250  -12.7030 C.3   248  ASN248      0.1155
    186  CG        13.9030   -3.0090  -13.1700 C.2   248  ASN248      0.2627
    187  OD1       14.8940   -3.7410  -13.2670 O.2   248  ASN248     -0.2716
    188  ND2       13.9500   -1.7380  -13.4700 N.am  248  ASN248     -0.0877
    189  N         14.2890    5.0480  -13.5240 N.3   290  GLU290     -0.1245
    190  CA        14.0300    3.6150  -13.5510 C.3   290  GLU290      0.1567
    191  C         12.8280    3.1690  -12.7090 C.2   290  GLU290      0.2260
    192  O         12.7610    3.4530  -11.5060 O.2   290  GLU290     -0.2867
    193  CB        15.2900    2.9050  -13.0510 C.3   290  GLU290      0.0388
    194  CG        15.2960    1.3920  -13.2040 C.3   290  GLU290      0.1160
    195  CD        16.6880    0.7860  -13.2380 C.2   290  GLU290      0.3649
    196  OE1       17.6530    1.4770  -12.8330 O.co2 290  GLU290     -0.2457
    197  OE2       16.8150   -0.3830  -13.6740 O.co2 290  GLU290     -0.2457
    198  N         10.7680    0.3710  -10.7310 N.3   292  PHE292     -0.1241
    199  CA        11.0760   -0.8650  -10.0440 C.3   292  PHE292      0.1605
    200  C          9.8500   -1.6400   -9.5710 C.2   292  PHE292      0.2264
    201  O          9.9640   -2.8470   -9.3670 O.2   292  PHE292     -0.2867
    202  CB        12.0060   -0.5810   -8.8840 C.3   292  PHE292      0.0534
    203  CG        13.4330   -0.6400   -9.3350 C.ar  292  PHE292     -0.0203
    204  CD1       14.0170   -1.8550   -9.7030 C.ar  292  PHE292     -0.0042
    205  CD2       14.2070    0.5120   -9.3980 C.ar  292  PHE292     -0.0042
    206  CE1       15.3480   -1.9120  -10.1110 C.ar  292  PHE292     -0.0003
    207  CE2       15.5490    0.4460   -9.7830 C.ar  292  PHE292     -0.0003
    208  CZ        16.1080   -0.7600  -10.1420 C.ar  292  PHE292     -0.0000
    209  N         14.4110    7.2600   -2.9220 N.3   347  LYS347     -0.1245
    210  CA        14.0210    6.1880   -3.8280 C.3   347  LYS347      0.1561
    211  C         13.0260    5.2500   -3.2000 C.2   347  LYS347      0.2260
    212  O         13.2430    4.8460   -2.0680 O.2   347  LYS347     -0.2867
    213  CB        15.2930    5.4600   -4.1520 C.3   347  LYS347      0.0271
    214  CG        15.3080    4.6270   -5.3530 C.3   347  LYS347      0.0035
    215  CD        16.7640    4.3880   -5.6940 C.3   347  LYS347      0.0206
    216  CE        17.5860    5.6750   -5.7180 C.3   347  LYS347      0.1093
    217  NZ        19.0540    5.4380   -5.7010 N.3   347  LYS347     -0.1314
    218  N         11.3240    1.8820   -2.5550 N.3   349  SER349     -0.1217
    219  CA        11.7480    0.4820   -2.6250 C.3   349  SER349      0.1889
    220  C         10.5800   -0.4630   -2.9290 C.2   349  SER349      0.2288
    221  O         10.7380   -1.4200   -3.7000 O.2   349  SER349     -0.2866
    222  CB        12.4360    0.0730   -1.3250 C.3   349  SER349      0.2089
    223  OG        13.6100    0.8550   -1.1490 O.3   349  SER349     -0.2183
    224  N         14.0890    4.4650    0.6440 N.3   366  GLU366     -0.1245
    225  CA        15.4670    4.1670    1.0520 C.3   366  GLU366      0.1567
    226  C         15.9680    4.9910    2.2600 C.2   366  GLU366      0.2260
    227  O         16.9590    4.5980    2.8700 O.2   366  GLU366     -0.2867
    228  CB        16.4000    4.4060   -0.1240 C.3   366  GLU366      0.0388
    229  CG        16.3010    3.3570   -1.2090 C.3   366  GLU366      0.1160
    230  CD        17.4870    3.3350   -2.1460 C.2   366  GLU366      0.3649
    231  OE1       18.1610    4.3840   -2.2790 O.co2 366  GLU366     -0.2457
    232  OE2       17.7540    2.2590   -2.7310 O.co2 366  GLU366     -0.2457
    233  N         14.2770    5.4000    5.1840 N.3   368  ASN368     -0.1240
    234  CA        13.5810    4.8460    6.3730 C.3   368  ASN368      0.1653
    235  C         12.1140    5.3110    6.4950 C.2   368  ASN368      0.2266
    236  O         11.3800    4.8790    7.4030 O.2   368  ASN368     -0.2867
    237  CB        14.3510    5.1430    7.6960 C.3   368  ASN368      0.1155
    238  CG        15.8080    4.6830    7.6990 C.2   368  ASN368      0.2627
    239  OD1       16.5220    4.6880    6.6690 O.2   368  ASN368     -0.2716
    240  ND2       16.3060    4.3120    8.8680 N.am  368  ASN368     -0.0877
@<TRIPOS>BOND
     1   167   166    2
     2   166   165    1
     3   172   173    1
     4   173   174    1
     5   173   176    1
     6   179   178   ar
     7   174   175    2
     8   165   164    1
     9   165   168    1
    10   178   180   ar
    11   178   177    1
    12   177   176    1
    13   168   169    1
    14   169   170   ar
    15   169   171   ar
    16   148   149    1
    17   151   150    2
    18   181   182    1
    19   150   149    1
    20   149   152    1
    21   197   195   ar
    22   190   189    1
    23   190   193    1
    24   190   191    1
    25   188   186   am
    26   152   154    1
    27   152   153    1
    28   182   185    1
    29   182   183    1
    30   187   186    2
    31   195   194    1
    32   195   196   ar
    33   194   193    1
    34   186   185    1
    35   160   159    1
    36   160   161    1
    37   155   156    1
    38   191   192    2
    39   183   184    2
    40   159   156    1
    41   163   161   ar
    42   161   162   ar
    43   143   142    2
    44   156   157    1
    45   157   158    2
    46   142   141    1
    47   198   199    1
    48   141   140    1
    49   141   144    1
    50   208   206   ar
    51   208   207   ar
    52   206   204   ar
    53   199   200    1
    54   199   202    1
    55   207   205   ar
    56   204   203   ar
    57   200   201    2
    58   205   203   ar
    59   203   202    1
    60   144   145    1
    61   146   145   ar
    62   145   147   ar
    63   122   121    2
    64   110   109    1
    65   134   136   ar
    66   134   133   ar
    67   128   129    1
    68   132   129    1
    69   132   133    1
    70   130   129    1
    71   130   131    2
    72   216   217    1
    73   216   215    1
    74   215   214    1
    75   136   138   ar
    76   133   135   ar
    77   121   120    1
    78   111   109    1
    79   214   213    1
    80   109   108    2
    81   119   120    1
    82   138   139    1
    83   138   137   ar
    84   135   137   ar
    85   120   123    1
    86   124   123    1
    87   124   125    1
    88   213   210    1
    89   108   107    1
    90   210   211    1
    91   210   209    1
    92   107   106    1
    93   221   220    2
    94   127   125   ar
    95   125   126   ar
    96   211   212    2
    97   220   219    1
    98   232   230   ar
    99   219   218    1
   100   219   222    1
   101   106   105    1
   102   231   230   ar
   103   230   229    1
   104   100    98   am
   105   105   102    1
   106   222   223    1
   107    96    95    2
   108    97    98    1
   109    97    94    1
   110   229   228    1
   111    98    99    2
   112   115   114    2
   113    47    46    2
   114    95    94    1
   115    95   101   am
   116   102   101    1
   117   102   103    1
   118    94    93    1
   119   114   113    1
   120    51    49    1
   121   228   225    1
   122   113   112    1
   123   113   116    1
   124    46    45    1
   125   103   104    2
   126   224   225    1
   127    48    49    1
   128    48    45    1
   129    49    50    1
   130    45    44    1
   131   225   226    1
   132   112   118    1
   133   116   117    1
   134    92    90   ar
   135    60    58   ar
   136    60    61   ar
   137   226   227    2
   138   117   118    1
   139    58    57   ar
   140    89    90    1
   141    89    88    1
   142    90    91   ar
   143    61    59   ar
   144    87    86    2
   145    57    59   ar
   146    57    56    1
   147    88    85    1
   148    86    85    1
   149    56    53    1
   150    85    84    1
   151    41    42    1
   152    41    38    1
   153    42    43    1
   154   233   234    1
   155    39    40    2
   156    39    38    1
   157    53    52    1
   158    53    54    1
   159    38    37    1
   160   234   235    1
   161   234   237    1
   162   235   236    2
   163    54    55    2
   164    54    62   am
   165   239   238    2
   166    65    64    2
   167    43    37    1
   168    37    25   am
   169    62    63    1
   170    64    69   am
   171    64    63    1
   172    72    71    2
   173    12    11    1
   174   237   238    1
   175   238   240   am
   176    70    69    1
   177    70    73    1
   178    70    71    1
   179    63    66    1
   180    25    26    2
   181    25    24    1
   182    73    74    1
   183    11    10    1
   184    11    13    1
   185    67    66    1
   186    66    68    1
   187    24    27    1
   188    24    23    1
   189    27    28    1
   190    10     7    1
   191    33    35   ar
   192    33    30   ar
   193    35    36   ar
   194     6     7    1
   195     6     3   am
   196     2     1    1
   197     2     5    1
   198     2     3    1
   199    28    30   ar
   200    28    29   ar
   201    23    16   am
   202    30    32   ar
   203     7     8    1
   204     9     8    2
   205     3     4    2
   206     8    14   am
   207    36    34   ar
   208    78    77    2
   209    17    16    2
   210    16    15    1
   211    75    76    1
   212    29    31   ar
   213    32    34   ar
   214    32    31   ar
   215    14    15    1
   216    77    76    1
   217    15    18    1
   218    76    79    1
   219    79    80    1
   220    18    19    1
   221    80    81    1
   222    19    20    1
   223    81    83   ar
   224    81    82   ar
   225    20    21   ar
   226    20    22   ar
