@<TRIPOS>MOLECULE
tmp/2ybtE00.pdb
 181 177 0 0 0
SMALL
GASTEIGER

@<TRIPOS>ATOM
      1  N        -13.2060  -27.3320 -128.6940 N.3     7  TYR7       -0.1241
      2  CA       -12.1330  -27.8990 -129.4740 C.3     7  TYR7        0.1605
      3  C        -12.2040  -29.4640 -129.4630 C.2     7  TYR7        0.2264
      4  O        -12.3850  -30.0700 -128.3970 O.2     7  TYR7       -0.2867
      5  CB       -10.7750  -27.4630 -128.9210 C.3     7  TYR7        0.0534
      6  CG       -10.3210  -26.0760 -129.3490 C.ar    7  TYR7       -0.0201
      7  CD1      -10.6950  -24.9480 -128.6260 C.ar    7  TYR7       -0.0009
      8  CD2       -9.5330  -25.8880 -130.5120 C.ar    7  TYR7       -0.0009
      9  CE1      -10.2910  -23.6580 -129.0220 C.ar    7  TYR7        0.0417
     10  CE2       -9.1250  -24.6150 -130.9040 C.ar    7  TYR7        0.0417
     11  CZ        -9.5060  -23.4880 -130.1650 C.ar    7  TYR7        0.1957
     12  OH        -9.1180  -22.1730 -130.5680 O.3     7  TYR7       -0.2866
     13  N         -7.6730  -34.3770 -133.0610 N.3    10  ASN10      -0.1225
     14  CA        -7.6350  -35.5130 -133.9930 C.3    10  ASN10       0.1785
     15  C         -6.6910  -36.6190 -133.6220 C.2    10  ASN10       0.2597
     16  O         -6.5420  -37.5900 -134.3940 O.2    10  ASN10      -0.2718
     17  CB        -7.4190  -35.0570 -135.4470 C.3    10  ASN10       0.1169
     18  CG        -6.0090  -34.5150 -135.7120 C.2    10  ASN10       0.2627
     19  OD1       -5.1470  -34.4710 -134.8400 O.2    10  ASN10      -0.2716
     20  ND2       -5.7780  -34.1140 -136.9530 N.am   10  ASN10      -0.0877
     21  N         -6.0710  -36.5280 -132.4520 N.am   11  TRP11      -0.1976
     22  CA        -5.3560  -37.6760 -131.9130 C.3    11  TRP11       0.1640
     23  C         -6.1420  -38.4000 -130.7670 C.2    11  TRP11       0.2290
     24  O         -5.6770  -39.4040 -130.2240 O.2    11  TRP11      -0.2864
     25  CB        -3.9700  -37.2320 -131.4220 C.3    11  TRP11       0.0576
     26  CG        -4.0080  -36.1810 -130.3420 C.ar   11  TRP11       0.0006
     27  CD1       -3.9910  -36.3890 -128.9800 C.ar   11  TRP11       0.0946
     28  CD2       -4.0520  -34.7540 -130.5290 C.ar   11  TRP11       0.0152
     29  NE1       -4.0400  -35.1670 -128.3250 N.ar   11  TRP11      -0.2442
     30  CE2       -4.0630  -34.1590 -129.2470 C.ar   11  TRP11       0.0810
     31  CE3       -4.0730  -33.9140 -131.6650 C.ar   11  TRP11       0.0012
     32  CZ2       -4.0800  -32.7560 -129.0630 C.ar   11  TRP11       0.0191
     33  CZ3       -4.1070  -32.4990 -131.4740 C.ar   11  TRP11       0.0001
     34  CH2       -4.0920  -31.9550 -130.1830 C.ar   11  TRP11       0.0015
     35  N         -5.7780  -30.5440 -135.4620 N.3    38  PHE38      -0.1241
     36  CA        -5.2580  -29.3540 -136.1600 C.3    38  PHE38       0.1605
     37  C         -4.9830  -29.6600 -137.6440 C.2    38  PHE38       0.2264
     38  O         -4.6050  -30.7850 -137.9840 O.2    38  PHE38      -0.2867
     39  CB        -3.8700  -29.0170 -135.6010 C.3    38  PHE38       0.0534
     40  CG        -3.8780  -28.4770 -134.1780 C.ar   38  PHE38      -0.0203
     41  CD1       -4.4660  -27.2590 -133.8880 C.ar   38  PHE38      -0.0042
     42  CD2       -3.2210  -29.1730 -133.1580 C.ar   38  PHE38      -0.0042
     43  CE1       -4.4590  -26.7690 -132.5920 C.ar   38  PHE38      -0.0003
     44  CE2       -3.1760  -28.6960 -131.8860 C.ar   38  PHE38      -0.0003
     45  CZ        -3.8310  -27.4850 -131.5810 C.ar   38  PHE38      -0.0000
     46  N         -2.9290  -33.4980 -141.2430 N.3    49  ILE49      -0.1231
     47  CA        -1.7730  -34.0440 -140.5170 C.3    49  ILE49       0.1692
     48  C         -1.9300  -35.5110 -140.1200 C.2    49  ILE49       0.2591
     49  O         -0.9120  -36.1690 -139.8150 O.2    49  ILE49      -0.2718
     50  CB        -1.3200  -33.2200 -139.2480 C.3    49  ILE49       0.0266
     51  CG1       -2.3180  -33.4010 -138.0840 C.3    49  ILE49       0.0019
     52  CG2       -1.1020  -31.7440 -139.5690 C.3    49  ILE49       0.0020
     53  CD1       -1.9360  -32.6570 -136.7000 C.3    49  ILE49       0.0001
     54  N         -3.1800  -35.9980 -140.0470 N.am   50  GLU50      -0.1979
     55  CA        -3.4630  -37.4460 -139.7840 C.3    50  GLU50       0.1602
     56  C         -3.9360  -38.0960 -141.0720 C.2    50  GLU50       0.2287
     57  O         -4.7360  -37.5170 -141.8000 O.2    50  GLU50      -0.2864
     58  CB        -4.5680  -37.6660 -138.7390 C.3    50  GLU50       0.0415
     59  CG        -4.2070  -37.3260 -137.3300 C.3    50  GLU50       0.1163
     60  CD        -3.2240  -38.2840 -136.6840 C.2    50  GLU50       0.3649
     61  OE1       -3.0180  -39.4140 -137.1750 O.co2  50  GLU50      -0.2457
     62  OE2       -2.6900  -37.9070 -135.6290 O.co2  50  GLU50      -0.2457
     63  N         -0.9930  -24.8240 -133.0380 N.3    78  GLY78      -0.1210
     64  CA        -0.8970  -25.5820 -131.8010 C.3    78  GLY78       0.1956
     65  C          0.5330  -25.5980 -131.2970 C.2    78  GLY78       0.2612
     66  O          1.4240  -25.2410 -132.0350 O.2    78  GLY78      -0.2717
     67  N          0.7590  -26.0350 -130.0740 N.am   79  TRP79      -0.1962
     68  CA         2.0580  -25.9700 -129.4550 C.3    79  TRP79       0.1771
     69  C          3.1550  -26.7170 -130.2000 C.2    79  TRP79       0.2619
     70  O          4.2040  -26.1170 -130.5180 O.2    79  TRP79      -0.2715
     71  CB         2.0070  -26.4600 -128.0100 C.3    79  TRP79       0.0590
     72  CG         3.3760  -26.4320 -127.3600 C.ar   79  TRP79       0.0006
     73  CD1        4.2950  -27.4850 -127.2630 C.ar   79  TRP79       0.0946
     74  CD2        3.9970  -25.3100 -126.7280 C.ar   79  TRP79       0.0152
     75  NE1        5.4200  -27.0600 -126.6270 N.ar   79  TRP79      -0.2442
     76  CE2        5.2680  -25.7380 -126.2750 C.ar   79  TRP79       0.0810
     77  CE3        3.6070  -23.9760 -126.5100 C.ar   79  TRP79       0.0012
     78  CZ2        6.1590  -24.8720 -125.6150 C.ar   79  TRP79       0.0191
     79  CZ3        4.4810  -23.1170 -125.8340 C.ar   79  TRP79       0.0001
     80  CH2        5.7480  -23.5670 -125.4080 C.ar   79  TRP79       0.0015
     81  N          2.9120  -28.0060 -130.4540 N.am   80  ASN80      -0.1972
     82  CA         3.8120  -28.8910 -131.1970 C.3    80  ASN80       0.1688
     83  C          4.2480  -28.3250 -132.5520 C.2    80  ASN80       0.2292
     84  O          5.3930  -28.4540 -132.9300 O.2    80  ASN80      -0.2864
     85  CB         3.1280  -30.2480 -131.4330 C.3    80  ASN80       0.1181
     86  CG         3.0870  -31.1110 -130.1870 C.2    80  ASN80       0.2629
     87  OD1        2.7880  -32.3070 -130.2770 O.2    80  ASN80      -0.2716
     88  ND2        3.3880  -30.5330 -129.0230 N.am   80  ASN80      -0.0877
     89  N         -3.7910  -20.6870 -134.5220 N.3   118  ASP118     -0.1239
     90  CA        -3.2800  -21.1590 -133.2410 C.3   118  ASP118      0.1674
     91  C         -1.8050  -21.1320 -133.2430 C.2   118  ASP118      0.2266
     92  O         -1.1380  -22.1250 -132.8750 O.2   118  ASP118     -0.2867
     93  CB        -3.6820  -22.6000 -132.9760 C.3   118  ASP118      0.1410
     94  CG        -5.1030  -22.7430 -132.5420 C.2   118  ASP118      0.3668
     95  OD1       -6.0310  -22.1020 -133.1410 O.co2 118  ASP118     -0.2456
     96  OD2       -5.2890  -23.5500 -131.5890 O.co2 118  ASP118     -0.2456
     97  N          1.5220  -20.2690 -131.7680 N.3   120  GLU120     -0.1245
     98  CA         2.0240  -20.1080 -130.4070 C.3   120  GLU120      0.1567
     99  C          3.5190  -19.8960 -130.4110 C.2   120  GLU120      0.2260
    100  O          4.2330  -20.8750 -130.4000 O.2   120  GLU120     -0.2867
    101  CB         1.6890  -21.3390 -129.5270 C.3   120  GLU120      0.0388
    102  CG         0.2180  -21.6620 -129.5970 C.3   120  GLU120      0.1160
    103  CD        -0.2980  -22.6720 -128.5580 C.2   120  GLU120      0.3649
    104  OE1        0.4360  -23.2490 -127.7310 O.co2 120  GLU120     -0.2457
    105  OE2       -1.5120  -22.9040 -128.5960 O.co2 120  GLU120     -0.2457
    106  N         -6.7150  -18.3450 -131.3730 N.3   163  ALA163     -0.1301
    107  CA        -6.5280  -18.6960 -129.9840 C.3   163  ALA163      0.1247
    108  C         -5.2960  -17.8910 -129.5490 C.3   163  ALA163      0.2009
    109  O         -4.1820  -17.9930 -130.2060 O.3   163  ALA163     -0.2188
    110  CB        -6.2310  -20.1900 -129.8500 C.3   163  ALA163      0.0233
    111  N         -6.5790  -18.3450 -124.1820 N.3   190  MET190     -0.1245
    112  CA        -6.1930  -19.5880 -123.5390 C.3   190  MET190      0.1570
    113  C         -5.9400  -19.4620 -122.0630 C.2   190  MET190      0.2261
    114  O         -4.7950  -19.6800 -121.5780 O.2   190  MET190     -0.2867
    115  CB        -5.0100  -20.2340 -124.2750 C.3   190  MET190      0.0387
    116  CG        -5.3860  -20.5940 -125.7580 C.3   190  MET190      0.0595
    117  SD        -4.0470  -21.3600 -126.6570 S.3   190  MET190     -0.1393
    118  CE        -3.0220  -19.9870 -127.1090 C.3   190  MET190      0.0692
    119  N         -5.8370  -21.0710 -119.3830 N.3   192  TYR192     -0.1227
    120  CA        -5.5560  -22.2850 -118.5920 C.3   192  TYR192      0.1736
    121  C         -4.0700  -22.5420 -118.7800 C.2   192  TYR192      0.2595
    122  O         -3.3910  -21.7480 -119.4410 O.2   192  TYR192     -0.2718
    123  CB        -6.4190  -23.4940 -119.0400 C.3   192  TYR192      0.0548
    124  CG        -6.6580  -23.5430 -120.5460 C.ar  192  TYR192     -0.0200
    125  CD1       -5.6150  -23.7410 -121.4400 C.ar  192  TYR192     -0.0009
    126  CD2       -7.9110  -23.3120 -121.0500 C.ar  192  TYR192     -0.0009
    127  CE1       -5.8460  -23.7620 -122.8130 C.ar  192  TYR192      0.0417
    128  CE2       -8.1650  -23.2850 -122.3990 C.ar  192  TYR192      0.0417
    129  CZ        -7.1390  -23.5330 -123.2740 C.ar  192  TYR192      0.1957
    130  OH        -7.4520  -23.5440 -124.6200 O.3   192  TYR192     -0.2866
    131  N         -3.5690  -23.6460 -118.2480 N.am  193  ASP193     -0.1974
    132  CA        -2.1190  -23.8540 -118.0600 C.3   193  ASP193      0.1709
    133  C         -1.4790  -22.6860 -117.3120 C.2   193  ASP193      0.2293
    134  O         -0.3520  -22.2940 -117.6250 O.2   193  ASP193     -0.2864
    135  CB        -1.4260  -24.1060 -119.3980 C.3   193  ASP193      0.1436
    136  CG        -2.0920  -25.2670 -120.1820 C.2   193  ASP193      0.3671
    137  OD1       -2.5370  -26.2670 -119.5730 O.co2 193  ASP193     -0.2456
    138  OD2       -2.2150  -25.1600 -121.3890 O.co2 193  ASP193     -0.2456
    139  N         -9.5790  -30.4500 -118.0930 N.3   247  TYR247     -0.1241
    140  CA        -8.5180  -31.2930 -117.5900 C.3   247  TYR247      0.1605
    141  C         -7.8660  -30.5490 -116.4220 C.2   247  TYR247      0.2264
    142  O         -8.1270  -29.3660 -116.2470 O.2   247  TYR247     -0.2867
    143  CB        -7.5110  -31.5850 -118.7140 C.3   247  TYR247      0.0534
    144  CG        -6.8210  -30.3170 -119.2340 C.ar  247  TYR247     -0.0201
    145  CD1       -7.4030  -29.5360 -120.2570 C.ar  247  TYR247     -0.0009
    146  CD2       -5.6170  -29.8990 -118.7020 C.ar  247  TYR247     -0.0009
    147  CE1       -6.7660  -28.3950 -120.7270 C.ar  247  TYR247      0.0417
    148  CE2       -4.9890  -28.7450 -119.1440 C.ar  247  TYR247      0.0417
    149  CZ        -5.5810  -28.0070 -120.1420 C.ar  247  TYR247      0.1957
    150  OH        -4.9320  -26.9050 -120.5930 O.3   247  TYR247     -0.2866
    151  N         -0.8460  -38.3670 -120.6940 N.3   277  GLU277     -0.1245
    152  CA        -0.0610  -37.1520 -120.7930 C.3   277  GLU277      0.1567
    153  C          0.4400  -36.8710 -119.3710 C.2   277  GLU277      0.2260
    154  O         -0.3130  -36.7790 -118.3920 O.2   277  GLU277     -0.2867
    155  CB        -0.8970  -36.0060 -121.3760 C.3   277  GLU277      0.0388
    156  CG        -0.1140  -34.6980 -121.6260 C.3   277  GLU277      0.1160
    157  CD         1.0020  -34.8600 -122.6890 C.2   277  GLU277      0.3649
    158  OE1        0.7070  -35.4320 -123.7790 O.co2 277  GLU277     -0.2457
    159  OE2        2.1700  -34.4410 -122.4040 O.co2 277  GLU277     -0.2457
    160  N         -0.8590  -34.0650 -116.8210 N.3   280  ILE280     -0.1245
    161  CA        -2.2610  -33.7470 -117.1740 C.3   280  ILE280      0.1561
    162  C         -3.1690  -34.9520 -116.9310 C.2   280  ILE280      0.2260
    163  O         -2.8380  -36.1040 -117.2950 O.2   280  ILE280     -0.2867
    164  CB        -2.3190  -33.3020 -118.6590 C.3   280  ILE280      0.0252
    165  CG1       -1.5780  -31.9510 -118.7660 C.3   280  ILE280      0.0019
    166  CG2       -3.7480  -33.2070 -119.1600 C.3   280  ILE280      0.0019
    167  CD1       -1.5920  -31.3010 -120.0950 C.3   280  ILE280      0.0001
    168  N        -11.2420  -26.4210 -124.0690 N.3   340  TRP340     -0.1241
    169  CA       -10.2550  -27.3790 -124.5390 C.3   340  TRP340      0.1605
    170  C        -10.2450  -28.5610 -123.5370 C.2   340  TRP340      0.2264
    171  O         -9.8130  -28.3630 -122.3670 O.2   340  TRP340     -0.2867
    172  CB        -8.8910  -26.7710 -124.5940 C.3   340  TRP340      0.0550
    173  CG        -7.8890  -27.7860 -125.0230 C.ar  340  TRP340      0.0003
    174  CD1       -7.3430  -28.8320 -124.2560 C.ar  340  TRP340      0.0946
    175  CD2       -7.2870  -27.8710 -126.3040 C.ar  340  TRP340      0.0152
    176  NE1       -6.4610  -29.5390 -125.0120 N.ar  340  TRP340     -0.2442
    177  CE2       -6.4190  -28.9860 -126.2810 C.ar  340  TRP340      0.0810
    178  CE3       -7.4340  -27.1350 -127.4970 C.ar  340  TRP340      0.0012
    179  CZ2       -5.6590  -29.3560 -127.3890 C.ar  340  TRP340      0.0191
    180  CZ3       -6.6820  -27.5100 -128.6370 C.ar  340  TRP340      0.0001
    181  CH2       -5.7920  -28.6170 -128.5590 C.ar  340  TRP340      0.0015
@<TRIPOS>BOND
     1    57    56    2
     2    46    47    1
     3    56    55    1
     4    47    48    1
     5    47    50    1
     6    48    54   am
     7    48    49    2
     8    54    55    1
     9    55    58    1
    10    52    50    1
    11    50    51    1
    12    58    59    1
    13    51    53    1
    14    38    37    2
    15    37    36    1
    16    59    60    1
    17    61    60   ar
    18    20    18   am
    19    60    62   ar
    20    36    39    1
    21    36    35    1
    22    18    17    1
    23    18    19    2
    24    39    40    1
    25    17    14    1
    26    89    90    1
    27    16    15    2
    28    40    41   ar
    29    40    42   ar
    30    14    15    1
    31    14    13    1
    32    41    43   ar
    33    15    21   am
    34    91    90    1
    35    91    92    2
    36    90    93    1
    37    42    44   ar
    38    95    94   ar
    39    63    64    1
    40    93    94    1
    41    84    83    2
    42    43    45   ar
    43    83    82    1
    44    94    96   ar
    45    21    22    1
    46    66    65    2
    47    22    25    1
    48    22    23    1
    49    44    45   ar
    50    64    65    1
    51    97    98    1
    52    31    33   ar
    53    31    28   ar
    54    33    34   ar
    55    85    82    1
    56    85    86    1
    57    25    26    1
    58   106   107    1
    59    65    67   am
    60    82    81    1
    61    10     8   ar
    62    10    11   ar
    63    23    24    2
    64    12    11    1
    65    28    26   ar
    66    28    30   ar
    67    70    69    2
    68     8     6   ar
    69    81    69   am
    70    99    98    1
    71    99   100    2
    72    98   101    1
    73    26    27   ar
    74    87    86    2
    75   109   108    1
    76    69    68    1
    77    86    88   am
    78    34    32   ar
    79    11     9   ar
    80    67    68    1
    81   107   110    1
    82   107   108    1
    83   102   101    1
    84   102   103    1
    85     2     3    1
    86     2     5    1
    87     2     1    1
    88     3     4    2
    89    68    71    1
    90     6     5    1
    91     6     7   ar
    92    30    32   ar
    93    30    29   ar
    94     9     7   ar
    95    27    29   ar
    96   180   181   ar
    97   180   178   ar
    98   105   103   ar
    99   181   179   ar
   100   103   104   ar
   101    71    72    1
   102   178   175   ar
   103   179   177   ar
   104    72    73   ar
   105    72    74   ar
   106    73    75   ar
   107   118   117    1
   108    74    77   ar
   109    74    76   ar
   110   117   116    1
   111    75    76   ar
   112    77    79   ar
   113   175   177   ar
   114   175   173   ar
   115   177   176   ar
   116    76    78   ar
   117    79    80   ar
   118   116   115    1
   119    78    80   ar
   120   173   172    1
   121   173   174   ar
   122   176   174   ar
   123   130   129    1
   124   172   169    1
   125   169   168    1
   126   169   170    1
   127   115   112    1
   128   111   112    1
   129   158   157   ar
   130   112   113    1
   131   170   171    2
   132   129   127   ar
   133   129   128   ar
   134   127   125   ar
   135   157   159   ar
   136   157   156    1
   137   128   126   ar
   138   113   114    2
   139   156   155    1
   140   125   124   ar
   141   138   136   ar
   142   155   152    1
   143   126   124   ar
   144   152   151    1
   145   152   153    1
   146   147   145   ar
   147   147   149   ar
   148   150   149    1
   149   124   123    1
   150   145   144   ar
   151   136   137   ar
   152   136   135    1
   153   149   148   ar
   154   167   165    1
   155   122   121    2
   156   135   132    1
   157   119   120    1
   158   153   154    2
   159   144   143    1
   160   144   146   ar
   161   166   164    1
   162   148   146   ar
   163   123   120    1
   164   121   120    1
   165   121   131   am
   166   165   164    1
   167   143   140    1
   168   164   161    1
   169   131   132    1
   170   139   140    1
   171   132   133    1
   172   134   133    2
   173   140   141    1
   174   163   162    2
   175   161   162    1
   176   161   160    1
   177   141   142    2
