@<TRIPOS>MOLECULE
tmp/2yc3A00.pdb
 142 133 0 0 0
SMALL
GASTEIGER

@<TRIPOS>ATOM
      1  N         20.2140   66.4310  -18.1800 N.3    76  ARG76      -0.1231
      2  CA        18.8580   65.9480  -17.9820 C.3    76  ARG76       0.1694
      3  C         18.8000   64.7350  -17.0550 C.2    76  ARG76       0.2591
      4  O         17.9730   64.6210  -16.1660 O.2    76  ARG76      -0.2718
      5  CB        18.2450   65.6700  -19.3380 C.3    76  ARG76       0.0321
      6  CG        16.7930   65.1400  -19.3390 C.3    76  ARG76       0.0489
      7  CD        16.2260   64.9800  -20.6660 C.3    76  ARG76       0.2205
      8  NE        14.8830   64.4320  -20.6560 N.pl3  76  ARG76      -0.0865
      9  CZ        14.5660   63.1560  -20.5010 C.cat  76  ARG76       0.5346
     10  NH1       15.4810   62.2440  -20.2320 N.pl3  76  ARG76       0.1354
     11  NH2       13.2970   62.8150  -20.5090 N.pl3  76  ARG76       0.1354
     12  N         19.6910   63.7490  -17.2990 N.am   77  GLN77      -0.1979
     13  CA        19.7390   62.5780  -16.4400 C.3    77  GLN77       0.1601
     14  C         19.9900   62.8050  -14.9790 C.2    77  GLN77       0.2287
     15  O         19.5410   62.0880  -14.0790 O.2    77  GLN77      -0.2864
     16  CB        20.6630   61.4840  -16.9960 C.3    77  GLN77       0.0394
     17  CG        22.1040   61.8120  -16.8960 C.3    77  GLN77       0.0908
     18  CD        22.6200   62.5200  -18.0630 C.2    77  GLN77       0.2608
     19  OE1       21.8830   63.1170  -18.8560 O.2    77  GLN77      -0.2717
     20  NE2       23.9710   62.4060  -18.2470 N.am   77  GLN77      -0.0878
     21  N         16.7290   63.9550  -13.6430 N.3    80  VAL80      -0.1245
     22  CA        15.9630   62.7510  -13.3550 C.3    80  VAL80       0.1561
     23  C         16.3520   62.1750  -12.0240 C.2    80  VAL80       0.2260
     24  O         15.4950   61.8040  -11.2150 O.2    80  VAL80      -0.2867
     25  CB        16.0720   61.7250  -14.4970 C.3    80  VAL80       0.0252
     26  CG1       15.4550   60.3890  -14.1320 C.3    80  VAL80       0.0019
     27  CG2       15.4730   62.2490  -15.8260 C.3    80  VAL80       0.0019
     28  N          8.4460   59.9910  -15.9640 N.3    96  ILE96      -0.1245
     29  CA         9.3230   61.1240  -16.2390 C.3    96  ILE96       0.1561
     30  C          8.8160   61.8640  -17.4080 C.2    96  ILE96       0.2260
     31  O          8.6320   61.2460  -18.4680 O.2    96  ILE96      -0.2867
     32  CB        10.7290   60.6110  -16.4910 C.3    96  ILE96       0.0252
     33  CG1       11.2310   59.8580  -15.2560 C.3    96  ILE96       0.0019
     34  CG2       11.6370   61.7790  -16.8060 C.3    96  ILE96       0.0019
     35  CD1       12.0990   58.6700  -15.5420 C.3    96  ILE96       0.0001
     36  N          9.3560   49.0840  -18.1970 N.3   121  ALA121     -0.1231
     37  CA         9.8980   50.2960  -18.7880 C.3   121  ALA121      0.1694
     38  C          9.1640   50.5200  -20.0760 C.2   121  ALA121      0.2592
     39  O          9.0030   49.5800  -20.8680 O.2   121  ALA121     -0.2718
     40  CB        11.3550   50.2420  -19.0520 C.3   121  ALA121      0.0304
     41  N          8.6550   51.7060  -20.3000 N.am  122  ALA122     -0.1966
     42  CA         7.9210   52.0540  -21.5330 C.3   122  ALA122      0.1728
     43  C          8.1380   53.5170  -21.7870 C.2   122  ALA122      0.2616
     44  O          8.3330   54.3340  -20.8860 O.2   122  ALA122     -0.2715
     45  CB         6.4590   51.7370  -21.4320 C.3   122  ALA122      0.0334
     46  N          8.1290   53.8960  -23.0550 N.am  123  VAL123     -0.1977
     47  CA         8.2480   55.2920  -23.4860 C.3   123  VAL123      0.1596
     48  C          7.2910   55.5320  -24.5920 C.2   123  VAL123      0.2287
     49  O          7.1000   54.6800  -25.4800 O.2   123  VAL123     -0.2864
     50  CB         9.6820   55.6060  -23.8640 C.3   123  VAL123      0.0276
     51  CG1       10.2380   54.6050  -24.9430 C.3   123  VAL123      0.0022
     52  CG2        9.8660   57.0910  -24.3140 C.3   123  VAL123      0.0022
     53  N          8.4150   58.8600  -20.0900 N.3   157  GLN157     -0.1231
     54  CA         9.2100   57.6270  -19.9150 C.3   157  GLN157      0.1698
     55  C          8.8280   57.0380  -18.5860 C.2   157  GLN157      0.2592
     56  O          8.9440   57.7370  -17.5670 O.2   157  GLN157     -0.2718
     57  CB        10.7280   57.9710  -19.9110 C.3   157  GLN157      0.0381
     58  CG        11.1750   58.5530  -21.2550 C.3   157  GLN157      0.0905
     59  CD        12.5830   59.0650  -21.2720 C.2   157  GLN157      0.2608
     60  OE1       12.7740   60.2500  -21.5170 O.2   157  GLN157     -0.2717
     61  NE2       13.5110   58.2130  -21.2980 N.am  157  GLN157     -0.0878
     62  N          8.2990   55.8360  -18.5730 N.am  158  VAL158     -0.1966
     63  CA         7.6970   55.2260  -17.3900 C.3   158  VAL158      0.1727
     64  C          8.4760   54.0590  -17.0110 C.2   158  VAL158      0.2616
     65  O          8.7720   53.1950  -17.8630 O.2   158  VAL158     -0.2715
     66  CB         6.2610   54.8440  -17.6900 C.3   158  VAL158      0.0290
     67  CG1        5.6370   54.0830  -16.4680 C.3   158  VAL158      0.0023
     68  CG2        5.4090   56.0780  -18.0830 C.3   158  VAL158      0.0023
     69  N          8.8760   53.8920  -15.7450 N.am  159  ILE159     -0.1977
     70  CA         9.7710   52.8450  -15.3690 C.3   159  ILE159      0.1596
     71  C          9.5500   52.4740  -13.8810 C.2   159  ILE159      0.2287
     72  O          9.2150   53.3510  -13.0490 O.2   159  ILE159     -0.2864
     73  CB        11.2230   53.1970  -15.6380 C.3   159  ILE159      0.0276
     74  CG1       12.1850   52.0590  -15.4320 C.3   159  ILE159      0.0022
     75  CG2       11.6290   54.5100  -14.9980 C.3   159  ILE159      0.0022
     76  CD1       13.5150   52.2570  -16.1180 C.3   159  ILE159      0.0001
     77  N         15.1460   51.7830  -12.6630 N.3   164  LEU164     -0.1245
     78  CA        15.8560   53.0250  -12.9410 C.3   164  LEU164      0.1561
     79  C         17.0880   53.1940  -12.0780 C.2   164  LEU164      0.2260
     80  O         18.1230   53.5800  -12.5210 O.2   164  LEU164     -0.2867
     81  CB        14.8990   54.2000  -12.7860 C.3   164  LEU164      0.0270
     82  CG        15.4630   55.5440  -13.1970 C.3   164  LEU164      0.0019
     83  CD1       16.0760   55.5850  -14.5850 C.3   164  LEU164      0.0001
     84  CD2       14.3420   56.6130  -13.0530 C.3   164  LEU164      0.0001
     85  N         26.2500   58.6700  -21.3820 N.3   178  VAL178     -0.1245
     86  CA        24.8260   58.8420  -21.5590 C.3   178  VAL178      0.1561
     87  C         24.6960   59.8470  -22.6380 C.2   178  VAL178      0.2260
     88  O         25.1400   61.0360  -22.4500 O.2   178  VAL178     -0.2867
     89  CB        24.1670   59.3000  -20.2090 C.3   178  VAL178      0.0252
     90  CG1       22.6940   59.7050  -20.4420 C.3   178  VAL178      0.0019
     91  CG2       24.3100   58.2120  -19.2020 C.3   178  VAL178      0.0019
     92  N         21.7920   59.8680  -25.2160 N.3   180  ASP180     -0.1225
     93  CA        20.4480   60.2280  -25.6300 C.3   180  ASP180      0.1805
     94  C         19.4910   59.8500  -24.4850 C.2   180  ASP180      0.2598
     95  O         19.9160   59.4070  -23.4210 O.2   180  ASP180     -0.2718
     96  CB        20.0720   59.6070  -26.9500 C.3   180  ASP180      0.1424
     97  CG        20.0700   58.0920  -26.9170 C.2   180  ASP180      0.3668
     98  OD1       19.5620   57.5020  -25.9600 O.co2 180  ASP180     -0.2456
     99  OD2       20.6280   57.4270  -27.8330 O.co2 180  ASP180     -0.2456
    100  N         18.2050   60.0810  -24.6750 N.am  181  ASP181     -0.1960
    101  CA        17.3110   60.0320  -23.5020 C.3   181  ASP181      0.1840
    102  C         16.8600   58.6230  -23.0650 C.2   181  ASP181      0.2622
    103  O         16.1280   58.4720  -22.1380 O.2   181  ASP181     -0.2715
    104  CB        16.1020   60.9330  -23.8050 C.3   181  ASP181      0.1450
    105  CG        16.4360   62.4220  -23.8210 C.2   181  ASP181      0.3671
    106  OD1       17.4530   62.7800  -23.1970 O.co2 181  ASP181     -0.2456
    107  OD2       15.5980   63.1390  -24.3740 O.co2 181  ASP181     -0.2456
    108  N         17.3710   57.5960  -23.7380 N.am  182  VAL182     -0.1963
    109  CA        17.1870   56.2380  -23.3050 C.3   182  VAL182      0.1727
    110  C         18.4950   55.4760  -23.0610 C.2   182  VAL182      0.2617
    111  O         18.4480   54.2850  -22.8780 O.2   182  VAL182     -0.2715
    112  CB        16.2440   55.4430  -24.2540 C.3   182  VAL182      0.0290
    113  CG1       14.8860   56.0760  -24.2400 C.3   182  VAL182      0.0023
    114  CG2       16.7990   55.2670  -25.6290 C.3   182  VAL182      0.0023
    115  N         19.6240   56.1540  -22.9620 N.am  183  SER183     -0.1936
    116  CA        20.9250   55.4550  -22.8650 C.3   183  SER183      0.2055
    117  C         20.9800   54.5990  -21.6140 C.2   183  SER183      0.2643
    118  O         21.5850   53.5180  -21.6250 O.2   183  SER183     -0.2714
    119  CB        22.1290   56.4040  -22.8050 C.3   183  SER183      0.2130
    120  OG        22.2300   57.2060  -23.9170 O.3   183  SER183     -0.2179
    121  N         20.4270   55.0870  -20.4750 N.am  184  ILE184     -0.1963
    122  CA        20.5630   54.3310  -19.2250 C.3   184  ILE184      0.1727
    123  C         19.9000   52.9860  -19.3160 C.2   184  ILE184      0.2616
    124  O         20.5360   51.9190  -19.0500 O.2   184  ILE184     -0.2715
    125  CB        19.9950   55.1620  -18.0220 C.3   184  ILE184      0.0290
    126  CG1       20.8770   56.4030  -17.8590 C.3   184  ILE184      0.0022
    127  CG2       19.9680   54.2800  -16.7970 C.3   184  ILE184      0.0023
    128  CD1       20.2540   57.4570  -16.8730 C.3   184  ILE184      0.0001
    129  N         18.6590   52.9850  -19.7840 N.am  185  VAL185     -0.1977
    130  CA        17.9760   51.7230  -19.9750 C.3   185  VAL185      0.1596
    131  C         18.5920   50.8610  -21.0440 C.2   185  VAL185      0.2287
    132  O         18.4620   49.6160  -21.0030 O.2   185  VAL185     -0.2864
    133  CB        16.4760   51.8300  -20.1910 C.3   185  VAL185      0.0276
    134  CG1       15.8060   52.4180  -19.0000 C.3   185  VAL185      0.0022
    135  CG2       16.1130   52.6420  -21.3810 C.3   185  VAL185      0.0022
    136  N         12.3760   47.4550  -23.0230 N.3   192  VAL192     -0.1245
    137  CA        11.7480   48.8050  -23.0270 C.3   192  VAL192      0.1561
    138  C         10.6800   48.8570  -24.0900 C.2   192  VAL192      0.2260
    139  O         11.0130   48.6740  -25.3030 O.2   192  VAL192     -0.2867
    140  CB        12.8210   49.9050  -23.2530 C.3   192  VAL192      0.0252
    141  CG1       12.0800   51.2480  -23.1930 C.3   192  VAL192      0.0019
    142  CG2       13.9310   49.8590  -22.2160 C.3   192  VAL192      0.0019
@<TRIPOS>BOND
     1    99    97   ar
     2    96    97    1
     3    96    93    1
     4    97    98   ar
     5    93    92    1
     6    93    94    1
     7   114   112    1
     8    49    48    2
     9   139   138    2
    10    51    50    1
    11   100    94   am
    12   100   101    1
    13    48    47    1
    14    94    95    2
    15   107   105   ar
    16    52    50    1
    17   112   113    1
    18   112   109    1
    19   138   137    1
    20   120   119    1
    21    50    47    1
    22   105   104    1
    23   105   106   ar
    24   104   101    1
    25   108   109    1
    26   108   102   am
    27   101   102    1
    28    47    46    1
    29   109   110    1
    30   140   141    1
    31   140   137    1
    32   140   142    1
    33   102   103    2
    34   110   115   am
    35   110   111    2
    36    46    43   am
    37   137   136    1
    38   115   116    1
    39   116   119    1
    40   116   117    1
    41    87    88    2
    42    87    86    1
    43    43    42    1
    44    43    44    2
    45   118   117    2
    46   117   121   am
    47    86    85    1
    48    86    89    1
    49    42    45    1
    50    42    41    1
    51    60    59    2
    52   135   133    1
    53    61    59   am
    54    59    58    1
    55    58    57    1
    56   131   132    2
    57   131   130    1
    58    39    38    2
    59     7     8    1
    60     7     6    1
    61     8     9    2
    62    11     9    1
    63     9    10    1
    64   121   122    1
    65    90    89    1
    66    41    38   am
    67    89    91    1
    68   133   130    1
    69   133   134    1
    70    53    54    1
    71    38    37    1
    72   130   129    1
    73    54    57    1
    74    54    55    1
    75   129   123   am
    76     6     5    1
    77     5     2    1
    78   123   122    1
    79   123   124    2
    80   122   125    1
    81    40    37    1
    82    19    18    2
    83    37    36    1
    84    55    62   am
    85    55    56    2
    86    62    63    1
    87    31    30    2
    88    20    18   am
    89     1     2    1
    90    68    66    1
    91    18    17    1
    92   125   126    1
    93   125   127    1
    94     2     3    1
    95    65    64    2
    96   126   128    1
    97    66    63    1
    98    66    67    1
    99    30    29    1
   100    63    64    1
   101    12     3   am
   102    12    13    1
   103     3     4    2
   104    64    69   am
   105    16    17    1
   106    16    13    1
   107    34    32    1
   108    32    29    1
   109    32    33    1
   110    13    14    1
   111    29    28    1
   112    76    74    1
   113    27    25    1
   114    69    70    1
   115    73    74    1
   116    73    70    1
   117    73    75    1
   118    35    33    1
   119    70    71    1
   120    14    15    2
   121    83    82    1
   122    25    26    1
   123    25    22    1
   124    71    72    2
   125    21    22    1
   126    22    23    1
   127    82    84    1
   128    82    81    1
   129    78    81    1
   130    78    77    1
   131    78    79    1
   132    80    79    2
   133    23    24    2
