@<TRIPOS>MOLECULE
tmp/2yc5A00.pdb
 142 133 0 0 0
SMALL
GASTEIGER

@<TRIPOS>ATOM
      1  N         20.4020   66.6590  -18.1560 N.3    75  ARG75      -0.1231
      2  CA        19.0520   66.1510  -17.9850 C.3    75  ARG75       0.1694
      3  C         19.0090   64.9510  -17.0480 C.2    75  ARG75       0.2591
      4  O         18.1200   64.8380  -16.1930 O.2    75  ARG75      -0.2718
      5  CB        18.4190   65.8230  -19.3770 C.3    75  ARG75       0.0321
      6  CG        16.9840   65.3780  -19.2740 C.3    75  ARG75       0.0489
      7  CD        16.4930   64.9190  -20.5820 C.3    75  ARG75       0.2205
      8  NE        15.0940   64.6070  -20.7350 N.pl3  75  ARG75      -0.0865
      9  CZ        14.5790   63.3920  -20.6430 C.cat  75  ARG75       0.5346
     10  NH1       15.3220   62.3590  -20.2560 N.pl3  75  ARG75       0.1354
     11  NH2       13.3090   63.2240  -20.9100 N.pl3  75  ARG75       0.1354
     12  N         19.9460   64.0180  -17.2400 N.am   76  GLN76      -0.1979
     13  CA        19.9420   62.8080  -16.3950 C.3    76  GLN76       0.1601
     14  C         20.1790   63.1350  -14.9220 C.2    76  GLN76       0.2287
     15  O         19.7410   62.3970  -14.0510 O.2    76  GLN76      -0.2864
     16  CB        20.9340   61.7520  -16.9210 C.3    76  GLN76       0.0394
     17  CG        22.3730   62.0990  -16.7830 C.3    76  GLN76       0.0908
     18  CD        22.8990   62.8390  -17.9520 C.2    76  GLN76       0.2608
     19  OE1       22.1210   63.3640  -18.8130 O.2    76  GLN76      -0.2717
     20  NE2       24.2420   62.8290  -18.0780 N.am   76  GLN76      -0.0878
     21  N         16.8470   64.2490  -13.6360 N.3    79  VAL79      -0.1245
     22  CA        16.1020   63.0310  -13.3690 C.3    79  VAL79       0.1561
     23  C         16.4900   62.4290  -12.0260 C.2    79  VAL79       0.2260
     24  O         15.6110   62.0450  -11.2410 O.2    79  VAL79      -0.2867
     25  CB        16.2400   62.0080  -14.5330 C.3    79  VAL79       0.0252
     26  CG1       15.5620   60.6650  -14.1850 C.3    79  VAL79       0.0019
     27  CG2       15.6080   62.5920  -15.8040 C.3    79  VAL79       0.0019
     28  N          8.5020   60.2650  -15.9140 N.3    95  ILE95      -0.1245
     29  CA         9.3470   61.3960  -16.1630 C.3    95  ILE95       0.1561
     30  C          8.8300   62.1540  -17.4180 C.2    95  ILE95       0.2260
     31  O          8.5930   61.5490  -18.4850 O.2    95  ILE95      -0.2867
     32  CB        10.8100   60.9450  -16.4580 C.3    95  ILE95       0.0252
     33  CG1       11.3810   60.2000  -15.2410 C.3    95  ILE95       0.0019
     34  CG2       11.6830   62.1370  -16.9160 C.3    95  ILE95       0.0019
     35  CD1       12.3160   59.1060  -15.5980 C.3    95  ILE95       0.0001
     36  N          9.3040   49.3220  -18.1410 N.3   120  ALA120     -0.1231
     37  CA         9.8430   50.5440  -18.7080 C.3   120  ALA120      0.1694
     38  C          9.0950   50.7330  -20.0250 C.2   120  ALA120      0.2592
     39  O          8.9650   49.7810  -20.8120 O.2   120  ALA120     -0.2718
     40  CB        11.3150   50.4110  -18.9920 C.3   120  ALA120      0.0304
     41  N          8.5740   51.9310  -20.2390 N.am  121  ALA121     -0.1966
     42  CA         7.9400   52.2720  -21.5200 C.3   121  ALA121      0.1728
     43  C          8.1420   53.7590  -21.7900 C.2   121  ALA121      0.2616
     44  O          8.2700   54.5760  -20.8910 O.2   121  ALA121     -0.2715
     45  CB         6.4590   51.9140  -21.4790 C.3   121  ALA121      0.0334
     46  N          8.0250   54.1520  -23.0400 N.am  122  VAL122     -0.1977
     47  CA         8.1660   55.5380  -23.4630 C.3   122  VAL122      0.1596
     48  C          7.2300   55.7830  -24.6050 C.2   122  VAL122      0.2287
     49  O          7.0530   54.8900  -25.4430 O.2   122  VAL122     -0.2864
     50  CB         9.6440   55.8740  -23.8560 C.3   122  VAL122      0.0276
     51  CG1       10.2060   54.7870  -24.8900 C.3   122  VAL122      0.0022
     52  CG2        9.8190   57.3630  -24.2330 C.3   122  VAL122      0.0022
     53  N          8.4060   59.1460  -20.1350 N.3   156  GLN156     -0.1231
     54  CA         9.1660   57.9020  -19.9650 C.3   156  GLN156      0.1698
     55  C          8.7770   57.3210  -18.5900 C.2   156  GLN156      0.2592
     56  O          8.8810   58.0340  -17.5580 O.2   156  GLN156     -0.2718
     57  CB        10.6660   58.1880  -19.9450 C.3   156  GLN156      0.0381
     58  CG        11.1780   58.8320  -21.1580 C.3   156  GLN156      0.0905
     59  CD        12.6630   59.2930  -21.1340 C.2   156  GLN156      0.2608
     60  OE1       12.9240   60.4850  -21.1340 O.2   156  GLN156     -0.2717
     61  NE2       13.5920   58.3680  -21.2600 N.am  156  GLN156     -0.0878
     62  N          8.3010   56.0920  -18.5620 N.am  157  VAL157     -0.1966
     63  CA         7.6690   55.5000  -17.3860 C.3   157  VAL157      0.1727
     64  C          8.4790   54.2910  -17.0020 C.2   157  VAL157      0.2616
     65  O          8.7790   53.4480  -17.8320 O.2   157  VAL157     -0.2715
     66  CB         6.2270   55.1050  -17.6620 C.3   157  VAL157      0.0290
     67  CG1        5.5380   54.3080  -16.4420 C.3   157  VAL157      0.0023
     68  CG2        5.3450   56.3300  -18.1220 C.3   157  VAL157      0.0023
     69  N          8.8460   54.1780  -15.7080 N.am  158  ILE158     -0.1977
     70  CA         9.7120   53.1240  -15.2640 C.3   158  ILE158      0.1596
     71  C          9.5150   52.7580  -13.8120 C.2   158  ILE158      0.2287
     72  O          9.1830   53.6130  -13.0070 O.2   158  ILE158     -0.2864
     73  CB        11.1910   53.4510  -15.5950 C.3   158  ILE158      0.0276
     74  CG1       12.1490   52.2990  -15.3860 C.3   158  ILE158      0.0022
     75  CG2       11.6520   54.8160  -14.9420 C.3   158  ILE158      0.0022
     76  CD1       13.4880   52.4510  -16.0870 C.3   158  ILE158      0.0001
     77  N         15.1160   52.0130  -12.5120 N.3   163  LEU163     -0.1245
     78  CA        15.8350   53.2260  -12.7880 C.3   163  LEU163      0.1561
     79  C         17.0170   53.4560  -11.8530 C.2   163  LEU163      0.2260
     80  O         18.0640   53.8960  -12.2720 O.2   163  LEU163     -0.2867
     81  CB        14.9080   54.4330  -12.7860 C.3   163  LEU163      0.0270
     82  CG        15.5000   55.7950  -13.1650 C.3   163  LEU163      0.0019
     83  CD1       16.2450   55.8360  -14.5740 C.3   163  LEU163      0.0001
     84  CD2       14.3980   56.9170  -13.0680 C.3   163  LEU163      0.0001
     85  N         26.3080   58.8180  -21.0840 N.3   177  VAL177     -0.1245
     86  CA        24.8880   59.0060  -21.2590 C.3   177  VAL177      0.1561
     87  C         24.7370   60.0620  -22.3240 C.2   177  VAL177      0.2260
     88  O         25.1100   61.2260  -22.1090 O.2   177  VAL177     -0.2867
     89  CB        24.2090   59.4050  -19.8610 C.3   177  VAL177      0.0252
     90  CG1       22.7330   59.7740  -20.0080 C.3   177  VAL177      0.0019
     91  CG2       24.4320   58.2760  -18.8580 C.3   177  VAL177      0.0019
     92  N         21.8640   60.0380  -24.9770 N.3   179  ASP179     -0.1225
     93  CA        20.5340   60.3300  -25.4550 C.3   179  ASP179      0.1805
     94  C         19.5620   59.9350  -24.3390 C.2   179  ASP179      0.2598
     95  O         19.9900   59.5080  -23.2760 O.2   179  ASP179     -0.2718
     96  CB        20.2420   59.6300  -26.7920 C.3   179  ASP179      0.1424
     97  CG        20.3650   58.0870  -26.7390 C.2   179  ASP179      0.3668
     98  OD1       19.6580   57.4260  -25.9440 O.co2 179  ASP179     -0.2456
     99  OD2       21.1590   57.5210  -27.5330 O.co2 179  ASP179     -0.2456
    100  N         18.2840   60.1180  -24.5770 N.am  180  ASP180     -0.1960
    101  CA        17.2900   60.0950  -23.4670 C.3   180  ASP180      0.1840
    102  C         16.8830   58.7060  -23.0160 C.2   180  ASP180      0.2622
    103  O         16.1540   58.5750  -22.0020 O.2   180  ASP180     -0.2715
    104  CB        16.0920   60.9010  -23.8990 C.3   180  ASP180      0.1450
    105  CG        16.3620   62.4320  -23.8760 C.2   180  ASP180      0.3671
    106  OD1       17.4370   62.9550  -23.4220 O.co2 180  ASP180     -0.2456
    107  OD2       15.5020   63.1370  -24.3630 O.co2 180  ASP180     -0.2456
    108  N         17.4560   57.6650  -23.6530 N.am  181  VAL181     -0.1963
    109  CA        17.2800   56.2820  -23.1590 C.3   181  VAL181      0.1727
    110  C         18.5780   55.5460  -22.8850 C.2   181  VAL181      0.2617
    111  O         18.5500   54.3400  -22.7040 O.2   181  VAL181     -0.2715
    112  CB        16.2850   55.4480  -24.0500 C.3   181  VAL181      0.0290
    113  CG1       14.9460   56.2390  -24.1980 C.3   181  VAL181      0.0023
    114  CG2       16.8840   55.2050  -25.4870 C.3   181  VAL181      0.0023
    115  N         19.7190   56.2660  -22.8350 N.am  182  SER182     -0.1936
    116  CA        21.0150   55.6280  -22.6550 C.3   182  SER182      0.2055
    117  C         21.0530   54.7580  -21.3820 C.2   182  SER182      0.2643
    118  O         21.6570   53.6590  -21.3980 O.2   182  SER182     -0.2714
    119  CB        22.1630   56.6580  -22.5660 C.3   182  SER182      0.2130
    120  OG        22.3590   57.3250  -23.7970 O.3   182  SER182     -0.2179
    121  N         20.4620   55.2230  -20.2710 N.am  183  ILE183     -0.1963
    122  CA        20.6170   54.4810  -19.0200 C.3   183  ILE183      0.1727
    123  C         19.9660   53.0980  -19.1240 C.2   183  ILE183      0.2616
    124  O         20.6050   52.0820  -18.7980 O.2   183  ILE183     -0.2715
    125  CB        20.0300   55.2830  -17.8900 C.3   183  ILE183      0.0290
    126  CG1       20.8830   56.5400  -17.6880 C.3   183  ILE183      0.0022
    127  CG2       19.9800   54.4910  -16.6420 C.3   183  ILE183      0.0023
    128  CD1       20.1810   57.5990  -16.8260 C.3   183  ILE183      0.0001
    129  N         18.7320   53.0660  -19.6400 N.am  184  VAL184     -0.1977
    130  CA        18.0280   51.7810  -19.7740 C.3   184  VAL184      0.1596
    131  C         18.6840   50.9140  -20.8450 C.2   184  VAL184      0.2287
    132  O         18.5870   49.6800  -20.7580 O.2   184  VAL184     -0.2864
    133  CB        16.5290   51.8810  -20.0090 C.3   184  VAL184      0.0276
    134  CG1       15.8440   52.4270  -18.8380 C.3   184  VAL184      0.0022
    135  CG2       16.1290   52.6880  -21.2440 C.3   184  VAL184      0.0022
    136  N         12.3530   47.5860  -22.9560 N.3   191  VAL191     -0.1245
    137  CA        11.7500   48.8890  -22.9440 C.3   191  VAL191      0.1561
    138  C         10.6750   48.9300  -24.0090 C.2   191  VAL191      0.2260
    139  O         11.0060   48.7740  -25.1990 O.2   191  VAL191     -0.2867
    140  CB        12.7920   50.0440  -23.2000 C.3   191  VAL191      0.0252
    141  CG1       12.0910   51.3910  -23.1960 C.3   191  VAL191      0.0019
    142  CG2       13.9390   50.0040  -22.1490 C.3   191  VAL191      0.0019
@<TRIPOS>BOND
     1    99    97   ar
     2    96    97    1
     3    96    93    1
     4    97    98   ar
     5   114   112    1
     6    93    92    1
     7    93    94    1
     8    49    48    2
     9   139   138    2
    10    51    50    1
    11    48    47    1
    12   100    94   am
    13   100   101    1
    14   107   105   ar
    15    94    95    2
    16    52    50    1
    17   113   112    1
    18   112   109    1
    19   138   137    1
    20   104   105    1
    21   104   101    1
    22   105   106   ar
    23    50    47    1
    24   120   119    1
    25   108   109    1
    26   108   102   am
    27   101   102    1
    28    47    46    1
    29   140   141    1
    30   140   137    1
    31   140   142    1
    32   109   110    1
    33    46    43   am
    34   102   103    2
    35   136   137    1
    36   110   115   am
    37   110   111    2
    38   115   116    1
    39   116   119    1
    40   116   117    1
    41    87    88    2
    42    87    86    1
    43    43    42    1
    44    43    44    2
    45    42    45    1
    46    42    41    1
    47   118   117    2
    48   117   121   am
    49    61    59   am
    50    86    85    1
    51    86    89    1
    52   135   133    1
    53    58    59    1
    54    58    57    1
    55    60    59    2
    56    11     9    1
    57   131   132    2
    58   131   130    1
    59    39    38    2
    60     8     9    2
    61     8     7    1
    62     9    10    1
    63     7     6    1
    64   121   122    1
    65    41    38   am
    66    53    54    1
    67    38    37    1
    68   133   130    1
    69   133   134    1
    70    90    89    1
    71    54    57    1
    72    54    55    1
    73    89    91    1
    74   130   129    1
    75   129   123   am
    76     5     6    1
    77     5     2    1
    78   123   122    1
    79   123   124    2
    80   122   125    1
    81    40    37    1
    82    19    18    2
    83    37    36    1
    84    55    62   am
    85    55    56    2
    86    62    63    1
    87    31    30    2
    88     1     2    1
    89    68    66    1
    90    20    18   am
    91     2     3    1
    92    18    17    1
    93   125   126    1
    94   125   127    1
    95    65    64    2
    96   126   128    1
    97    66    63    1
    98    66    67    1
    99    30    29    1
   100    63    64    1
   101    12     3   am
   102    12    13    1
   103     3     4    2
   104    64    69   am
   105    16    17    1
   106    16    13    1
   107    34    32    1
   108    32    29    1
   109    32    33    1
   110    13    14    1
   111    29    28    1
   112    76    74    1
   113    27    25    1
   114    69    70    1
   115    35    33    1
   116    73    74    1
   117    73    70    1
   118    73    75    1
   119    70    71    1
   120    14    15    2
   121    83    82    1
   122    25    26    1
   123    25    22    1
   124    71    72    2
   125    21    22    1
   126    22    23    1
   127    82    84    1
   128    82    81    1
   129    78    81    1
   130    78    77    1
   131    78    79    1
   132    80    79    2
   133    23    24    2
