@<TRIPOS>MOLECULE
tmp/2yceE00.pdb
 182 174 0 0 0
SMALL
GASTEIGER

@<TRIPOS>ATOM
      1  N         -7.7880  103.6880   -6.0860 N.3    20  ALA20      -0.1245
      2  CA        -7.4870  103.7850   -4.6530 C.3    20  ALA20       0.1562
      3  C         -6.7670  105.0980   -4.3410 C.2    20  ALA20       0.2260
      4  O         -5.8500  105.4700   -5.0430 O.2    20  ALA20      -0.2867
      5  CB        -6.6300  102.5870   -4.2190 C.3    20  ALA20       0.0290
      6  N         -6.2670  106.3520   -0.6240 N.3    22  ASP22      -0.1225
      7  CA        -6.0750  106.5000    0.8270 C.3    22  ASP22       0.1805
      8  C         -4.6170  106.7860    1.1260 C.2    22  ASP22       0.2597
      9  O         -4.2300  106.8290    2.2810 O.2    22  ASP22      -0.2718
     10  CB        -6.5320  105.2390    1.6110 C.3    22  ASP22       0.1424
     11  CG        -5.8870  103.9400    1.1030 C.2    22  ASP22       0.3668
     12  OD1       -5.6860  103.7990   -0.1260 O.co2  22  ASP22      -0.2456
     13  OD2       -5.6100  103.0210    1.9160 O.co2  22  ASP22      -0.2456
     14  N         -3.8250  106.9920    0.0650 N.am   23  HIS23      -0.1975
     15  CA        -2.3740  107.1530    0.1320 C.3    23  HIS23       0.1656
     16  C         -1.8810  108.3690    0.9240 C.2    23  HIS23       0.2291
     17  O         -0.8370  108.2980    1.5750 O.2    23  HIS23      -0.2864
     18  CB        -1.7930  107.1470   -1.2910 C.3    23  HIS23       0.0771
     19  CG        -2.0730  105.8750   -2.0460 C.ar   23  HIS23       0.0820
     20  ND1       -3.3530  105.4660   -2.3820 N.ar   23  HIS23      -0.2267
     21  CD2       -1.2340  104.9300   -2.5490 C.ar   23  HIS23       0.1154
     22  CE1       -3.2900  104.3180   -3.0390 C.ar   23  HIS23       0.1986
     23  NE2       -2.0140  103.9810   -3.1710 N.ar   23  HIS23      -0.2212
     24  N         -1.7360  106.9050    4.3890 N.3    26  GLU26      -0.1231
     25  CA        -0.8820  105.6900    4.4920 C.3    26  GLU26       0.1699
     26  C          0.5780  105.9410    4.1980 C.2    26  GLU26       0.2592
     27  O          1.4540  105.4100    4.9170 O.2    26  GLU26      -0.2718
     28  CB        -1.4120  104.5670    3.6000 C.3    26  GLU26       0.0402
     29  CG        -2.7910  104.0650    4.0350 C.3    26  GLU26       0.1161
     30  CD        -2.7730  103.2560    5.3510 C.2    26  GLU26       0.3649
     31  OE1       -1.7650  102.5730    5.6960 O.co2  26  GLU26      -0.2457
     32  OE2       -3.8080  103.2550    6.0330 O.co2  26  GLU26      -0.2457
     33  N          0.8680  106.7370    3.1550 N.am   27  HIS27      -0.1976
     34  CA         2.2780  107.0070    2.7570 C.3    27  HIS27       0.1656
     35  C          2.6480  108.4650    2.8330 C.2    27  HIS27       0.2291
     36  O          3.8370  108.8270    2.8990 O.2    27  HIS27      -0.2864
     37  CB         2.5480  106.5260    1.3280 C.3    27  HIS27       0.0771
     38  CG         2.2320  105.0840    1.1330 C.ar   27  HIS27       0.0820
     39  ND1        1.7050  104.5900   -0.0410 N.ar   27  HIS27      -0.2267
     40  CD2        2.3160  104.0320    1.9860 C.ar   27  HIS27       0.1154
     41  CE1        1.5020  103.2870    0.0820 C.ar   27  HIS27       0.1986
     42  NE2        1.8510  102.9240    1.3060 N.ar   27  HIS27      -0.2212
     43  N        -12.8620  104.2860    3.1800 N.3    76  LYS76      -0.1245
     44  CA       -11.8380  103.5420    3.9220 C.3    76  LYS76       0.1561
     45  C        -11.8390  104.0640    5.3650 C.2    76  LYS76       0.2260
     46  O        -11.4660  105.2160    5.6120 O.2    76  LYS76      -0.2867
     47  CB       -10.4530  103.7640    3.2700 C.3    76  LYS76       0.0271
     48  CG        -9.2760  103.0360    3.9610 C.3    76  LYS76       0.0035
     49  CD        -9.4550  101.5010    3.8680 C.3    76  LYS76       0.0206
     50  CE        -8.1710  100.7340    4.1630 C.3    76  LYS76       0.1093
     51  NZ        -7.4680  101.2560    5.3730 N.3    76  LYS76      -0.1314
     52  N         -3.3950  104.2900    9.0170 N.3    80  LYS80      -0.1245
     53  CA        -2.1910  104.5170    9.8260 C.3    80  LYS80       0.1561
     54  C         -1.1400  105.1960    8.9340 C.2    80  LYS80       0.2260
     55  O         -1.3500  105.3390    7.7240 O.2    80  LYS80      -0.2867
     56  CB        -1.6510  103.1810   10.3470 C.3    80  LYS80       0.0271
     57  CG        -1.2300  102.2560    9.2010 C.3    80  LYS80       0.0035
     58  CD        -0.3630  101.0830    9.6820 C.3    80  LYS80       0.0206
     59  CE         1.0880  101.4930    9.9570 C.3    80  LYS80       0.1093
     60  NZ         1.9560  101.5310    8.6780 N.3    80  LYS80      -0.1314
     61  N         -8.6990   97.8760    6.7610 N.3   110  THR110     -0.1218
     62  CA        -7.4820   97.0580    6.7140 C.3   110  THR110      0.1862
     63  C         -7.2530   96.2170    7.9720 C.2   110  THR110      0.2287
     64  O         -7.3750   96.7030    9.1050 O.2   110  THR110     -0.2866
     65  CB        -6.2100   97.9270    6.4800 C.3   110  THR110      0.1770
     66  OG1       -6.4030   98.6880    5.3040 O.3   110  THR110     -0.2211
     67  CG2       -4.9590   97.0510    6.2750 C.3   110  THR110      0.0375
     68  N         -4.1630   93.4550    9.5560 N.3   112  TYR112     -0.1241
     69  CA        -2.7980   92.9450    9.4610 C.3   112  TYR112      0.1605
     70  C         -2.6930   91.6300   10.2910 C.2   112  TYR112      0.2264
     71  O         -2.1800   91.6160   11.4040 O.2   112  TYR112     -0.2867
     72  CB        -1.7450   93.9860    9.9310 C.3   112  TYR112      0.0534
     73  CG        -1.8740   95.3800    9.2960 C.ar  112  TYR112     -0.0201
     74  CD1       -1.5430   95.6050    7.9600 C.ar  112  TYR112     -0.0009
     75  CD2       -2.3620   96.4690   10.0550 C.ar  112  TYR112     -0.0009
     76  CE1       -1.6670   96.8960    7.3900 C.ar  112  TYR112      0.0417
     77  CE2       -2.4990   97.7590    9.5080 C.ar  112  TYR112      0.0417
     78  CZ        -2.1370   97.9640    8.1700 C.ar  112  TYR112      0.1957
     79  OH        -2.2740   99.2160    7.6110 O.3   112  TYR112     -0.2866
     80  N         -9.2710   94.9350    3.2860 N.3   142  TRP142     -0.1241
     81  CA        -7.8840   94.9260    2.8220 C.3   142  TRP142      0.1605
     82  C         -7.1860   93.9740    3.7860 C.2   142  TRP142      0.2264
     83  O         -7.0740   94.2850    4.9750 O.2   142  TRP142     -0.2867
     84  CB        -7.2670   96.2910    3.0780 C.3   142  TRP142      0.0550
     85  CG        -7.4710   97.4330    2.0920 C.ar  142  TRP142      0.0003
     86  CD1       -6.4640   98.2080    1.5620 C.ar  142  TRP142      0.0946
     87  CD2       -8.7010   97.9860    1.5900 C.ar  142  TRP142      0.0152
     88  NE1       -6.9840   99.1780    0.7600 N.ar  142  TRP142     -0.2442
     89  CE2       -8.3520   99.0720    0.7530 C.ar  142  TRP142      0.0810
     90  CE3      -10.0460   97.6920    1.7840 C.ar  142  TRP142      0.0012
     91  CZ2       -9.2960   99.8510    0.0910 C.ar  142  TRP142      0.0191
     92  CZ3      -11.0080   98.4580    1.1060 C.ar  142  TRP142      0.0001
     93  CH2      -10.6250   99.5310    0.2660 C.ar  142  TRP142      0.0015
     94  N         -3.8890   92.2410    4.7480 N.3   144  PHE144     -0.1241
     95  CA        -2.4480   92.4230    4.4940 C.3   144  PHE144      0.1605
     96  C         -1.6440   91.8350    5.6870 C.2   144  PHE144      0.2264
     97  O         -1.3030   92.5770    6.6100 O.2   144  PHE144     -0.2867
     98  CB        -2.0810   93.9250    4.3350 C.3   144  PHE144      0.0534
     99  CG        -2.6490   94.6380    3.1010 C.ar  144  PHE144     -0.0203
    100  CD1       -3.1060   93.9550    1.9730 C.ar  144  PHE144     -0.0042
    101  CD2       -2.6540   96.0490    3.0670 C.ar  144  PHE144     -0.0042
    102  CE1       -3.5930   94.6690    0.8360 C.ar  144  PHE144     -0.0003
    103  CE2       -3.1330   96.7520    1.9520 C.ar  144  PHE144     -0.0003
    104  CZ        -3.5900   96.0610    0.8250 C.ar  144  PHE144     -0.0000
    105  N          1.0470   91.0120    8.1860 N.3   146  ARG146     -0.1245
    106  CA         2.1980   91.8670    8.4550 C.3   146  ARG146      0.1563
    107  C          2.4760   91.8430    9.9540 C.2   146  ARG146      0.2260
    108  O          1.5330   91.9470   10.7770 O.2   146  ARG146     -0.2867
    109  CB         1.9200   93.3160    7.9710 C.3   146  ARG146      0.0307
    110  CG         3.1670   94.2340    7.9850 C.3   146  ARG146      0.0489
    111  CD         2.8560   95.6130    7.3620 C.3   146  ARG146      0.2205
    112  NE         2.4720   95.4340    5.9510 N.pl3 146  ARG146     -0.0865
    113  CZ         1.7890   96.2990    5.1870 C.cat 146  ARG146      0.5346
    114  NH1        1.3670   97.4770    5.6510 N.pl3 146  ARG146      0.1354
    115  NH2        1.5510   95.9810    3.9130 N.pl3 146  ARG146      0.1354
    116  N         -9.3750   92.7880   -0.7320 N.3   175  LYS175     -0.1245
    117  CA        -8.2340   93.2710   -1.4860 C.3   175  LYS175      0.1561
    118  C         -7.0300   92.6080   -0.8680 C.2   175  LYS175      0.2260
    119  O         -6.8270   92.6750    0.3630 O.2   175  LYS175     -0.2867
    120  CB        -8.1340   94.7970   -1.3590 C.3   175  LYS175      0.0271
    121  CG        -6.8990   95.5040   -1.9270 C.3   175  LYS175      0.0035
    122  CD        -7.0250   97.0230   -1.5980 C.3   175  LYS175      0.0206
    123  CE        -6.0730   97.9430   -2.3920 C.3   175  LYS175      0.1093
    124  NZ        -4.9710   98.6050   -1.5660 N.3   175  LYS175     -0.1314
    125  N         -2.6610   91.3160   -1.7050 N.3   177  LYS177     -0.1245
    126  CA        -1.4560   91.4530   -2.5360 C.3   177  LYS177      0.1561
    127  C         -1.3500   90.3430   -3.5750 C.2   177  LYS177      0.2260
    128  O         -1.7910   89.2160   -3.3380 O.2   177  LYS177     -0.2867
    129  CB        -0.1830   91.4260   -1.6690 C.3   177  LYS177      0.0271
    130  CG        -0.1270   92.4500   -0.5190 C.3   177  LYS177      0.0035
    131  CD        -0.1470   93.8820   -0.9970 C.3   177  LYS177      0.0206
    132  CE        -0.1060   94.8480    0.2220 C.3   177  LYS177      0.1093
    133  NZ        -0.1830   96.3270   -0.1240 N.3   177  LYS177     -0.1314
    134  N         -4.4570   94.2800   -5.0420 N.3   200  SER200     -0.1202
    135  CA        -3.8360   95.5280   -4.6540 C.3   200  SER200      0.2020
    136  C         -2.7280   95.8550   -5.6790 C.2   200  SER200      0.2619
    137  O         -1.8550   95.0280   -5.9550 O.2   200  SER200     -0.2717
    138  CB        -3.2770   95.3860   -3.2350 C.3   200  SER200      0.2103
    139  OG        -2.4230   96.4590   -2.9000 O.3   200  SER200     -0.2182
    140  N         -2.7940   97.0400   -6.2780 N.am  201  GLY201     -0.1942
    141  CA        -1.8860   97.3960   -7.3770 C.3   201  GLY201      0.2014
    142  C         -0.3930   97.4480   -7.0390 C.2   201  GLY201      0.2639
    143  O          0.4410   97.0050   -7.8540 O.2   201  GLY201     -0.2714
    144  N         -0.0490   98.0330   -5.8810 N.am  202  GLY202     -0.1954
    145  CA         1.3480   98.0840   -5.3950 C.3   202  GLY202      0.1869
    146  C          2.2120   99.2380   -5.9150 C.2   202  GLY202      0.2309
    147  O          1.7500  100.0750   -6.7150 O.2   202  GLY202     -0.2863
    148  N         -7.6580   96.9460   -7.4130 N.3   227  ALA227     -0.1231
    149  CA        -7.8530   98.1710   -6.6590 C.3   227  ALA227      0.1694
    150  C         -6.5110   98.8610   -6.8170 C.2   227  ALA227      0.2592
    151  O         -5.5090   98.4510   -6.2240 O.2   227  ALA227     -0.2718
    152  CB        -8.1810   97.8780   -5.1500 C.3   227  ALA227      0.0304
    153  N         -6.4640   99.8500   -7.6960 N.am  228  VAL228     -0.1966
    154  CA        -5.1770  100.3870   -8.1200 C.3   228  VAL228      0.1727
    155  C         -5.0610  101.8740   -7.7740 C.2   228  VAL228      0.2617
    156  O         -6.0330  102.6500   -7.9310 O.2   228  VAL228     -0.2715
    157  CB        -4.9510  100.1170   -9.6140 C.3   228  VAL228      0.0290
    158  CG1       -6.0910  100.7360  -10.4680 C.3   228  VAL228      0.0023
    159  CG2       -3.5660  100.5900  -10.0940 C.3   228  VAL228      0.0023
    160  N         -3.8740  102.2550   -7.3050 N.am  229  GLY229     -0.1940
    161  CA        -3.5700  103.6480   -6.9760 C.3   229  GLY229      0.2014
    162  C         -2.3730  104.1590   -7.7430 C.2   229  GLY229      0.2639
    163  O         -2.5030  104.7650   -8.8060 O.2   229  GLY229     -0.2714
    164  N         -1.1840  103.9120   -7.2100 N.am  230  ARG230     -0.1963
    165  CA         0.0440  104.4690   -7.8290 C.3   230  ARG230      0.1729
    166  C          0.2610  104.1470   -9.2900 C.2   230  ARG230      0.2616
    167  O          0.6830  105.0160  -10.0680 O.2   230  ARG230     -0.2715
    168  CB         1.2520  104.0390   -7.0110 C.3   230  ARG230      0.0348
    169  CG         1.2000  104.6370   -5.5960 C.3   230  ARG230      0.0492
    170  CD         2.1750  103.9020   -4.6600 C.3   230  ARG230      0.2205
    171  NE         1.5220  102.7090   -4.1500 N.pl3 230  ARG230     -0.0865
    172  CZ         2.0560  101.8490   -3.3010 C.cat 230  ARG230      0.5346
    173  NH1        3.2570  102.0710   -2.8170 N.pl3 230  ARG230      0.1354
    174  NH2        1.3680  100.7680   -2.9360 N.pl3 230  ARG230      0.1354
    175  N         -0.0050  102.8930   -9.6750 N.am  231  ASN231     -0.1972
    176  CA         0.2020  102.4670  -11.0660 C.3   231  ASN231      0.1688
    177  C         -0.7380  103.1370  -12.0570 C.2   231  ASN231      0.2292
    178  O         -0.5590  102.9860  -13.2460 O.2   231  ASN231     -0.2864
    179  CB         0.1480  100.9520  -11.2130 C.3   231  ASN231      0.1181
    180  CG         1.4650  100.3200  -10.8840 C.2   231  ASN231      0.2629
    181  OD1        2.4290  100.4490  -11.6410 O.2   231  ASN231     -0.2716
    182  ND2        1.5330   99.6520   -9.7480 N.am  231  ASN231     -0.0877
@<TRIPOS>BOND
     1   178   177    2
     2   177   176    1
     3   181   180    2
     4   179   176    1
     5   179   180    1
     6   176   175    1
     7   180   182   am
     8   158   157    1
     9   159   157    1
    10   167   166    2
    11   175   166   am
    12   157   154    1
    13   166   165    1
    14   163   162    2
    15   154   155    1
    16   154   153    1
    17   156   155    2
    18   143   142    2
    19   165   164    1
    20   165   168    1
    21   155   160   am
    22   162   164   am
    23   162   161    1
    24   153   150   am
    25   148   149    1
    26   141   142    1
    27   141   140    1
    28   160   161    1
    29   142   144   am
    30   168   169    1
    31   150   149    1
    32   150   151    2
    33   147   146    2
    34   149   152    1
    35   140   136   am
    36     1     2    1
    37   137   136    2
    38   146   145    1
    39   144   145    1
    40   136   135    1
    41   169   170    1
    42     4     3    2
    43   134   135    1
    44   170   171    1
    45   135   138    1
    46     2     3    1
    47     2     5    1
    48   171   172    2
    49   127   128    2
    50   127   126    1
    51   172   174    1
    52   172   173    1
    53   138   139    1
    54    23    22   ar
    55    23    21   ar
    56    22    20   ar
    57    21    19   ar
    58   126   125    1
    59   126   129    1
    60   123   122    1
    61   123   124    1
    62    20    19   ar
    63    19    18    1
    64   121   122    1
    65   121   120    1
    66   129   130    1
    67   117   120    1
    68   117   118    1
    69   117   116    1
    70    18    15    1
    71   131   130    1
    72   131   132    1
    73   118   119    2
    74     6     7    1
    75    12    11   ar
    76   133   132    1
    77    39    41   ar
    78    39    38   ar
    79    14    15    1
    80    14     8   am
    81    41    42   ar
    82    91    93   ar
    83    91    89   ar
    84    15    16    1
    85    93    92   ar
    86    89    88   ar
    87    89    87   ar
    88    88    86   ar
    89   104   102   ar
    90   104   103   ar
    91     7     8    1
    92     7    10    1
    93   102   100   ar
    94    16    17    2
    95    11    10    1
    96    11    13   ar
    97    92    90   ar
    98     8     9    2
    99    38    37    1
   100    38    40   ar
   101    42    40   ar
   102    37    34    1
   103    86    85   ar
   104    87    90   ar
   105    87    85   ar
   106   103   101   ar
   107   100    99   ar
   108    85    84    1
   109    34    35    1
   110    34    33    1
   111    81    84    1
   112    81    80    1
   113    81    82    1
   114    35    36    2
   115   101    99   ar
   116    99    98    1
   117    33    26   am
   118    43    44    1
   119    47    44    1
   120    47    48    1
   121    28    29    1
   122    28    25    1
   123    82    83    2
   124    49    48    1
   125    49    50    1
   126   115   113    1
   127    44    45    1
   128    29    30    1
   129    50    51    1
   130    26    25    1
   131    26    27    2
   132    98    95    1
   133    24    25    1
   134    95    94    1
   135    95    96    1
   136   113   114    1
   137   113   112    2
   138    66    65    1
   139    30    31   ar
   140    30    32   ar
   141    45    46    2
   142    96    97    2
   143   112   111    1
   144    67    65    1
   145    65    62    1
   146    62    61    1
   147    62    63    1
   148   111   110    1
   149    76    74   ar
   150    76    78   ar
   151    79    78    1
   152    55    54    2
   153    74    73   ar
   154   109   110    1
   155   109   106    1
   156    63    64    2
   157    78    77   ar
   158   105   106    1
   159   106   107    1
   160    60    59    1
   161    54    53    1
   162    52    53    1
   163    57    58    1
   164    57    56    1
   165    73    72    1
   166    73    75   ar
   167    69    68    1
   168    69    72    1
   169    69    70    1
   170    77    75   ar
   171    58    59    1
   172    53    56    1
   173   107   108    2
   174    70    71    2
