@<TRIPOS>MOLECULE
tmp/2ycfA00.pdb
 215 198 0 0 0
SMALL
GASTEIGER

@<TRIPOS>ATOM
      1  N         55.8140   24.1490  -10.1200 N.3    15  LYS15      -0.1231
      2  CA        54.5870   24.8670   -9.7490 C.3    15  LYS15       0.1693
      3  C         53.5960   24.0370   -8.9380 C.2    15  LYS15       0.2593
      4  O         53.6140   22.8030   -8.9800 O.2    15  LYS15      -0.2718
      5  CB        53.8850   25.3730  -11.0140 C.3    15  LYS15       0.0285
      6  CG        53.5010   24.2650  -12.0080 C.3    15  LYS15       0.0035
      7  CD        53.2600   24.8200  -13.4140 C.3    15  LYS15       0.0206
      8  CE        51.8160   25.2290  -13.6230 C.3    15  LYS15       0.1093
      9  NZ        50.9340   24.0510  -13.8330 N.3    15  LYS15      -0.1314
     10  N         52.7230   24.7350   -8.2160 N.am   16  THR16      -0.1939
     11  CA        51.6270   24.1070   -7.5060 C.3    16  THR16       0.2028
     12  C         50.5600   23.7440   -8.5280 C.2    16  THR16       0.2642
     13  O         50.2030   24.5670   -9.3780 O.2    16  THR16      -0.2714
     14  CB        51.0340   25.0610   -6.4480 C.3    16  THR16       0.1808
     15  OG1       52.0570   25.4290   -5.5210 O.3    16  THR16      -0.2208
     16  CG2       49.8900   24.4000   -5.6990 C.3    16  THR16       0.0379
     17  N         50.0670   22.5110   -8.4470 N.am   17  LEU17      -0.1963
     18  CA        49.0280   22.0210   -9.3570 C.3    17  LEU17       0.1728
     19  C         47.6430   22.0300   -8.7230 C.2    17  LEU17       0.2616
     20  O         46.6330   22.1600   -9.4170 O.2    17  LEU17      -0.2715
     21  CB        49.3570   20.5980   -9.8080 C.3    17  LEU17       0.0311
     22  CG        50.6650   20.4330  -10.5860 C.3    17  LEU17       0.0022
     23  CD1       51.0150   18.9530  -10.6840 C.3    17  LEU17       0.0001
     24  CD2       50.5620   21.0600  -11.9690 C.3    17  LEU17       0.0001
     25  N         47.6090   21.8630   -7.4070 N.am   18  GLY18      -0.1955
     26  CA        46.3590   21.7710   -6.6580 C.3    18  GLY18       0.1869
     27  C         46.6310   21.8360   -5.1710 C.2    18  GLY18       0.2309
     28  O         47.7890   21.8980   -4.7510 O.2    18  GLY18      -0.2863
     29  N         45.0440   19.4100    3.9030 N.3    22  CYS22      -0.1235
     30  CA        46.2510   18.8390    4.5060 C.3    22  CYS22       0.1677
     31  C         47.5580   19.3520    3.8870 C.2    22  CYS22       0.2270
     32  O         48.6220   19.2390    4.4970 O.2    22  CYS22      -0.2867
     33  CB        46.2070   17.3130    4.4000 C.3    22  CYS22       0.0956
     34  SG        45.9750   16.7140    2.7070 S.3    22  CYS22      -0.0801
     35  N         49.6480   19.8090   -3.9180 N.3    25  VAL25      -0.1245
     36  CA        50.2700   18.9420   -4.9180 C.3    25  VAL25       0.1561
     37  C         51.1440   19.7980   -5.8330 C.2    25  VAL25       0.2260
     38  O         50.6850   20.7990   -6.3880 O.2    25  VAL25      -0.2867
     39  CB        49.2130   18.1720   -5.7370 C.3    25  VAL25       0.0252
     40  CG1       49.8750   17.2760   -6.7850 C.3    25  VAL25       0.0019
     41  CG2       48.3360   17.3410   -4.8190 C.3    25  VAL25       0.0019
     42  N         54.1050   14.0190   -9.8320 N.3    38  ALA38      -0.1245
     43  CA        53.3660   14.8680   -8.9100 C.3    38  ALA38       0.1562
     44  C         53.8790   14.5820   -7.5170 C.2    38  ALA38       0.2260
     45  O         54.1910   13.4310   -7.1920 O.2    38  ALA38      -0.2867
     46  CB        51.8650   14.5790   -9.0030 C.3    38  ALA38       0.0290
     47  N         52.7480   15.1090   -3.6080 N.3    40  LYS40      -0.1245
     48  CA        51.7490   15.4820   -2.6250 C.3    40  LYS40       0.1561
     49  C         52.4780   15.8050   -1.3270 C.2    40  LYS40       0.2260
     50  O         53.2350   14.9790   -0.8040 O.2    40  LYS40      -0.2867
     51  CB        50.7390   14.3410   -2.4410 C.3    40  LYS40       0.0271
     52  CG        49.7710   14.5450   -1.2620 C.3    40  LYS40       0.0035
     53  CD        48.8360   15.7080   -1.4980 C.3    40  LYS40       0.0206
     54  CE        48.0470   15.9880   -0.2150 C.3    40  LYS40       0.1093
     55  NZ        47.3620   17.2950   -0.2690 N.3    40  LYS40      -0.1314
     56  N         52.1090   16.6850    2.5920 N.3    42  ILE42      -0.1245
     57  CA        51.1940   16.6410    3.7370 C.3    42  ILE42       0.1561
     58  C         51.8750   17.2650    4.9570 C.2    42  ILE42       0.2260
     59  O         52.8620   16.7430    5.4850 O.2    42  ILE42      -0.2867
     60  CB        50.6720   15.2250    4.0200 C.3    42  ILE42       0.0252
     61  CG1       49.9800   14.6700    2.7710 C.3    42  ILE42       0.0019
     62  CG2       49.6660   15.2380    5.2260 C.3    42  ILE42       0.0019
     63  CD1       49.8890   13.1610    2.7230 C.3    42  ILE42       0.0001
     64  N         49.5840    8.5130    7.5340 N.3    46  VAL46      -0.1245
     65  CA        50.3970    8.4900    6.3170 C.3    46  VAL46       0.1561
     66  C         51.1870    7.1890    6.1670 C.2    46  VAL46       0.2260
     67  O         51.3000    6.6450    5.0680 O.2    46  VAL46      -0.2867
     68  CB        51.3420    9.7120    6.2190 C.3    46  VAL46       0.0252
     69  CG1       52.1390    9.6680    4.9100 C.3    46  VAL46       0.0019
     70  CG2       50.5380   11.0060    6.2930 C.3    46  VAL46       0.0019
     71  N         48.9480    4.6220    4.8250 N.3    49  GLU49      -0.1245
     72  CA        48.6350    5.0160    3.4570 C.3    49  GLU49       0.1567
     73  C         49.7410    4.5350    2.5090 C.2    49  GLU49       0.2260
     74  O         49.4670    3.9060    1.4890 O.2    49  GLU49      -0.2867
     75  CB        48.4540    6.5280    3.3570 C.3    49  GLU49       0.0388
     76  CG        48.3440    7.0250    1.9140 C.3    49  GLU49       0.1160
     77  CD        47.8980    8.4590    1.8210 C.2    49  GLU49       0.3649
     78  OE1       48.1350    9.2400    2.7800 O.co2  49  GLU49      -0.2457
     79  OE2       47.2810    8.8010    0.7910 O.co2  49  GLU49      -0.2457
     80  N         49.4690    1.9770   -0.5230 N.3    53  LEU53      -0.1245
     81  CA        49.8070    2.3640   -1.9090 C.3    53  LEU53       0.1561
     82  C         50.8600    1.4250   -2.5350 C.2    53  LEU53       0.2260
     83  O         50.7710    1.0780   -3.7170 O.2    53  LEU53      -0.2867
     84  CB        50.2970    3.8100   -1.9740 C.3    53  LEU53       0.0270
     85  CG        49.2630    4.9350   -1.7930 C.3    53  LEU53       0.0019
     86  CD1       49.9760    6.2160   -1.4210 C.3    53  LEU53       0.0001
     87  CD2       48.4380    5.1230   -3.0530 C.3    53  LEU53       0.0001
     88  N         46.1210    4.9910   -8.1090 N.3    62  ILE62      -0.1245
     89  CA        47.4000    5.6970   -8.2470 C.3    62  ILE62       0.1561
     90  C         48.5620    4.8710   -7.6740 C.2    62  ILE62       0.2260
     91  O         48.3890    4.1200   -6.7190 O.2    62  ILE62      -0.2867
     92  CB        47.3300    7.1310   -7.6360 C.3    62  ILE62       0.0252
     93  CG1       48.2170    8.0990   -8.4270 C.3    62  ILE62       0.0019
     94  CG2       47.6440    7.1350   -6.1400 C.3    62  ILE62       0.0019
     95  CD1       47.5880    8.5610   -9.6890 C.3    62  ILE62       0.0001
     96  N         54.8880   12.6600   -0.7620 N.3    75  ILE75      -0.1245
     97  CA        54.5560   11.4270   -1.4740 C.3    75  ILE75       0.1561
     98  C         54.7060   11.6980   -2.9600 C.2    75  ILE75       0.2260
     99  O         54.0140   12.5700   -3.5040 O.2    75  ILE75      -0.2867
    100  CB        53.0990   10.9580   -1.1820 C.3    75  ILE75       0.0252
    101  CG1       52.8720   10.7880    0.3270 C.3    75  ILE75       0.0019
    102  CG2       52.8090    9.6480   -1.9320 C.3    75  ILE75       0.0019
    103  CD1       51.3730   10.4710    0.7060 C.3    75  ILE75       0.0001
    104  N         54.1760   10.6570   -6.7440 N.3    77  LEU77      -0.1245
    105  CA        53.2580    9.8080   -7.5000 C.3    77  LEU77       0.1561
    106  C         53.2900   10.1270   -8.9800 C.2    77  LEU77       0.2260
    107  O         53.8340   11.1560   -9.4050 O.2    77  LEU77      -0.2867
    108  CB        51.8170    9.9380   -6.9770 C.3    77  LEU77       0.0270
    109  CG        51.0810   11.2610   -7.2150 C.3    77  LEU77       0.0019
    110  CD1       49.6020   11.0420   -7.5590 C.3    77  LEU77       0.0001
    111  CD2       51.2210   12.1700   -6.0080 C.3    77  LEU77       0.0001
    112  N         52.1150   11.6560  -12.3330 N.3    79  LEU79      -0.1231
    113  CA        51.3690   12.8660  -12.6490 C.3    79  LEU79       0.1693
    114  C         50.1420   12.5600  -13.5120 C.2    79  LEU79       0.2592
    115  O         50.2700   12.0080  -14.6160 O.2    79  LEU79      -0.2718
    116  CB        52.2700   13.8790  -13.3720 C.3    79  LEU79       0.0284
    117  CG        51.5220   15.1240  -13.8680 C.3    79  LEU79       0.0019
    118  CD1       51.0770   16.0010  -12.6880 C.3    79  LEU79       0.0001
    119  CD2       52.3690   15.9240  -14.8520 C.3    79  LEU79       0.0001
    120  N         48.9640   12.9450  -13.0220 N.am   80  MET80      -0.1965
    121  CA        47.7130   12.7420  -13.7540 C.3    80  MET80       0.1736
    122  C         47.3820   14.0430  -14.4630 C.2    80  MET80       0.2616
    123  O         46.8980   14.9880  -13.8560 O.2    80  MET80      -0.2715
    124  CB        46.5980   12.3120  -12.8000 C.3    80  MET80       0.0427
    125  CG        46.8800   10.9470  -12.1720 C.3    80  MET80       0.0599
    126  SD        46.8770    9.6160  -13.3800 S.3    80  MET80      -0.1393
    127  CE        45.1240    9.4880  -13.7210 C.3    80  MET80       0.0692
    128  N         47.6780   14.0770  -15.7590 N.am   81  GLU81      -0.1963
    129  CA        47.6960   15.3350  -16.5130 C.3    81  GLU81       0.1733
    130  C         46.3210   15.9720  -16.7210 C.2    81  GLU81       0.2617
    131  O         46.2220   17.1720  -17.0040 O.2    81  GLU81      -0.2715
    132  CB        48.4490   15.1430  -17.8330 C.3    81  GLU81       0.0429
    133  CG        49.8590   14.5730  -17.6130 C.3    81  GLU81       0.1163
    134  CD        50.7790   14.7700  -18.7960 C.2    81  GLU81       0.3649
    135  OE1       50.3370   14.5580  -19.9510 O.co2  81  GLU81      -0.2457
    136  OE2       51.9560   15.1310  -18.5670 O.co2  81  GLU81      -0.2457
    137  N         45.2650   15.1770  -16.5400 N.am   82  GLY82      -0.1940
    138  CA        43.8990   15.6730  -16.5790 C.3    82  GLY82       0.2014
    139  C         43.4020   16.3350  -15.3050 C.2    82  GLY82       0.2639
    140  O         42.3340   16.9430  -15.2990 O.2    82  GLY82      -0.2714
    141  N         44.1650   16.2030  -14.2200 N.am   83  GLY83      -0.1939
    142  CA        43.7910   16.7780  -12.9300 C.3    83  GLY83       0.2014
    143  C         42.6130   16.0720  -12.2680 C.2    83  GLY83       0.2638
    144  O         42.3620   14.8930  -12.5370 O.2    83  GLY83      -0.2714
    145  N         41.8900   16.8030  -11.4140 N.am   84  GLU84      -0.1977
    146  CA        40.8130   16.2270  -10.5770 C.3    84  GLU84       0.1602
    147  C         39.4780   16.1920  -11.3030 C.2    84  GLU84       0.2287
    148  O         39.1330   17.1330  -12.0320 O.2    84  GLU84      -0.2864
    149  CB        40.6050   17.0440   -9.2900 C.3    84  GLU84       0.0415
    150  CG        41.8230   17.1870   -8.3670 C.3    84  GLU84       0.1163
    151  CD        41.5500   18.1010   -7.1610 C.2    84  GLU84       0.3649
    152  OE1       40.4210   18.6190   -7.0140 O.co2  84  GLU84      -0.2457
    153  OE2       42.4790   18.3200   -6.3590 O.co2  84  GLU84      -0.2457
    154  N         37.0010   19.3250  -10.9920 N.3    87  ASP87      -0.1239
    155  CA        37.0080   20.5040  -11.8590 C.3    87  ASP87       0.1674
    156  C         36.1300   20.3490  -13.0910 C.2    87  ASP87       0.2266
    157  O         35.7820   21.3390  -13.7420 O.2    87  ASP87      -0.2867
    158  CB        38.4460   20.8790  -12.2060 C.3    87  ASP87       0.1410
    159  CG        39.2380   21.2960  -10.9700 C.2    87  ASP87       0.3668
    160  OD1       38.9140   22.3490  -10.3770 O.co2  87  ASP87      -0.2456
    161  OD2       40.1630   20.5670  -10.5630 O.co2  87  ASP87      -0.2456
    162  N         37.3710   15.1280   -5.8270 N.3   127  GLU127     -0.1231
    163  CA        38.7590   15.5810   -5.6240 C.3   127  GLU127      0.1699
    164  C         39.7570   14.4310   -5.6450 C.2   127  GLU127      0.2592
    165  O         40.9240   14.6340   -5.9580 O.2   127  GLU127     -0.2718
    166  CB        38.9190   16.3270   -4.2950 C.3   127  GLU127      0.0402
    167  CG        38.1650   17.6680   -4.2300 C.3   127  GLU127      0.1161
    168  CD        36.7670   17.5500   -3.5980 C.2   127  GLU127      0.3649
    169  OE1       35.9910   16.6000   -3.9070 O.co2 127  GLU127     -0.2457
    170  OE2       36.4360   18.4360   -2.7750 O.co2 127  GLU127     -0.2457
    171  N         39.2810   13.2410   -5.2870 N.am  128  ASN128     -0.1974
    172  CA        40.1270   12.0450   -5.1980 C.3   128  ASN128      0.1688
    173  C         40.0330   11.1090   -6.3850 C.2   128  ASN128      0.2292
    174  O         40.5030    9.9770   -6.3310 O.2   128  ASN128     -0.2864
    175  CB        39.8290   11.3030   -3.8930 C.3   128  ASN128      0.1181
    176  CG        40.4550   11.9680   -2.7200 C.2   128  ASN128      0.2629
    177  OD1       41.4490   12.6910   -2.8680 O.2   128  ASN128     -0.2716
    178  ND2       39.8950   11.7340   -1.5280 N.am  128  ASN128     -0.0877
    179  N         41.3210   11.1490  -10.1390 N.3   130  LEU130     -0.1245
    180  CA        42.2200   11.8800  -11.0500 C.3   130  LEU130      0.1561
    181  C         42.1030   11.3940  -12.4810 C.2   130  LEU130      0.2260
    182  O         41.8930   10.2060  -12.7150 O.2   130  LEU130     -0.2867
    183  CB        43.6630   11.7580  -10.5710 C.3   130  LEU130      0.0270
    184  CG        43.8870   12.1090   -9.1020 C.3   130  LEU130      0.0019
    185  CD1       45.3530   11.8700   -8.7290 C.3   130  LEU130      0.0001
    186  CD2       43.4570   13.5610   -8.8080 C.3   130  LEU130      0.0001
    187  N         42.8060    8.1730   -5.7210 N.3   143  THR143     -0.1203
    188  CA        43.9140    8.5410   -4.8550 C.3   143  THR143      0.1994
    189  C         43.4250    8.7920   -3.4220 C.2   143  THR143      0.2617
    190  O         42.2280    8.6720   -3.1360 O.2   143  THR143     -0.2717
    191  CB        44.6860    9.7860   -5.4280 C.3   143  THR143      0.1784
    192  OG1       45.9050    9.9550   -4.6860 O.3   143  THR143     -0.2211
    193  CG2       43.8480   11.0660   -5.3460 C.3   143  THR143      0.0376
    194  N         44.3780    9.1180   -2.5470 N.am  144  ASP144     -0.1973
    195  CA        44.1690    9.5070   -1.1470 C.3   144  ASP144      0.1709
    196  C         43.6840    8.3710   -0.2660 C.2   144  ASP144      0.2293
    197  O         42.4720    8.1890   -0.0660 O.2   144  ASP144     -0.2864
    198  CB        43.2430   10.7260   -1.0220 C.3   144  ASP144      0.1436
    199  CG        42.9850   11.1190    0.4320 C.2   144  ASP144      0.3671
    200  OD1       43.7590   10.7220    1.3460 O.co2 144  ASP144     -0.2456
    201  OD2       41.9770   11.8150    0.6530 O.co2 144  ASP144     -0.2456
    202  N         44.4900    8.2260    2.9170 N.3   146  GLY146     -0.1210
    203  CA        44.8270    8.8270    4.2090 C.3   146  GLY146      0.1956
    204  C         43.9180    8.4380    5.3580 C.2   146  GLY146      0.2611
    205  O         44.3210    8.5180    6.5310 O.2   146  GLY146     -0.2717
    206  N         42.6980    8.0220    5.0380 N.am  147  HIS147     -0.1975
    207  CA        41.7720    7.5590    6.0880 C.3   147  HIS147      0.1656
    208  C         41.2070    6.1790    5.8000 C.2   147  HIS147      0.2291
    209  O         40.1820    5.7890    6.3790 O.2   147  HIS147     -0.2864
    210  CB        40.6630    8.5930    6.3170 C.3   147  HIS147      0.0771
    211  CG        41.1810    9.9090    6.8130 C.ar  147  HIS147      0.0820
    212  ND1       41.5920   10.9120    5.9590 N.ar  147  HIS147     -0.2267
    213  CD2       41.4000   10.3700    8.0690 C.ar  147  HIS147      0.1154
    214  CE1       42.0230   11.9420    6.6670 C.ar  147  HIS147      0.1986
    215  NE2       41.9220   11.6370    7.9500 N.ar  147  HIS147     -0.2212
@<TRIPOS>BOND
     1   135   134   ar
     2   134   136   ar
     3   134   133    1
     4   132   133    1
     5   132   129    1
     6   131   130    2
     7   130   137   am
     8   130   129    1
     9   138   137    1
    10   138   139    1
    11   129   128    1
    12   128   122   am
    13   139   140    2
    14   139   141   am
    15   119   117    1
    16   115   114    2
    17   122   123    2
    18   122   121    1
    19   141   142    1
    20   117   116    1
    21   117   118    1
    22     9     8    1
    23   121   120    1
    24   121   124    1
    25   157   156    2
    26   127   126    1
    27     8     7    1
    28   114   120   am
    29   114   113    1
    30     7     6    1
    31   126   125    1
    32   116   113    1
    33   156   155    1
    34   142   143    1
    35   124   125    1
    36   182   181    2
    37   113   112    1
    38   144   143    2
    39   181   180    1
    40   143   145   am
    41   158   155    1
    42   158   159    1
    43   148   147    2
    44     6     5    1
    45    24    22    1
    46   155   154    1
    47   145   146    1
    48   147   146    1
    49   180   183    1
    50   180   179    1
    51     5     2    1
    52   159   161   ar
    53   159   160   ar
    54    23    22    1
    55    22    21    1
    56   146   149    1
    57   183   184    1
    58     1     2    1
    59    42    43    1
    60    21    18    1
    61     2     3    1
    62    95    93    1
    63    20    19    2
    64   107   106    2
    65    13    12    2
    66    18    19    1
    67    18    17    1
    68   149   150    1
    69   184   186    1
    70   184   185    1
    71    46    43    1
    72   106   105    1
    73     4     3    2
    74     3    10   am
    75    43    44    1
    76    19    25   am
    77    12    17   am
    78    12    11    1
    79    93    92    1
    80   150   151    1
    81    89    88    1
    82    89    90    1
    83    89    92    1
    84    10    11    1
    85    90    91    2
    86    92    94    1
    87   110   109    1
    88    44    45    2
    89    11    14    1
    90   105   108    1
    91   105   104    1
    92    25    26    1
    93   109   108    1
    94   109   111    1
    95   151   152   ar
    96   151   153   ar
    97    40    39    1
    98    26    27    1
    99    14    16    1
   100    14    15    1
   101    38    37    2
   102   173   174    2
   103   173   172    1
   104   165   164    2
   105    37    36    1
   106   162   163    1
   107    39    36    1
   108    39    41    1
   109   187   188    1
   110   164   163    1
   111   164   171   am
   112   163   166    1
   113   191   193    1
   114   191   188    1
   115   191   192    1
   116   171   172    1
   117   172   175    1
   118    27    28    2
   119    36    35    1
   120   188   189    1
   121   166   167    1
   122   167   168    1
   123   169   168   ar
   124   175   176    1
   125    83    82    2
   126    47    48    1
   127   168   170   ar
   128    99    98    2
   129   189   190    2
   130   189   194   am
   131    87    85    1
   132    98    97    1
   133   177   176    2
   134   176   178   am
   135    48    51    1
   136    48    49    1
   137   194   195    1
   138    82    81    1
   139    51    52    1
   140    84    81    1
   141    84    85    1
   142   102   100    1
   143    81    80    1
   144    85    86    1
   145    53    52    1
   146    53    54    1
   147    97   100    1
   148    97    96    1
   149    49    50    2
   150   100   101    1
   151   195   198    1
   152   195   196    1
   153   198   199    1
   154    55    54    1
   155   196   197    2
   156   101   103    1
   157   199   201   ar
   158   199   200   ar
   159    79    77   ar
   160    74    73    2
   161    77    76    1
   162    77    78   ar
   163    76    75    1
   164    73    72    1
   165    56    57    1
   166    34    33    1
   167    63    61    1
   168    61    60    1
   169   202   203    1
   170    75    72    1
   171    72    71    1
   172    57    60    1
   173    57    58    1
   174    31    32    2
   175    31    30    1
   176    29    30    1
   177    60    62    1
   178   203   204    1
   179    33    30    1
   180    69    68    1
   181    58    59    2
   182   206   204   am
   183   206   207    1
   184    67    66    2
   185   204   205    2
   186   208   207    1
   187   208   209    2
   188   212   214   ar
   189   212   211   ar
   190   207   210    1
   191    66    65    1
   192    68    70    1
   193    68    65    1
   194    65    64    1
   195   210   211    1
   196   214   215   ar
   197   211   213   ar
   198   215   213   ar
