@<TRIPOS>MOLECULE
tmp/2ychA01.pdb
 210 197 0 0 0
SMALL
GASTEIGER

@<TRIPOS>ATOM
      1  N          7.7650    4.4210   16.2440 N.3     9  GLU9       -0.1231
      2  CA         8.6130    4.9700   17.2860 C.3     9  GLU9        0.1699
      3  C          9.6840    5.8150   16.6620 C.2     9  GLU9        0.2592
      4  O         10.5420    5.2920   15.8620 O.2     9  GLU9       -0.2718
      5  CB         9.2740    3.8580   18.1350 C.3     9  GLU9        0.0402
      6  CG        10.2270    4.5300   19.2310 C.3     9  GLU9        0.1161
      7  CD        10.9070    3.5210   20.0920 C.2     9  GLU9        0.3649
      8  OE1       10.8440    2.2680   19.7950 O.co2   9  GLU9       -0.2457
      9  OE2       11.5430    3.9550   21.0810 O.co2   9  GLU9       -0.2457
     10  N          9.6350    7.1190   16.9990 N.am   10  ILE10      -0.1966
     11  CA        10.6790    8.0020   16.6980 C.3    10  ILE10       0.1727
     12  C         11.8510    7.8110   17.6830 C.2    10  ILE10       0.2617
     13  O         12.0690    8.5900   18.5650 O.2    10  ILE10      -0.2715
     14  CB        10.1610    9.4480   16.6480 C.3    10  ILE10       0.0290
     15  CG1        9.0180    9.5280   15.6130 C.3    10  ILE10       0.0022
     16  CG2       11.2400   10.3100   16.2530 C.3    10  ILE10       0.0023
     17  CD1        8.0670   10.7470   15.7380 C.3    10  ILE10       0.0001
     18  N         12.6200    6.7580   17.5300 N.am   11  GLY11      -0.1940
     19  CA        13.6940    6.5140   18.4600 C.3    11  GLY11       0.2014
     20  C         14.8890    7.3630   18.2190 C.2    11  GLY11       0.2639
     21  O         15.0490    7.9060   17.1250 O.2    11  GLY11      -0.2714
     22  N         15.7230    7.5160   19.2520 N.am   12  ALA12      -0.1963
     23  CA        16.9300    8.3250   19.1220 C.3    12  ALA12       0.1728
     24  C         18.0240    7.6140   18.2970 C.2    12  ALA12       0.2617
     25  O         18.9510    8.2480   17.8220 O.2    12  ALA12      -0.2715
     26  CB        17.4540    8.6870   20.5210 C.3    12  ALA12       0.0334
     27  N         17.9770    6.2880   18.2390 N.am   13  SER13      -0.1936
     28  CA        18.9540    5.4960   17.4900 C.3    13  SER13       0.2055
     29  C         18.3320    4.9660   16.1210 C.2    13  SER13       0.2642
     30  O         19.0100    4.9620   15.1060 O.2    13  SER13      -0.2714
     31  CB        19.3540    4.3330   18.3690 C.3    13  SER13       0.2130
     32  OG        19.9850    3.3360   17.6120 O.3    13  SER13      -0.2179
     33  N         17.0340    4.6140   16.1130 N.am   14  ALA14      -0.1977
     34  CA        16.3330    3.9970   15.0330 C.3    14  ALA14       0.1597
     35  C         14.8890    4.4680   14.9810 C.2    14  ALA14       0.2287
     36  O         14.1930    4.6040   16.0520 O.2    14  ALA14      -0.2864
     37  CB        16.3870    2.3940   15.1220 C.3    14  ALA14       0.0319
     38  N         11.3270    3.4040   13.7450 N.3    16  LYS16      -0.1245
     39  CA        10.8200    2.0490   13.5810 C.3    16  LYS16       0.1561
     40  C          9.3070    2.0710   13.3470 C.2    16  LYS16       0.2260
     41  O          8.5810    2.8570   13.9900 O.2    16  LYS16      -0.2867
     42  CB        11.1390    1.1360   14.7750 C.3    16  LYS16       0.0271
     43  CG        12.6780    0.9200   14.9410 C.3    16  LYS16       0.0035
     44  CD        13.0490    0.3560   16.3330 C.3    16  LYS16       0.0206
     45  CE        13.0920    1.6430   17.2880 C.3    16  LYS16       0.1093
     46  NZ        13.8560    1.3000   18.5720 N.3    16  LYS16      -0.1314
     47  N         10.8750    9.7170   26.2290 N.3    73  ASN73      -0.1240
     48  CA        10.8270    9.7630   27.6840 C.3    73  ASN73       0.1653
     49  C         11.4010   11.0820   28.2720 C.2    73  ASN73       0.2266
     50  O         10.9850   11.4910   29.3380 O.2    73  ASN73      -0.2867
     51  CB        11.5320    8.5750   28.3020 C.3    73  ASN73       0.1155
     52  CG        10.8920    7.2760   27.9210 C.2    73  ASN73       0.2627
     53  OD1        9.7400    7.2290   27.5560 O.2    73  ASN73      -0.2716
     54  ND2       11.6350    6.2370   27.9830 N.am   73  ASN73      -0.0877
     55  N          6.2550    5.7610   25.9260 N.3   157  LYS157     -0.1245
     56  CA         6.9570    4.5320   25.6920 C.3   157  LYS157      0.1561
     57  C          7.0000    3.5170   26.7910 C.2   157  LYS157      0.2260
     58  O          7.0230    2.2950   26.4940 O.2   157  LYS157     -0.2867
     59  CB         8.4440    4.8540   25.3040 C.3   157  LYS157      0.0271
     60  CG         8.5140    5.6380   24.0030 C.3   157  LYS157      0.0035
     61  CD         9.9400    5.6590   23.4920 C.3   157  LYS157      0.0206
     62  CE        10.1470    6.7370   22.4810 C.3   157  LYS157      0.1093
     63  NZ        11.6700    6.6190   22.2180 N.3   157  LYS157     -0.1314
     64  N         13.2800   -0.9100   29.9280 N.3   181  ASP181     -0.1225
     65  CA        13.5220   -0.6500   28.4840 C.3   181  ASP181      0.1805
     66  C         14.7590    0.1750   28.4250 C.2   181  ASP181      0.2598
     67  O         14.7150    1.3670   28.7000 O.2   181  ASP181     -0.2718
     68  CB        12.3430    0.0810   27.8090 C.3   181  ASP181      0.1424
     69  CG        12.5850    0.2950   26.2590 C.2   181  ASP181      0.3668
     70  OD1       13.7710    0.3290   25.8320 O.co2 181  ASP181     -0.2456
     71  OD2       11.6170    0.4990   25.4880 O.co2 181  ASP181     -0.2456
     72  N         15.8900   -0.4210   28.0960 N.am  182  ILE182     -0.1966
     73  CA        17.1050    0.3670   27.9480 C.3   182  ILE182      0.1727
     74  C         17.2100    0.8630   26.4800 C.2   182  ILE182      0.2617
     75  O         17.3680    0.0380   25.5370 O.2   182  ILE182     -0.2715
     76  CB        18.2820   -0.5180   28.2400 C.3   182  ILE182      0.0290
     77  CG1       18.0500   -1.2070   29.6170 C.3   182  ILE182      0.0022
     78  CG2       19.5380    0.3220   28.1540 C.3   182  ILE182      0.0023
     79  CD1       19.1700   -2.1070   30.0470 C.3   182  ILE182      0.0001
     80  N         17.0530    2.1610   26.2900 N.am  183  GLY183     -0.1940
     81  CA        17.0050    2.7320   24.9860 C.3   183  GLY183      0.2014
     82  C         18.3620    3.3060   24.6330 C.2   183  GLY183      0.2639
     83  O         19.3940    2.9270   25.2020 O.2   183  GLY183     -0.2714
     84  N         18.3500    4.2830   23.7440 N.am  184  ALA184     -0.1963
     85  CA        19.5980    4.8830   23.2880 C.3   184  ALA184      0.1728
     86  C         19.6590    6.2110   24.0030 C.2   184  ALA184      0.2616
     87  O         20.7410    6.7580   24.1640 O.2   184  ALA184     -0.2715
     88  CB        19.5640    5.1310   21.7790 C.3   184  ALA184      0.0334
     89  N         18.5060    6.7220   24.4240 N.am  185  GLU185     -0.1963
     90  CA        18.4470    8.0650   25.0450 C.3   185  GLU185      0.1733
     91  C         17.9920    7.9640   26.5580 C.2   185  GLU185      0.2617
     92  O         18.1130    8.8950   27.2950 O.2   185  GLU185     -0.2715
     93  CB        17.3260    8.7880   24.2730 C.3   185  GLU185      0.0429
     94  CG        17.1850   10.2210   24.4270 C.3   185  GLU185      0.1163
     95  CD        15.9800   10.7900   23.5690 C.2   185  GLU185      0.3649
     96  OE1       14.8150   10.2780   23.5970 O.co2 185  GLU185     -0.2457
     97  OE2       16.2670   11.7620   22.8260 O.co2 185  GLU185     -0.2457
     98  N         17.3690    6.8810   26.9860 N.am  186  SER186     -0.1950
     99  CA        16.9190    6.7900   28.3840 C.3   186  SER186      0.1924
    100  C         16.7010    5.3670   28.6750 C.2   186  SER186      0.2314
    101  O         16.7290    4.5000   27.7370 O.2   186  SER186     -0.2863
    102  CB        15.6470    7.6140   28.6520 C.3   186  SER186      0.2116
    103  OG        14.4720    6.9760   28.0610 O.3   186  SER186     -0.2180
    104  N         21.9860    3.3890   26.2160 N.3   207  GLY207     -0.1210
    105  CA        22.9170    2.8840   25.2200 C.3   207  GLY207      0.1956
    106  C         23.9150    3.9460   24.7770 C.2   207  GLY207      0.2611
    107  O         25.0530    3.6520   24.6680 O.2   207  GLY207     -0.2717
    108  N         23.5010    5.1790   24.5640 N.am  208  LYS208     -0.1979
    109  CA        24.4250    6.2420   24.1790 C.3   208  LYS208      0.1596
    110  C         25.5980    6.3390   25.1520 C.2   208  LYS208      0.2287
    111  O         26.7210    6.6490   24.7480 O.2   208  LYS208     -0.2864
    112  CB        23.7440    7.6000   24.1870 C.3   208  LYS208      0.0298
    113  CG        24.4590    8.6270   23.3010 C.3   208  LYS208      0.0038
    114  CD        24.2790    8.2980   21.7680 C.3   208  LYS208      0.0206
    115  CE        25.0670    9.2700   20.8330 C.3   208  LYS208      0.1093
    116  NZ        24.6420   10.7530   20.8400 N.3   208  LYS208     -0.1314
    117  N         28.1740    3.8240   24.1940 N.3   211  THR211     -0.1218
    118  CA        28.8830    4.2330   22.9800 C.3   211  THR211      0.1862
    119  C         29.8510    5.3640   23.3030 C.2   211  THR211      0.2287
    120  O         31.0340    5.3710   22.8280 O.2   211  THR211     -0.2866
    121  CB        27.8830    4.7600   21.9050 C.3   211  THR211      0.1770
    122  OG1       26.9520    3.7220   21.6650 O.3   211  THR211     -0.2211
    123  CG2       28.5920    5.1190   20.5540 C.3   211  THR211      0.0375
    124  N         29.9500    2.7880   18.1050 N.3   226  GLU226     -0.1245
    125  CA        28.6920    2.0640   18.1960 C.3   226  GLU226      0.1567
    126  C         28.8160    0.6210   17.6610 C.2   226  GLU226      0.2260
    127  O         28.3230   -0.3700   18.2780 O.2   226  GLU226     -0.2867
    128  CB        27.5930    2.8700   17.4420 C.3   226  GLU226      0.0388
    129  CG        26.2140    2.8550   18.1960 C.3   226  GLU226      0.1160
    130  CD        25.1850    2.0080   17.4910 C.2   226  GLU226      0.3649
    131  OE1       25.3170    0.7450   17.3940 O.co2 226  GLU226     -0.2457
    132  OE2       24.2220    2.6410   17.0010 O.co2 226  GLU226     -0.2457
    133  N         30.9340   -1.3290   19.9720 N.3   229  LYS229     -0.1231
    134  CA        30.0010   -1.7980   21.0540 C.3   229  LYS229      0.1693
    135  C         29.2310   -3.0820   20.6610 C.2   229  LYS229      0.2591
    136  O         29.2440   -4.0570   21.4130 O.2   229  LYS229     -0.2718
    137  CB        29.0230   -0.6710   21.4250 C.3   229  LYS229      0.0285
    138  CG        28.1740   -0.9260   22.7170 C.3   229  LYS229      0.0035
    139  CD        27.3450    0.3620   23.1550 C.3   229  LYS229      0.0206
    140  CE        26.3370    0.7420   22.1010 C.3   229  LYS229      0.1093
    141  NZ        25.1700    1.4510   22.7320 N.3   229  LYS229     -0.1314
    142  N         28.5800   -3.0850   19.4950 N.am  230  ARG230     -0.1980
    143  CA        27.7850   -4.2470   19.0130 C.3   230  ARG230      0.1597
    144  C         28.5730   -5.5720   18.8240 C.2   230  ARG230      0.2287
    145  O         28.1330   -6.6620   19.2720 O.2   230  ARG230     -0.2864
    146  CB        26.9580   -3.8800   17.7270 C.3   230  ARG230      0.0334
    147  CG        25.6330   -3.1390   18.0260 C.3   230  ARG230      0.0492
    148  CD        24.7040   -2.6490   16.8680 C.3   230  ARG230      0.2205
    149  NE        25.3200   -1.6570   15.9890 N.pl3 230  ARG230     -0.0865
    150  CZ        26.0220   -1.9910   14.8930 C.cat 230  ARG230      0.5346
    151  NH1       26.1980   -3.2720   14.5710 N.pl3 230  ARG230      0.1354
    152  NH2       26.5720   -1.0650   14.1270 N.pl3 230  ARG230      0.1354
    153  N         14.4820   -3.0710   24.6100 N.3   270  GLY270     -0.1210
    154  CA        15.2080   -1.9470   24.1230 C.3   270  GLY270      0.1956
    155  C         16.5250   -2.4880   23.6700 C.2   270  GLY270      0.2612
    156  O         17.0630   -3.4380   24.2820 O.2   270  GLY270     -0.2717
    157  N         17.0960   -1.8580   22.6610 N.am  271  GLY271     -0.1942
    158  CA        18.3700   -2.4010   22.1090 C.3   271  GLY271      0.2014
    159  C         19.5380   -2.3280   23.1110 C.2   271  GLY271      0.2639
    160  O         20.4840   -3.0820   23.0020 O.2   271  GLY271     -0.2714
    161  N         19.5370   -1.3460   24.0330 N.am  272  GLY272     -0.1954
    162  CA        20.6360   -1.2440   25.0080 C.3   272  GLY272      0.1869
    163  C         20.6550   -2.5330   25.8650 C.2   272  GLY272      0.2309
    164  O         21.6300   -2.8080   26.5070 O.2   272  GLY272     -0.2863
    165  N         20.6570   -5.4630   24.8370 N.3   274  LYS274     -0.1231
    166  CA        21.3330   -6.5950   24.1740 C.3   274  LYS274      0.1693
    167  C         22.8560   -6.6390   24.3380 C.2   274  LYS274      0.2592
    168  O         23.4760   -7.6030   23.8490 O.2   274  LYS274     -0.2718
    169  CB        20.9590   -6.6540   22.6540 C.3   274  LYS274      0.0285
    170  CG        19.4760   -6.2850   22.3530 C.3   274  LYS274      0.0035
    171  CD        18.8820   -6.8740   21.0530 C.3   274  LYS274      0.0206
    172  CE        19.6270   -6.4310   19.8500 C.3   274  LYS274      0.1093
    173  NZ        18.9390   -6.8210   18.5610 N.3   274  LYS274     -0.1314
    174  N         23.4690   -5.6060   24.8960 N.am  275  LEU275     -0.1966
    175  CA        24.9020   -5.6330   25.2890 C.3   275  LEU275      0.1728
    176  C         25.2310   -6.9910   25.8490 C.2   275  LEU275      0.2616
    177  O         24.5550   -7.4110   26.7870 O.2   275  LEU275     -0.2715
    178  CB        25.1540   -4.7400   26.4760 C.3   275  LEU275      0.0311
    179  CG        26.4020   -3.8610   26.5210 C.3   275  LEU275      0.0022
    180  CD1       26.7440   -3.6850   27.9530 C.3   275  LEU275      0.0001
    181  CD2       27.5670   -4.3480   25.7280 C.3   275  LEU275      0.0001
    182  N         26.2510   -7.6640   25.3250 N.am  276  ARG276     -0.1977
    183  CA        26.4310   -9.0920   25.6320 C.3   276  ARG276      0.1597
    184  C         26.6520   -9.3260   27.1490 C.2   276  ARG276      0.2287
    185  O         27.4040   -8.5930   27.8180 O.2   276  ARG276     -0.2864
    186  CB        27.5880   -9.6910   24.8220 C.3   276  ARG276      0.0334
    187  CG        27.2020  -11.0300   24.2380 C.3   276  ARG276      0.0492
    188  CD        28.1950  -11.5100   23.1360 C.3   276  ARG276      0.2205
    189  NE        28.1400  -12.9820   22.9860 N.pl3 276  ARG276     -0.0865
    190  CZ        27.6040  -13.6420   21.9430 C.cat 276  ARG276      0.5346
    191  NH1       27.0830  -12.9730   20.9080 N.pl3 276  ARG276      0.1354
    192  NH2       27.5990  -14.9820   21.9270 N.pl3 276  ARG276      0.1354
    193  N         15.4600  -11.6850   17.0350 N.3   313  GLU313     -0.1245
    194  CA        16.6680  -10.9260   17.2070 C.3   313  GLU313      0.1567
    195  C         16.3500   -9.4310   17.3870 C.2   313  GLU313      0.2260
    196  O         17.0430   -8.7410   18.1150 O.2   313  GLU313     -0.2867
    197  CB        17.5810  -11.0710   15.9610 C.3   313  GLU313      0.0388
    198  CG        19.0610  -11.3010   16.2250 C.3   313  GLU313      0.1160
    199  CD        19.8480  -10.0570   16.7260 C.2   313  GLU313      0.3649
    200  OE1       19.8590   -8.9890   16.0370 O.co2 313  GLU313     -0.2457
    201  OE2       20.4920  -10.1820   17.8120 O.co2 313  GLU313     -0.2457
    202  N         14.3890   -4.0510   20.3660 N.3   317  GLU317     -0.1245
    203  CA        14.2500   -2.7260   19.7110 C.3   317  GLU317      0.1567
    204  C         12.8200   -2.4800   19.2830 C.2   317  GLU317      0.2260
    205  O         12.4000   -1.3430   19.2710 O.2   317  GLU317     -0.2867
    206  CB        15.0430   -2.6380   18.4120 C.3   317  GLU317      0.0388
    207  CG        16.4900   -2.8130   18.5510 C.3   317  GLU317      0.1160
    208  CD        17.0140   -4.2750   18.3930 C.2   317  GLU317      0.3649
    209  OE1       16.3450   -5.2660   18.7810 O.co2 317  GLU317     -0.2457
    210  OE2       18.2140   -4.3730   17.9960 O.co2 317  GLU317     -0.2457
@<TRIPOS>BOND
     1    40    39    1
     2    40    41    2
     3    39    38    1
     4    39    42    1
     5   152   150    1
     6   151   150    1
     7    42    43    1
     8   150   149    2
     9    43    44    1
    10    35    34    1
    11    35    36    2
    12    34    37    1
    13    34    33    1
    14    30    29    2
    15    15    17    1
    16    15    14    1
    17     4     3    2
    18   197   198    1
    19   197   194    1
    20   149   148    1
    21   200   199   ar
    22    33    29   am
    23    29    28    1
    24   198   199    1
    25     1     2    1
    26    16    14    1
    27    44    45    1
    28    14    11    1
    29     3    10   am
    30     3     2    1
    31    11    10    1
    32    11    12    1
    33   199   201   ar
    34   148   147    1
    35   132   130   ar
    36   193   194    1
    37    21    20    2
    38   194   195    1
    39     2     5    1
    40    45    46    1
    41   195   196    2
    42   131   130   ar
    43   128   125    1
    44   128   129    1
    45    28    27    1
    46    28    31    1
    47   130   129    1
    48    18    12   am
    49    18    19    1
    50    32    31    1
    51   126   125    1
    52   126   127    2
    53    12    13    2
    54   146   147    1
    55   146   143    1
    56    25    24    2
    57   210   208   ar
    58   124   125    1
    59     5     6    1
    60    20    19    1
    61    20    22   am
    62    27    24   am
    63    24    23    1
    64   208   207    1
    65   208   209   ar
    66   206   207    1
    67   206   203    1
    68   173   172    1
    69   144   143    1
    70   144   145    2
    71   143   142    1
    72    23    22    1
    73    23    26    1
    74     6     7    1
    75   205   204    2
    76   204   203    1
    77   142   135   am
    78   203   202    1
    79     8     7   ar
    80   172   171    1
    81   133   134    1
    82     7     9   ar
    83   123   121    1
    84   135   134    1
    85   135   136    2
    86   115   116    1
    87   115   114    1
    88   191   190    1
    89   171   170    1
    90   134   137    1
    91   137   138    1
    92   122   121    1
    93   114   113    1
    94    88    85    1
    95   121   118    1
    96   192   190    1
    97   190   189    2
    98   140   141    1
    99   140   139    1
   100   158   157    1
   101   158   159    1
   102    63    62    1
   103   170   169    1
   104    62    61    1
   105   169   166    1
   106   157   155   am
   107   138   139    1
   108    97    95   ar
   109   120   119    2
   110   118   119    1
   111   118   117    1
   112   189   188    1
   113   160   159    2
   114   159   161   am
   115   188   187    1
   116    85    84    1
   117    85    86    1
   118   113   112    1
   119    61    60    1
   120    95    96   ar
   121    95    94    1
   122   155   154    1
   123   155   156    2
   124    84    82   am
   125   168   167    2
   126    60    59    1
   127    86    87    2
   128    86    89   am
   129   161   162    1
   130   154   153    1
   131   166   167    1
   132   166   165    1
   133   109   112    1
   134   109   108    1
   135   109   110    1
   136   187   186    1
   137    93    94    1
   138    93    90    1
   139   167   174   am
   140    89    90    1
   141   108   106   am
   142    82    81    1
   143    82    83    2
   144   107   106    2
   145   111   110    2
   146   106   105    1
   147   186   183    1
   148   174   175    1
   149    81    80    1
   150   162   163    1
   151    90    91    1
   152   105   104    1
   153   175   176    1
   154   175   178    1
   155    59    56    1
   156   182   183    1
   157   182   176   am
   158    71    69   ar
   159    75    74    2
   160   183   184    1
   161    56    55    1
   162    56    57    1
   163   181   179    1
   164    70    69   ar
   165   176   177    2
   166   163   164    2
   167    47    48    1
   168    69    68    1
   169    80    74   am
   170   178   179    1
   171    74    73    1
   172    58    57    2
   173   179   180    1
   174    91    98   am
   175    91    92    2
   176    98    99    1
   177   184   185    2
   178    53    52    2
   179    48    49    1
   180    48    51    1
   181   101   100    2
   182    68    65    1
   183    52    54   am
   184    52    51    1
   185    73    72    1
   186    73    76    1
   187   103   102    1
   188    72    66   am
   189    78    76    1
   190    76    77    1
   191    49    50    2
   192    99   102    1
   193    99   100    1
   194    66    65    1
   195    66    67    2
   196    65    64    1
   197    77    79    1
