@<TRIPOS>MOLECULE
tmp/2yckA00.pdb
 190 174 0 0 0
SMALL
GASTEIGER

@<TRIPOS>ATOM
      1  N         -3.0660    0.4390   19.1770 N.3    16  GLU16      -0.1231
      2  CA        -3.8770    1.6110   19.4970 C.3    16  GLU16       0.1699
      3  C         -5.1120    1.3420   20.3450 C.2    16  GLU16       0.2592
      4  O         -5.7690    2.2860   20.7800 O.2    16  GLU16      -0.2718
      5  CB        -4.3620    2.2650   18.1970 C.3    16  GLU16       0.0402
      6  CG        -5.5480    1.5520   17.5460 C.3    16  GLU16       0.1161
      7  CD        -5.8880    2.1340   16.1750 C.2    16  GLU16       0.3649
      8  OE1       -5.1310    3.0030   15.6940 O.co2  16  GLU16      -0.2457
      9  OE2       -6.9080    1.7270   15.5830 O.co2  16  GLU16      -0.2457
     10  N         -5.4360    0.0730   20.5740 N.am   17  ARG17      -0.1980
     11  CA        -6.8200   -0.2900   20.8930 C.3    17  ARG17       0.1597
     12  C         -7.2760   -0.0560   22.3450 C.2    17  ARG17       0.2287
     13  O         -8.4810    0.0670   22.6150 O.2    17  ARG17      -0.2864
     14  CB        -7.1000   -1.7320   20.4470 C.3    17  ARG17       0.0334
     15  CG        -8.5520   -2.1900   20.6170 C.3    17  ARG17       0.0492
     16  CD        -9.5160   -1.2210   19.9540 C.3    17  ARG17       0.2205
     17  NE       -10.8730   -1.7540   19.8300 N.pl3  17  ARG17      -0.0865
     18  CZ       -11.7730   -1.7700   20.8150 C.cat  17  ARG17       0.5346
     19  NH1      -11.4610   -1.3000   22.0170 N.pl3  17  ARG17       0.1354
     20  NH2      -12.9860   -2.2680   20.6030 N.pl3  17  ARG17       0.1354
     21  N         -8.0140    2.2210   24.6090 N.3    19  ASN19      -0.1240
     22  CA        -8.2260    3.6540   24.5240 C.3    19  ASN19       0.1653
     23  C         -9.6700    3.9370   24.8680 C.2    19  ASN19       0.2266
     24  O        -10.5820    3.4710   24.1870 O.2    19  ASN19      -0.2867
     25  CB        -7.9080    4.1320   23.0850 C.3    19  ASN19       0.1155
     26  CG        -8.0860    5.6340   22.9060 C.2    19  ASN19       0.2627
     27  OD1       -8.9930    6.2510   23.4800 O.2    19  ASN19      -0.2716
     28  ND2       -7.2280    6.2270   22.0930 N.am   19  ASN19      -0.0877
     29  N        -11.6960    5.9520   24.2660 N.3    21  MET21      -0.1230
     30  CA       -12.6180    6.4410   23.2500 C.3    21  MET21       0.1702
     31  C        -13.4910    5.2810   22.7670 C.2    21  MET21       0.2592
     32  O        -14.5780    5.4850   22.2330 O.2    21  MET21      -0.2718
     33  CB       -11.8670    7.0450   22.0730 C.3    21  MET21       0.0401
     34  CG       -11.5610    6.0310   20.9920 C.3    21  MET21       0.0596
     35  SD       -11.1680    6.7580   19.3930 S.3    21  MET21      -0.1393
     36  CE        -9.4500    7.2090   19.6240 C.3    21  MET21       0.0692
     37  N        -13.0110    4.0580   22.9690 N.am   22  PHE22      -0.1962
     38  CA       -13.7760    2.8720   22.6160 C.3    22  PHE22       0.1771
     39  C        -14.6830    2.4940   23.7710 C.2    22  PHE22       0.2619
     40  O        -14.2600    2.4760   24.9280 O.2    22  PHE22      -0.2715
     41  CB       -12.8610    1.6930   22.3030 C.3    22  PHE22       0.0574
     42  CG       -12.1120    1.8270   21.0200 C.ar   22  PHE22      -0.0200
     43  CD1      -12.7050    1.4660   19.8190 C.ar   22  PHE22      -0.0042
     44  CD2      -10.8060    2.2830   21.0120 C.ar   22  PHE22      -0.0042
     45  CE1      -12.0070    1.5720   18.6250 C.ar   22  PHE22      -0.0003
     46  CE2      -10.0940    2.3880   19.8260 C.ar   22  PHE22      -0.0003
     47  CZ       -10.6990    2.0380   18.6290 C.ar   22  PHE22      -0.0000
     48  N        -15.9260    2.1690   23.4460 N.am   23  LYS23      -0.1977
     49  CA       -16.9240    1.8990   24.4610 C.3    23  LYS23       0.1596
     50  C        -16.5100    0.7560   25.3850 C.2    23  LYS23       0.2287
     51  O        -16.5550    0.9030   26.6080 O.2    23  LYS23      -0.2864
     52  CB       -18.2730    1.6110   23.8040 C.3    23  LYS23       0.0298
     53  CG       -19.4220    1.4820   24.7710 C.3    23  LYS23       0.0038
     54  CD       -20.7080    1.0940   24.0550 C.3    23  LYS23       0.0206
     55  CE       -21.2820    2.2670   23.2720 C.3    23  LYS23       0.1093
     56  NZ       -22.6640    1.9850   22.7670 N.3    23  LYS23      -0.1314
     57  N         -0.5160    1.3430   23.3480 N.3    53  ASP53      -0.1239
     58  CA        -0.9530    2.6780   23.7430 C.3    53  ASP53       0.1674
     59  C         -1.9630    2.5000   24.8710 C.2    53  ASP53       0.2266
     60  O         -2.7250    1.5260   24.8920 O.2    53  ASP53      -0.2867
     61  CB        -1.6140    3.4170   22.5760 C.3    53  ASP53       0.1410
     62  CG        -1.6560    4.9360   22.7720 C.2    53  ASP53       0.3668
     63  OD1       -0.5810    5.5630   22.9200 O.co2  53  ASP53      -0.2456
     64  OD2       -2.7720    5.5060   22.7620 O.co2  53  ASP53      -0.2456
     65  N         -4.7830    4.8040   26.9370 N.3    55  ASN55      -0.1240
     66  CA        -5.4790    6.0700   26.9790 C.3    55  ASN55       0.1653
     67  C         -6.7760    5.8950   27.7640 C.2    55  ASN55       0.2266
     68  O         -7.5840    5.0180   27.4570 O.2    55  ASN55      -0.2867
     69  CB        -5.7440    6.5650   25.5440 C.3    55  ASN55       0.1155
     70  CG        -6.3310    7.9640   25.5070 C.2    55  ASN55       0.2627
     71  OD1       -7.2140    8.3020   26.2960 O.2    55  ASN55      -0.2716
     72  ND2       -5.8440    8.7840   24.5860 N.am   55  ASN55      -0.0877
     73  N         -0.7130    7.3640   27.1660 N.3    85  ASP85      -0.1239
     74  CA        -1.3730    8.3160   26.2830 C.3    85  ASP85       0.1674
     75  C         -2.3390    9.2300   27.0280 C.2    85  ASP85       0.2266
     76  O         -3.5050    8.8850   27.2170 O.2    85  ASP85      -0.2867
     77  CB        -2.1140    7.5470   25.1790 C.3    85  ASP85       0.1410
     78  CG        -2.6810    8.4520   24.1140 C.2    85  ASP85       0.3668
     79  OD1       -2.6190    9.6840   24.3000 O.co2  85  ASP85      -0.2456
     80  OD2       -3.1780    7.9290   23.0810 O.co2  85  ASP85      -0.2456
     81  N          3.2890    9.7950   25.9240 N.3   106  ASN106     -0.1240
     82  CA         2.5020   10.2500   24.7960 C.3   106  ASN106      0.1653
     83  C          1.4780   11.2830   25.2520 C.2   106  ASN106      0.2266
     84  O          0.3440   10.9260   25.5510 O.2   106  ASN106     -0.2867
     85  CB         1.7770    9.0400   24.1780 C.3   106  ASN106      0.1155
     86  CG         0.9830    9.4050   22.9280 C.2   106  ASN106      0.2627
     87  OD1        1.1580   10.4890   22.3820 O.2   106  ASN106     -0.2716
     88  ND2        0.1050    8.4970   22.4710 N.am  106  ASN106     -0.0877
     89  N          7.1380   11.0400   23.0630 N.3   130  ILE130     -0.1245
     90  CA         6.6250   11.5700   21.8140 C.3   130  ILE130      0.1561
     91  C          6.4640   13.0680   21.9660 C.2   130  ILE130      0.2260
     92  O          5.9670   13.5430   22.9900 O.2   130  ILE130     -0.2867
     93  CB         5.2610   10.9580   21.4640 C.3   130  ILE130      0.0252
     94  CG1        5.3920    9.4430   21.3170 C.3   130  ILE130      0.0019
     95  CG2        4.6950   11.5920   20.1920 C.3   130  ILE130      0.0019
     96  CD1        4.0910    8.7580   21.0010 C.3   130  ILE130      0.0001
     97  N          4.6870   16.1880   19.9120 N.3   132  LEU132     -0.1245
     98  CA         3.7910   16.5820   18.8410 C.3   132  LEU132      0.1561
     99  C          4.2140   17.9160   18.2690 C.2   132  LEU132      0.2260
    100  O          4.5050   18.8380   19.0340 O.2   132  LEU132     -0.2867
    101  CB         2.3710   16.7560   19.3800 C.3   132  LEU132      0.0270
    102  CG         1.7570   15.6780   20.2520 C.3   132  LEU132      0.0019
    103  CD1        0.3340   16.1090   20.6290 C.3   132  LEU132      0.0001
    104  CD2        1.7550   14.3510   19.5120 C.3   132  LEU132      0.0001
    105  N          6.0160   13.6150   16.3790 N.3   170  ASP170     -0.1239
    106  CA         4.7170   13.3690   15.7370 C.3   170  ASP170      0.1674
    107  C          4.2220   14.6460   15.0480 C.2   170  ASP170      0.2266
    108  O          3.8570   15.6150   15.7080 O.2   170  ASP170     -0.2867
    109  CB         3.7250   12.9040   16.8010 C.3   170  ASP170      0.1410
    110  CG         2.3700   12.5060   16.2370 C.2   170  ASP170      0.3668
    111  OD1        2.0030   12.8820   15.1000 O.co2 170  ASP170     -0.2456
    112  OD2        1.6500   11.8090   16.9730 O.co2 170  ASP170     -0.2456
    113  N          1.5500   14.9950   13.4930 N.3   172  LEU172     -0.1231
    114  CA         0.0870   15.0690   13.5960 C.3   172  LEU172      0.1693
    115  C         -0.6770   14.9020   12.2680 C.2   172  LEU172      0.2591
    116  O         -0.9700   15.8770   11.5740 O.2   172  LEU172     -0.2718
    117  CB        -0.3230   16.3790   14.2620 C.3   172  LEU172      0.0284
    118  CG        -0.0200   16.4800   15.7520 C.3   172  LEU172      0.0019
    119  CD1       -0.2180   17.9030   16.2380 C.3   172  LEU172      0.0001
    120  CD2       -0.9050   15.5080   16.5170 C.3   172  LEU172      0.0001
    121  N         -1.0090   13.6650   11.9270 N.am  173  ILE173     -0.1980
    122  CA        -1.8010   13.4160   10.7280 C.3   173  ILE173      0.1595
    123  C         -3.2910   13.6780   11.0260 C.2   173  ILE173      0.2287
    124  O         -3.7550   13.4990   12.1450 O.2   173  ILE173     -0.2864
    125  CB        -1.5490   11.9780   10.1470 C.3   173  ILE173      0.0276
    126  CG1       -2.3510   11.7480    8.8580 C.3   173  ILE173      0.0022
    127  CG2       -1.8340   10.8850   11.1840 C.3   173  ILE173      0.0022
    128  CD1       -2.0830   12.7970    7.8130 C.3   173  ILE173      0.0001
    129  N          6.8620    9.3350   14.6360 N.3   204  VAL204     -0.1245
    130  CA         5.7340    8.4650   14.9310 C.3   204  VAL204      0.1561
    131  C          4.4550    9.1720   14.4760 C.2   204  VAL204      0.2260
    132  O          4.4470   10.3950   14.2830 O.2   204  VAL204     -0.2867
    133  CB         5.6780    8.1440   16.4570 C.3   204  VAL204      0.0252
    134  CG1        5.4060    9.4140   17.2300 C.3   204  VAL204      0.0019
    135  CG2        4.6090    7.1130   16.7660 C.3   204  VAL204      0.0019
    136  N         -0.1310    8.9720   14.8480 N.3   206  GLY206     -0.1225
    137  CA        -1.3780    8.3030   15.1530 C.3   206  GLY206      0.1811
    138  C         -1.9940    7.9670   13.8060 C.2   206  GLY206      0.2280
    139  O         -2.7760    8.7390   13.2710 O.2   206  GLY206     -0.2866
    140  N         -4.2570    6.0340   12.4600 N.3   208  SER208     -0.1202
    141  CA        -5.6780    5.8880   12.1690 C.3   208  SER208      0.2020
    142  C         -6.3520    7.2420   12.0000 C.2   208  SER208      0.2618
    143  O         -7.4030    7.3420   11.3670 O.2   208  SER208     -0.2717
    144  CB        -6.3640    5.0210   13.2270 C.3   208  SER208      0.2103
    145  OG        -5.8980    3.6730   13.1560 O.3   208  SER208     -0.2182
    146  N         -5.7400    8.2920   12.5400 N.am  209  ASN209     -0.1974
    147  CA        -6.2580    9.6390   12.3130 C.3   209  ASN209      0.1688
    148  C         -6.5280    9.9250   10.8310 C.2   209  ASN209      0.2292
    149  O         -7.4130   10.7100   10.4980 O.2   209  ASN209     -0.2864
    150  CB        -5.2850   10.7000   12.8280 C.3   209  ASN209      0.1181
    151  CG        -5.0520   10.6130   14.3260 C.2   209  ASN209      0.2629
    152  OD1       -5.8740   10.0900   15.0670 O.2   209  ASN209     -0.2716
    153  ND2       -3.9210   11.1340   14.7700 N.am  209  ASN209     -0.0877
    154  N         -9.9860    8.7760   10.0010 N.3   212  GLN212     -0.1231
    155  CA       -11.0120    8.8280   11.0480 C.3   212  GLN212      0.1698
    156  C        -12.3120    9.4470   10.5330 C.2   212  GLN212      0.2592
    157  O        -12.3170   10.5570   10.0060 O.2   212  GLN212     -0.2718
    158  CB       -10.5140    9.5430   12.3070 C.3   212  GLN212      0.0381
    159  CG       -11.4360    9.3470   13.5090 C.3   212  GLN212      0.0905
    160  CD       -10.7260    9.5530   14.8440 C.2   212  GLN212      0.2608
    161  OE1       -9.8130   10.3710   14.9580 O.2   212  GLN212     -0.2717
    162  NE2      -11.1470    8.8030   15.8610 N.am  212  GLN212     -0.0878
    163  N        -13.4090    8.7040   10.6540 N.am  213  LYS213     -0.1980
    164  CA       -14.7030    9.1710   10.1630 C.3   213  LYS213      0.1596
    165  C        -14.6760    9.3910    8.6530 C.2   213  LYS213      0.2287
    166  O        -15.3120   10.3120    8.1280 O.2   213  LYS213     -0.2864
    167  CB       -15.1300   10.4500   10.8880 C.3   213  LYS213      0.0298
    168  CG       -14.9650   10.3640   12.4010 C.3   213  LYS213      0.0038
    169  CD       -15.8060    9.2380   12.9780 C.3   213  LYS213      0.0206
    170  CE       -15.7170    9.2390   14.4990 C.3   213  LYS213      0.1093
    171  NZ       -16.4160    8.0710   15.1090 N.3   213  LYS213     -0.1314
    172  N        -11.8520    2.8760    5.5260 N.3   217  ARG217     -0.1245
    173  CA       -10.6380    3.2790    6.2310 C.3   217  ARG217      0.1563
    174  C         -9.4430    2.3620    6.0020 C.2   217  ARG217      0.2260
    175  O         -8.3070    2.8310    5.9270 O.2   217  ARG217     -0.2867
    176  CB       -10.9050    3.3550    7.7440 C.3   217  ARG217      0.0307
    177  CG       -12.1540    4.1360    8.1580 C.3   217  ARG217      0.0489
    178  CD       -12.2380    4.2550    9.6860 C.3   217  ARG217      0.2205
    179  NE       -11.0810    4.9820   10.2090 N.pl3 217  ARG217     -0.0865
    180  CZ       -10.7920    5.1530   11.4960 C.cat 217  ARG217      0.5346
    181  NH1      -11.5720    4.6470   12.4460 N.pl3 217  ARG217      0.1354
    182  NH2       -9.7130    5.8430   11.8350 N.pl3 217  ARG217      0.1354
    183  N          1.2860    4.4650   16.0810 N.3   237  ILE237     -0.1245
    184  CA         0.1530    3.9870   16.8520 C.3   237  ILE237      0.1561
    185  C         -0.8880    3.6090   15.8210 C.2   237  ILE237      0.2260
    186  O         -1.3090    4.4470   15.0240 O.2   237  ILE237     -0.2867
    187  CB        -0.4170    5.0790   17.7470 C.3   237  ILE237      0.0252
    188  CG1        0.6690    5.6020   18.6850 C.3   237  ILE237      0.0019
    189  CG2       -1.6380    4.5560   18.5000 C.3   237  ILE237      0.0019
    190  CD1        0.3910    6.9950   19.2000 C.3   237  ILE237      0.0001
@<TRIPOS>BOND
     1   172   173    1
     2   175   174    2
     3   174   173    1
     4   173   176    1
     5   176   177    1
     6   128   126    1
     7   166   165    2
     8   177   178    1
     9   165   164    1
    10   126   125    1
    11   178   179    1
    12   154   155    1
    13   157   156    2
    14   125   122    1
    15   125   127    1
    16   164   163    1
    17   164   167    1
    18   179   180    2
    19   149   148    2
    20   156   163   am
    21   156   155    1
    22   122   123    1
    23   122   121    1
    24   148   147    1
    25   167   168    1
    26   123   124    2
    27   155   158    1
    28   143   142    2
    29   180   182    1
    30   180   181    1
    31   116   115    2
    32   121   115   am
    33   142   141    1
    34   142   146   am
    35   141   140    1
    36   141   144    1
    37   115   114    1
    38   158   159    1
    39   147   146    1
    40   147   150    1
    41   168   169    1
    42   150   151    1
    43   169   170    1
    44   145   144    1
    45   139   138    2
    46   113   114    1
    47   159   160    1
    48   114   117    1
    49   138   137    1
    50   117   118    1
    51   132   131    2
    52   151   153   am
    53   151   152    2
    54   131   130    1
    55   170   171    1
    56   129   130    1
    57   160   161    2
    58   160   162   am
    59   136   137    1
    60   130   133    1
    61   186   185    2
    62   107   108    2
    63   107   106    1
    64   111   110   ar
    65     9     7   ar
    66     8     7   ar
    67   106   105    1
    68   106   109    1
    69   118   119    1
    70   118   120    1
    71   185   184    1
    72   183   184    1
    73     7     6    1
    74   110   109    1
    75   110   112   ar
    76   133   135    1
    77   133   134    1
    78   184   187    1
    79     6     5    1
    80   187   189    1
    81   187   188    1
    82     5     2    1
    83    99    98    1
    84    99   100    2
    85    45    47   ar
    86    45    43   ar
    87    47    46   ar
    88   188   190    1
    89    98   101    1
    90    98    97    1
    91     1     2    1
    92   101   102    1
    93    35    36    1
    94    35    34    1
    95     2     3    1
    96   104   102    1
    97    43    42   ar
    98    46    44   ar
    99    17    16    1
   100    17    18    2
   101    16    15    1
   102    95    93    1
   103   102   103    1
   104     3    10   am
   105     3     4    2
   106    14    15    1
   107    14    11    1
   108    10    11    1
   109    20    18    1
   110    18    19    1
   111    11    12    1
   112    34    33    1
   113    96    94    1
   114    44    42   ar
   115    42    41    1
   116    94    93    1
   117    93    90    1
   118    90    91    1
   119    90    89    1
   120    91    92    2
   121    33    30    1
   122    28    26   am
   123    32    31    2
   124    41    38    1
   125    12    13    2
   126    87    86    2
   127    88    86   am
   128    61    62    1
   129    61    58    1
   130    38    37    1
   131    38    39    1
   132    64    62   ar
   133    56    55    1
   134    31    37   am
   135    31    30    1
   136    62    63   ar
   137    26    25    1
   138    26    27    2
   139    86    85    1
   140    80    78   ar
   141    25    22    1
   142    30    29    1
   143    55    54    1
   144    57    58    1
   145    48    39   am
   146    48    49    1
   147    58    59    1
   148    39    40    2
   149    52    49    1
   150    52    53    1
   151    54    53    1
   152    78    79   ar
   153    78    77    1
   154    85    82    1
   155    24    23    2
   156    49    50    1
   157    22    21    1
   158    22    23    1
   159    72    70   am
   160    82    83    1
   161    82    81    1
   162    59    60    2
   163    77    74    1
   164    83    84    2
   165    50    51    2
   166    70    69    1
   167    70    71    2
   168    69    66    1
   169    74    75    1
   170    74    73    1
   171    65    66    1
   172    66    67    1
   173    75    76    2
   174    68    67    2
