@<TRIPOS>MOLECULE
tmp/2yclB00.pdb
 97 93 0 0 0
SMALL
GASTEIGER

@<TRIPOS>ATOM
      1  N          8.0630   -5.0920   66.2860 N.3   180  PRO180     -0.2102
      2  CA         8.8260   -4.5460   67.4280 C.3   180  PRO180      0.1504
      3  C         10.3550   -4.7310   67.3640 C.2   180  PRO180      0.2576
      4  O         10.8690   -5.7330   67.8620 O.2   180  PRO180     -0.2718
      5  CB         8.2470   -5.3080   68.6350 C.3   180  PRO180      0.0282
      6  CG         7.7540   -6.5980   68.0710 C.3   180  PRO180      0.0208
      7  CD         7.2580   -6.2660   66.6860 C.3   180  PRO180      0.0893
      8  N         11.0310   -3.8260   66.6670 N.am  181  LEU181     -0.1966
      9  CA        12.5000   -3.7550   66.5840 C.3   181  LEU181      0.1728
     10  C         13.1190   -5.1280   66.4660 C.2   181  LEU181      0.2616
     11  O         13.9540   -5.4970   67.2780 O.2   181  LEU181     -0.2715
     12  CB        13.0860   -3.0490   67.8280 C.3   181  LEU181      0.0311
     13  CG        12.7210   -1.5790   68.0640 C.3   181  LEU181      0.0022
     14  CD1       13.1140   -1.1250   69.4910 C.3   181  LEU181      0.0001
     15  CD2       13.3600   -0.6700   67.0460 C.3   181  LEU181      0.0001
     16  N         12.7440   -5.8840   65.4360 N.am  182  ASP182     -0.1971
     17  CA        13.3950   -7.1480   65.1570 C.3   182  ASP182      0.1709
     18  C         13.3900   -7.3740   63.6550 C.2   182  ASP182      0.2293
     19  O         12.3150   -7.3570   63.0600 O.2   182  ASP182     -0.2864
     20  CB        12.6250   -8.2550   65.8640 C.3   182  ASP182      0.1436
     21  CG        13.3190   -9.5830   65.8040 C.2   182  ASP182      0.3671
     22  OD1       13.1390  -10.3180   64.8030 O.co2 182  ASP182     -0.2456
     23  OD2       14.0320   -9.9030   66.7730 O.co2 182  ASP182     -0.2456
     24  N         11.1980  -10.5490   62.6520 N.3   185  LEU185     -0.1245
     25  CA         9.7680  -10.3200   62.8510 C.3   185  LEU185      0.1561
     26  C          9.2250   -9.4590   61.7150 C.2   185  LEU185      0.2260
     27  O          8.1550   -9.7270   61.1640 O.2   185  LEU185     -0.2867
     28  CB         9.5230   -9.6120   64.1750 C.3   185  LEU185      0.0270
     29  CG         8.8650  -10.3720   65.3320 C.3   185  LEU185      0.0019
     30  CD1        9.2250  -11.8400   65.3420 C.3   185  LEU185      0.0001
     31  CD2        9.2350   -9.7140   66.6480 C.3   185  LEU185      0.0001
     32  N          8.7190    0.3410   65.1430 N.3   208  LEU208     -0.1231
     33  CA         8.2310    0.6390   66.4970 C.3   208  LEU208      0.1693
     34  C          9.3840    1.1650   67.3560 C.2   208  LEU208      0.2592
     35  O          9.8890    0.4780   68.2480 O.2   208  LEU208     -0.2718
     36  CB         7.5800   -0.5950   67.1170 C.3   208  LEU208      0.0284
     37  CG         6.2910   -1.0550   66.4310 C.3   208  LEU208      0.0019
     38  CD1        5.9110   -2.4610   66.9070 C.3   208  LEU208      0.0001
     39  CD2        5.1640   -0.0540   66.6600 C.3   208  LEU208      0.0001
     40  N          9.7900    2.3880   67.0270 N.am  209  ILE209     -0.1966
     41  CA        11.0040    3.0010   67.5560 C.3   209  ILE209      0.1727
     42  C         10.8640    3.5470   68.9850 C.2   209  ILE209      0.2616
     43  O          9.7560    3.7570   69.4680 O.2   209  ILE209     -0.2715
     44  CB        11.4490    4.1650   66.6520 C.3   209  ILE209      0.0290
     45  CG1       10.5430    5.3900   66.8550 C.3   209  ILE209      0.0022
     46  CG2       11.4620    3.7170   65.1910 C.3   209  ILE209      0.0023
     47  CD1       11.2170    6.6820   66.5520 C.3   209  ILE209      0.0001
     48  N         11.9940    3.6990   69.6810 N.am  210  GLY210     -0.1955
     49  CA        12.0680    4.5490   70.8640 C.3   210  GLY210      0.1869
     50  C         12.7320    5.8870   70.5270 C.2   210  GLY210      0.2309
     51  O         13.5690    5.9440   69.6270 O.2   210  GLY210     -0.2863
     52  N         15.4340    7.1160   75.1940 N.3   214  TYR214     -0.1227
     53  CA        14.3930    6.0850   75.3290 C.3   214  TYR214      0.1736
     54  C         14.4450    4.7780   74.4790 C.2   214  TYR214      0.2596
     55  O         13.4010    4.1870   74.2150 O.2   214  TYR214     -0.2718
     56  CB        13.0200    6.7260   75.5360 C.3   214  TYR214      0.0548
     57  CG        13.1180    7.7260   76.6910 C.ar  214  TYR214     -0.0200
     58  CD1       13.0780    7.3050   78.0170 C.ar  214  TYR214     -0.0009
     59  CD2       13.3220    9.0770   76.4460 C.ar  214  TYR214     -0.0009
     60  CE1       13.1930    8.2150   79.0650 C.ar  214  TYR214      0.0417
     61  CE2       13.4360    9.9890   77.4830 C.ar  214  TYR214      0.0417
     62  CZ        13.3690    9.5520   78.7880 C.ar  214  TYR214      0.1957
     63  OH        13.4910   10.4710   79.8070 O.3   214  TYR214     -0.2866
     64  N         15.6020    4.4450   73.9080 N.am  215  GLY215     -0.1957
     65  CA        15.7330    3.2960   73.0210 C.3   215  GLY215      0.1869
     66  C         15.9850    3.6260   71.5540 C.2   215  GLY215      0.2309
     67  O         15.9130    2.7550   70.6920 O.2   215  GLY215     -0.2863
     68  N         18.5710    1.2080   69.8020 N.3   218  TYR218     -0.1241
     69  CA        18.0130   -0.0320   69.2600 C.3   218  TYR218      0.1605
     70  C         17.3400    0.2610   67.9080 C.2   218  TYR218      0.2264
     71  O         17.4940   -0.4970   66.9500 O.2   218  TYR218     -0.2867
     72  CB        16.9990   -0.6430   70.2260 C.3   218  TYR218      0.0534
     73  CG        17.5950   -1.2880   71.4760 C.ar  218  TYR218     -0.0201
     74  CD1       18.1990   -2.5360   71.4190 C.ar  218  TYR218     -0.0009
     75  CD2       17.5410   -0.6470   72.7100 C.ar  218  TYR218     -0.0009
     76  CE1       18.7360   -3.1350   72.5650 C.ar  218  TYR218      0.0417
     77  CE2       18.0710   -1.2350   73.8580 C.ar  218  TYR218      0.0417
     78  CZ        18.6610   -2.4780   73.7770 C.ar  218  TYR218      0.1957
     79  OH        19.1920   -3.0640   74.9100 O.3   218  TYR218     -0.2866
     80  N          6.7660    9.5560   70.0240 N.3   248  GLU248     -0.1245
     81  CA         7.7330    9.1740   71.0480 C.3   248  GLU248      0.1567
     82  C          8.5090   10.3230   71.6980 C.2   248  GLU248      0.2260
     83  O          8.6820   10.3300   72.9090 O.2   248  GLU248     -0.2867
     84  CB         8.7030    8.1370   70.4910 C.3   248  GLU248      0.0388
     85  CG         8.0110    6.8630   70.0490 C.3   248  GLU248      0.1160
     86  CD         7.1520    6.2480   71.1440 C.2   248  GLU248      0.3649
     87  OE1        7.5960    6.1990   72.3150 O.co2 248  GLU248     -0.2457
     88  OE2        6.0290    5.8070   70.8330 O.co2 248  GLU248     -0.2457
     89  N          6.8500   12.3440   74.5740 N.3   251  LYS251     -0.1245
     90  CA         6.5650   11.6490   75.8280 C.3   251  LYS251      0.1561
     91  C          7.7370   11.7510   76.7990 C.2   251  LYS251      0.2260
     92  O          7.6060   11.4180   77.9770 O.2   251  LYS251     -0.2867
     93  CB         6.2790   10.1660   75.5870 C.3   251  LYS251      0.0271
     94  CG         5.0540    9.8770   74.7460 C.3   251  LYS251      0.0035
     95  CD         4.8600    8.3760   74.5490 C.3   251  LYS251      0.0206
     96  CE         4.6540    7.6680   75.8870 C.3   251  LYS251      0.1093
     97  NZ         4.1050    6.2890   75.7380 N.3   251  LYS251     -0.1314
@<TRIPOS>BOND
     1    27    26    2
     2    26    25    1
     3    24    25    1
     4    25    28    1
     5    19    18    2
     6    18    17    1
     7    28    29    1
     8    22    21   ar
     9    32    33    1
    10    17    16    1
    11    17    20    1
    12    46    44    1
    13    29    30    1
    14    29    31    1
    15    16    10   am
    16    21    20    1
    17    21    23   ar
    18     1     7    1
    19     1     2    1
    20    37    39    1
    21    37    38    1
    22    37    36    1
    23    10     9    1
    24    10    11    2
    25    33    36    1
    26    33    34    1
    27    47    45    1
    28     9     8    1
    29     9    12    1
    30    44    45    1
    31    44    41    1
    32     8     3   am
    33     7     6    1
    34    71    70    2
    35    40    34   am
    36    40    41    1
    37    15    13    1
    38    34    35    2
    39     3     2    1
    40     3     4    2
    41     2     5    1
    42    41    42    1
    43    12    13    1
    44    70    69    1
    45    13    14    1
    46     6     5    1
    47    42    43    2
    48    42    48   am
    49    69    68    1
    50    69    72    1
    51    51    50    2
    52    48    49    1
    53    80    81    1
    54    85    84    1
    55    85    86    1
    56    72    73    1
    57    84    81    1
    58    50    49    1
    59    67    66    2
    60    88    86   ar
    61    81    82    1
    62    86    87   ar
    63    74    73   ar
    64    74    76   ar
    65    73    75   ar
    66    66    65    1
    67    82    83    2
    68    76    78   ar
    69    75    77   ar
    70    65    64    1
    71    78    77   ar
    72    78    79    1
    73    64    54   am
    74    55    54    2
    75    54    53    1
    76    95    94    1
    77    95    96    1
    78    89    90    1
    79    94    93    1
    80    52    53    1
    81    53    56    1
    82    56    57    1
    83    93    90    1
    84    97    96    1
    85    90    91    1
    86    59    57   ar
    87    59    61   ar
    88    57    58   ar
    89    91    92    2
    90    61    62   ar
    91    58    60   ar
    92    62    60   ar
    93    62    63    1
