@<TRIPOS>MOLECULE
tmp/2ycmA00.pdb
 142 133 0 0 0
SMALL
GASTEIGER

@<TRIPOS>ATOM
      1  N         20.4940   66.6120  -17.8700 N.3    73  ARG73      -0.1231
      2  CA        19.1280   66.1260  -17.7260 C.3    73  ARG73       0.1694
      3  C         19.1050   64.9270  -16.7830 C.2    73  ARG73       0.2591
      4  O         18.2520   64.8390  -15.9020 O.2    73  ARG73      -0.2718
      5  CB        18.5170   65.8170  -19.0970 C.3    73  ARG73       0.0321
      6  CG        17.1040   65.2770  -19.0110 C.3    73  ARG73       0.0489
      7  CD        16.6230   64.8330  -20.3800 C.3    73  ARG73       0.2205
      8  NE        15.1980   64.5440  -20.4290 N.pl3  73  ARG73      -0.0865
      9  CZ        14.6310   63.3940  -20.0610 C.cat  73  ARG73       0.5346
     10  NH1       15.3600   62.3710  -19.5920 N.pl3  73  ARG73       0.1354
     11  NH2       13.3180   63.2640  -20.1730 N.pl3  73  ARG73       0.1354
     12  N         20.0720   64.0080  -16.9160 N.am   74  GLN74      -0.1979
     13  CA        20.0550   62.8140  -16.0670 C.3    74  GLN74       0.1601
     14  C         20.3280   63.1520  -14.5980 C.2    74  GLN74       0.2287
     15  O         19.9330   62.4180  -13.6800 O.2    74  GLN74      -0.2864
     16  CB        21.0270   61.7090  -16.5750 C.3    74  GLN74       0.0394
     17  CG        22.5290   62.1220  -16.6070 C.3    74  GLN74       0.0908
     18  CD        22.9390   62.8080  -17.9260 C.2    74  GLN74       0.2608
     19  OE1       22.1050   63.4140  -18.6320 O.2    74  GLN74      -0.2717
     20  NE2       24.2320   62.7300  -18.2510 N.am   74  GLN74      -0.0878
     21  N         16.9790   64.2470  -13.3270 N.3    77  VAL77      -0.1245
     22  CA        16.1450   63.1020  -13.0370 C.3    77  VAL77       0.1561
     23  C         16.4710   62.4750  -11.7460 C.2    77  VAL77       0.2260
     24  O         15.5830   62.1940  -10.9870 O.2    77  VAL77      -0.2867
     25  CB        16.2490   62.0660  -14.1420 C.3    77  VAL77       0.0252
     26  CG1       15.6560   60.7820  -13.7600 C.3    77  VAL77       0.0019
     27  CG2       15.6220   62.6380  -15.4050 C.3    77  VAL77       0.0019
     28  N          8.5150   60.3190  -15.9580 N.3    93  ILE93      -0.1245
     29  CA         9.3960   61.4520  -16.2030 C.3    93  ILE93       0.1561
     30  C          8.8840   62.2330  -17.4030 C.2    93  ILE93       0.2260
     31  O          8.6970   61.6850  -18.4970 O.2    93  ILE93      -0.2867
     32  CB        10.8480   60.9700  -16.4130 C.3    93  ILE93       0.0252
     33  CG1       11.2760   60.0610  -15.2470 C.3    93  ILE93       0.0019
     34  CG2       11.7940   62.1350  -16.5670 C.3    93  ILE93       0.0019
     35  CD1       12.4090   59.0780  -15.5730 C.3    93  ILE93       0.0001
     36  N          9.2380   49.4560  -18.1620 N.3   118  ALA118     -0.1231
     37  CA         9.8210   50.6500  -18.7490 C.3   118  ALA118      0.1694
     38  C          9.1390   50.8520  -20.0850 C.2   118  ALA118      0.2592
     39  O          8.9930   49.9130  -20.8290 O.2   118  ALA118     -0.2718
     40  CB        11.2690   50.5140  -18.8740 C.3   118  ALA118      0.0304
     41  N          8.5720   52.0290  -20.2970 N.am  119  ALA119     -0.1966
     42  CA         7.8280   52.4130  -21.4980 C.3   119  ALA119      0.1728
     43  C          8.0720   53.9060  -21.7840 C.2   119  ALA119      0.2616
     44  O          8.3850   54.6920  -20.9100 O.2   119  ALA119     -0.2715
     45  CB         6.3650   52.1060  -21.3850 C.3   119  ALA119      0.0334
     46  N          8.0260   54.2590  -23.0370 N.am  120  VAL120     -0.1977
     47  CA         8.2280   55.6260  -23.4430 C.3   120  VAL120      0.1596
     48  C          7.2390   55.8610  -24.5650 C.2   120  VAL120      0.2287
     49  O          6.9700   54.9640  -25.3610 O.2   120  VAL120     -0.2864
     50  CB         9.7100   55.8760  -23.8620 C.3   120  VAL120      0.0276
     51  CG1       10.1270   54.8800  -24.9120 C.3   120  VAL120      0.0022
     52  CG2        9.9480   57.3660  -24.4000 C.3   120  VAL120      0.0022
     53  N          8.4040   59.2570  -20.1280 N.3   151  GLN151     -0.1231
     54  CA         9.0860   57.9720  -19.9430 C.3   151  GLN151      0.1698
     55  C          8.6490   57.4380  -18.5940 C.2   151  GLN151      0.2592
     56  O          8.6790   58.1540  -17.6050 O.2   151  GLN151     -0.2718
     57  CB        10.5760   58.1740  -19.9870 C.3   151  GLN151      0.0381
     58  CG        11.0120   58.9410  -21.1930 C.3   151  GLN151      0.0905
     59  CD        12.4960   59.2510  -21.0910 C.2   151  GLN151      0.2608
     60  OE1       12.9170   60.3280  -20.5620 O.2   151  GLN151     -0.2717
     61  NE2       13.2970   58.3070  -21.5250 N.am  151  GLN151     -0.0878
     62  N          8.2270   56.1890  -18.5440 N.am  152  VAL152     -0.1966
     63  CA         7.5880   55.6320  -17.3880 C.3   152  VAL152      0.1727
     64  C          8.4190   54.4290  -17.0330 C.2   152  VAL152      0.2616
     65  O          8.6920   53.5830  -17.8740 O.2   152  VAL152     -0.2715
     66  CB         6.1850   55.1890  -17.7220 C.3   152  VAL152      0.0290
     67  CG1        5.5860   54.2550  -16.5800 C.3   152  VAL152      0.0023
     68  CG2        5.3060   56.3990  -18.0860 C.3   152  VAL152      0.0023
     69  N          8.8450   54.3520  -15.7840 N.am  153  ILE153     -0.1977
     70  CA         9.7660   53.3240  -15.3800 C.3   153  ILE153      0.1596
     71  C          9.5540   52.9340  -13.9190 C.2   153  ILE153      0.2287
     72  O          9.2490   53.7670  -13.0950 O.2   153  ILE153     -0.2864
     73  CB        11.2190   53.7710  -15.6640 C.3   153  ILE153      0.0276
     74  CG1       12.1960   52.6760  -15.3020 C.3   153  ILE153      0.0022
     75  CG2       11.5190   55.0520  -14.8670 C.3   153  ILE153      0.0022
     76  CD1       13.5490   52.7690  -15.9780 C.3   153  ILE153      0.0001
     77  N         14.9090   52.0440  -12.3720 N.3   158  LEU158     -0.1245
     78  CA        15.6100   53.3280  -12.5840 C.3   158  LEU158      0.1561
     79  C         16.7610   53.4420  -11.6080 C.2   158  LEU158      0.2260
     80  O         17.8680   53.7930  -12.0090 O.2   158  LEU158     -0.2867
     81  CB        14.6390   54.4980  -12.4030 C.3   158  LEU158      0.0270
     82  CG        15.0960   55.8970  -12.8190 C.3   158  LEU158      0.0019
     83  CD1       15.7410   55.9700  -14.1990 C.3   158  LEU158      0.0001
     84  CD2       13.9020   56.9470  -12.6690 C.3   158  LEU158      0.0001
     85  N         25.7760   58.9150  -20.7710 N.3   172  VAL172     -0.1245
     86  CA        24.4660   59.2650  -21.2740 C.3   172  VAL172      0.1561
     87  C         24.6940   60.3040  -22.3800 C.2   172  VAL172      0.2260
     88  O         25.2070   61.4000  -22.1160 O.2   172  VAL172     -0.2867
     89  CB        23.5720   59.8350  -20.1720 C.3   172  VAL172      0.0252
     90  CG1       22.2260   60.1670  -20.7340 C.3   172  VAL172      0.0019
     91  CG2       23.4470   58.8420  -19.0170 C.3   172  VAL172      0.0019
     92  N         22.1480   60.0540  -25.2930 N.3   174  ASP174     -0.1225
     93  CA        20.7360   60.2570  -25.6540 C.3   174  ASP174      0.1805
     94  C         19.7870   59.9540  -24.4570 C.2   174  ASP174      0.2598
     95  O         20.2610   59.6160  -23.3680 O.2   174  ASP174     -0.2718
     96  CB        20.3640   59.4920  -26.9500 C.3   174  ASP174      0.1424
     97  CG        20.3220   57.9680  -26.7720 C.2   174  ASP174      0.3668
     98  OD1       19.8860   57.4680  -25.7080 O.co2 174  ASP174     -0.2456
     99  OD2       20.7190   57.2650  -27.7270 O.co2 174  ASP174     -0.2456
    100  N         18.4690   60.0850  -24.6680 N.am  175  ASP175     -0.1960
    101  CA        17.4710   60.1770  -23.5580 C.3   175  ASP175      0.1840
    102  C         16.8960   58.8480  -23.0870 C.2   175  ASP175      0.2622
    103  O         16.0830   58.8320  -22.1620 O.2   175  ASP175     -0.2715
    104  CB        16.2810   61.0860  -23.9470 C.3   175  ASP175      0.1450
    105  CG        16.5470   62.5750  -23.6990 C.2   175  ASP175      0.3671
    106  OD1       17.6850   62.9590  -23.3360 O.co2 175  ASP175     -0.2456
    107  OD2       15.5860   63.3600  -23.8720 O.co2 175  ASP175     -0.2456
    108  N         17.2930   57.7520  -23.7290 N.am  176  VAL176     -0.1963
    109  CA        16.9840   56.4210  -23.2250 C.3   176  VAL176      0.1727
    110  C         18.2650   55.5730  -22.8480 C.2   176  VAL176      0.2617
    111  O         18.1840   54.3720  -22.6210 O.2   176  VAL176     -0.2715
    112  CB        16.0030   55.7010  -24.2000 C.3   176  VAL176      0.0290
    113  CG1       14.8300   56.6740  -24.5720 C.3   176  VAL176      0.0023
    114  CG2       16.7130   55.2180  -25.4440 C.3   176  VAL176      0.0023
    115  N         19.4040   56.2380  -22.6640 N.am  177  SER177     -0.1936
    116  CA        20.6850   55.5560  -22.3880 C.3   177  SER177      0.2055
    117  C         20.7860   54.6670  -21.1150 C.2   177  SER177      0.2643
    118  O         21.4830   53.6500  -21.1420 O.2   177  SER177     -0.2714
    119  CB        21.8540   56.5720  -22.4090 C.3   177  SER177      0.2130
    120  OG        21.9660   57.1770  -23.6850 O.3   177  SER177     -0.2179
    121  N         20.1070   55.0230  -20.0250 N.am  178  ILE178     -0.1963
    122  CA        20.2050   54.2550  -18.7460 C.3   178  ILE178      0.1727
    123  C         19.5500   52.8890  -18.8050 C.2   178  ILE178      0.2616
    124  O         20.1610   51.8860  -18.5200 O.2   178  ILE178     -0.2715
    125  CB        19.5750   55.0320  -17.5660 C.3   178  ILE178      0.0290
    126  CG1       20.4320   56.2220  -17.2260 C.3   178  ILE178      0.0022
    127  CG2       19.4060   54.1580  -16.3510 C.3   178  ILE178      0.0023
    128  CD1       19.7520   57.1490  -16.2980 C.3   178  ILE178      0.0001
    129  N         18.2740   52.8660  -19.1310 N.am  179  VAL179     -0.1977
    130  CA        17.5880   51.6120  -19.4170 C.3   179  VAL179      0.1596
    131  C         18.2380   50.7350  -20.5030 C.2   179  VAL179      0.2287
    132  O         18.0840   49.5210  -20.4320 O.2   179  VAL179     -0.2864
    133  CB        16.1790   51.8820  -19.9210 C.3   179  VAL179      0.0276
    134  CG1       15.2520   52.1860  -18.7400 C.3   179  VAL179      0.0022
    135  CG2       16.2000   52.9910  -21.0000 C.3   179  VAL179      0.0022
    136  N         12.2370   47.8000  -22.9550 N.3   186  VAL186     -0.1245
    137  CA        11.6440   49.1300  -22.9460 C.3   186  VAL186      0.1561
    138  C         10.6210   49.1350  -24.0920 C.2   186  VAL186      0.2260
    139  O         10.9370   48.8880  -25.2780 O.2   186  VAL186     -0.2867
    140  CB        12.6880   50.2280  -23.1620 C.3   186  VAL186      0.0252
    141  CG1       11.9970   51.5930  -23.1580 C.3   186  VAL186      0.0019
    142  CG2       13.7830   50.1840  -22.0830 C.3   186  VAL186      0.0019
@<TRIPOS>BOND
     1    99    97   ar
     2    96    97    1
     3    96    93    1
     4    97    98   ar
     5    93    92    1
     6    93    94    1
     7   114   112    1
     8    49    48    2
     9   139   138    2
    10    51    50    1
    11   100    94   am
    12   100   101    1
    13   113   112    1
    14    48    47    1
    15    94    95    2
    16    52    50    1
    17   112   109    1
    18   138   137    1
    19   104   105    1
    20   104   101    1
    21   107   105   ar
    22    50    47    1
    23   108   109    1
    24   108   102   am
    25   105   106   ar
    26   120   119    1
    27   101   102    1
    28    47    46    1
    29   109   110    1
    30   140   141    1
    31   140   137    1
    32   140   142    1
    33   102   103    2
    34    46    43   am
    35   136   137    1
    36   110   115   am
    37   110   111    2
    38   115   116    1
    39   119   116    1
    40   116   117    1
    41    87    88    2
    42    87    86    1
    43    43    42    1
    44    43    44    2
    45    61    59   am
    46    42    45    1
    47    42    41    1
    48    86    85    1
    49    86    89    1
    50    58    59    1
    51    58    57    1
    52   118   117    2
    53   117   121   am
    54    59    60    2
    55   135   133    1
    56    39    38    2
    57    90    89    1
    58   131   132    2
    59   131   130    1
    60     8     7    1
    61     8     9    2
    62     7     6    1
    63    41    38   am
    64    11     9    1
    65    89    91    1
    66    53    54    1
    67    38    37    1
    68     9    10    1
    69   121   122    1
    70    57    54    1
    71    54    55    1
    72   133   130    1
    73   133   134    1
    74   130   129    1
    75   129   123   am
    76     5     6    1
    77     5     2    1
    78    40    37    1
    79   123   122    1
    80   123   124    2
    81    37    36    1
    82   122   125    1
    83    19    18    2
    84    55    62   am
    85    55    56    2
    86    62    63    1
    87    31    30    2
    88    20    18   am
    89    68    66    1
    90    18    17    1
    91    65    64    2
    92     1     2    1
    93     2     3    1
    94    66    63    1
    95    66    67    1
    96   125   126    1
    97   125   127    1
    98    30    29    1
    99    63    64    1
   100   126   128    1
   101    64    69   am
   102    12     3   am
   103    12    13    1
   104     3     4    2
   105    17    16    1
   106    16    13    1
   107    34    32    1
   108    32    29    1
   109    32    33    1
   110    29    28    1
   111    13    14    1
   112    76    74    1
   113    69    70    1
   114    73    70    1
   115    73    74    1
   116    73    75    1
   117    35    33    1
   118    27    25    1
   119    70    71    1
   120    14    15    2
   121    83    82    1
   122    25    26    1
   123    25    22    1
   124    71    72    2
   125    21    22    1
   126    22    23    1
   127    82    84    1
   128    82    81    1
   129    78    81    1
   130    78    77    1
   131    78    79    1
   132    80    79    2
   133    23    24    2
