@<TRIPOS>MOLECULE
tmp/2ycnB00.pdb
 211 198 0 0 0
SMALL
GASTEIGER

@<TRIPOS>ATOM
      1  N         18.6070   51.7230   -6.4910 N.3    36  PHE36      -0.1241
      2  CA        18.9860   53.0610   -6.0590 C.3    36  PHE36       0.1605
      3  C         18.6260   54.1530   -7.0590 C.2    36  PHE36       0.2264
      4  O         18.5150   55.2970   -6.6630 O.2    36  PHE36      -0.2867
      5  CB        20.4750   53.1500   -5.7730 C.3    36  PHE36       0.0534
      6  CG        20.8080   53.1140   -4.3150 C.ar   36  PHE36      -0.0203
      7  CD1       20.4600   54.1760   -3.4860 C.ar   36  PHE36      -0.0042
      8  CD2       21.4590   52.0110   -3.7710 C.ar   36  PHE36      -0.0042
      9  CE1       20.7680   54.1540   -2.1280 C.ar   36  PHE36      -0.0003
     10  CE2       21.7700   51.9750   -2.4000 C.ar   36  PHE36      -0.0003
     11  CZ        21.4210   53.0540   -1.5890 C.ar   36  PHE36      -0.0000
     12  N         15.1870   52.1210    2.9600 N.3    49  THR49      -0.1218
     13  CA        15.7550   52.4240    4.2630 C.3    49  THR49       0.1862
     14  C         14.6890   52.9020    5.2150 C.2    49  THR49       0.2287
     15  O         13.6600   53.4840    4.8010 O.2    49  THR49      -0.2866
     16  CB        16.8810   53.5080    4.1720 C.3    49  THR49       0.1770
     17  OG1       17.3890   53.8060    5.4950 O.3    49  THR49      -0.2211
     18  CG2       16.3300   54.7770    3.5360 C.3    49  THR49       0.0375
     19  N         15.6270   55.1640    7.2580 N.3    51  SER51      -0.1217
     20  CA        16.2480   56.4220    7.6700 C.3    51  SER51       0.1889
     21  C         15.4790   57.6050    7.1000 C.2    51  SER51       0.2288
     22  O         15.4740   57.8250    5.8700 O.2    51  SER51      -0.2866
     23  CB        17.6910   56.5080    7.1930 C.3    51  SER51       0.2089
     24  OG        18.2590   57.7770    7.5360 O.3    51  SER51      -0.2183
     25  N         21.7910   65.6210   11.1010 N.3    98  GLN98      -0.1231
     26  CA        21.5000   64.1730   11.2340 C.3    98  GLN98       0.1698
     27  C         22.6620   63.4470   11.9170 C.2    98  GLN98       0.2593
     28  O         23.5410   64.0930   12.5100 O.2    98  GLN98      -0.2718
     29  CB        21.0890   63.5150    9.8880 C.3    98  GLN98       0.0381
     30  CG        22.1710   63.4910    8.7700 C.3    98  GLN98       0.0905
     31  CD        21.5800   63.1180    7.4080 C.2    98  GLN98       0.2608
     32  OE1       20.6100   63.7150    6.9580 O.2    98  GLN98      -0.2717
     33  NE2       22.1430   62.1090    6.7740 N.am   98  GLN98      -0.0878
     34  N         22.6540   62.1160   11.8640 N.am   99  GLY99      -0.1942
     35  CA        23.6510   61.3120   12.5870 C.3    99  GLY99       0.2014
     36  C         25.1040   61.5560   12.2150 C.2    99  GLY99       0.2638
     37  O         25.9680   61.7200   13.1040 O.2    99  GLY99      -0.2714
     38  N         25.4100   61.5830   10.9190 N.am  100  ARG100     -0.1977
     39  CA        26.8280   61.7150   10.5280 C.3   100  ARG100      0.1597
     40  C         27.4230   63.0810   10.9140 C.2   100  ARG100      0.2287
     41  O         28.6450   63.2250   11.0800 O.2   100  ARG100     -0.2864
     42  CB        27.0590   61.3730    9.0560 C.3   100  ARG100      0.0334
     43  CG        26.3700   62.3090    8.0690 C.3   100  ARG100      0.0492
     44  CD        26.3260   61.6650    6.6940 C.3   100  ARG100      0.2205
     45  NE        25.2750   60.6600    6.6750 N.pl3 100  ARG100     -0.0865
     46  CZ        24.8980   59.9550    5.6070 C.cat 100  ARG100      0.5346
     47  NH1       25.4900   60.1150    4.4220 N.pl3 100  ARG100      0.1354
     48  NH2       23.9220   59.0670    5.7370 N.pl3 100  ARG100      0.1354
     49  N         28.5040   62.4560   14.4160 N.3   103  GLU103     -0.1245
     50  CA        29.6860   61.5720   14.3430 C.3   103  GLU103      0.1567
     51  C         30.9420   62.3650   13.9790 C.2   103  GLU103      0.2260
     52  O         32.0190   62.1390   14.5460 O.2   103  GLU103     -0.2867
     53  CB        29.4500   60.4590   13.3180 C.3   103  GLU103      0.0388
     54  CG        28.3860   59.4550   13.7530 C.3   103  GLU103      0.1160
     55  CD        27.9430   58.4810   12.6490 C.2   103  GLU103      0.3649
     56  OE1       28.2260   58.6930   11.4260 O.co2 103  GLU103     -0.2457
     57  OE2       27.2870   57.4880   13.0330 O.co2 103  GLU103     -0.2457
     58  N         29.3730   50.9380   11.5120 N.3   123  PHE123     -0.1227
     59  CA        28.5950   51.4430   10.4190 C.3   123  PHE123      0.1736
     60  C         29.4980   52.3410    9.5870 C.2   123  PHE123      0.2596
     61  O         30.4480   52.9290   10.1200 O.2   123  PHE123     -0.2718
     62  CB        27.3660   52.2080   10.8940 C.3   123  PHE123      0.0547
     63  CG        26.5200   52.6780    9.7540 C.ar  123  PHE123     -0.0202
     64  CD1       25.8240   51.7480    8.9720 C.ar  123  PHE123     -0.0042
     65  CD2       26.4780   54.0250    9.4060 C.ar  123  PHE123     -0.0042
     66  CE1       25.0510   52.1550    7.8850 C.ar  123  PHE123     -0.0003
     67  CE2       25.7070   54.4460    8.3120 C.ar  123  PHE123     -0.0003
     68  CZ        24.9910   53.5100    7.5570 C.ar  123  PHE123     -0.0000
     69  N         29.2190   52.4330    8.2890 N.am  124  THR124     -0.1939
     70  CA        30.1580   53.0760    7.3600 C.3   124  THR124      0.2028
     71  C         30.4960   54.5470    7.6750 C.2   124  THR124      0.2643
     72  O         31.6760   54.8950    7.6990 O.2   124  THR124     -0.2714
     73  CB        29.8020   52.8400    5.8280 C.3   124  THR124      0.1808
     74  OG1       28.4100   52.9960    5.6280 O.3   124  THR124     -0.2208
     75  CG2       30.1720   51.4000    5.3990 C.3   124  THR124      0.0379
     76  N         29.4940   55.3910    7.9590 N.am  125  THR125     -0.1936
     77  CA        29.7690   56.8190    8.2220 C.3   125  THR125      0.2028
     78  C         30.5110   56.9440    9.5390 C.2   125  THR125      0.2642
     79  O         31.4210   57.7720    9.6900 O.2   125  THR125     -0.2714
     80  CB        28.4860   57.6920    8.3520 C.3   125  THR125      0.1808
     81  OG1       27.6390   57.1780    9.3960 O.3   125  THR125     -0.2208
     82  CG2       27.7050   57.7820    7.0240 C.3   125  THR125      0.0379
     83  N         30.0850   56.1310   10.5000 N.am  126  THR126     -0.1950
     84  CA        30.6140   56.2090   11.8360 C.3   126  THR126      0.1897
     85  C         32.0880   55.8700   11.8050 C.2   126  THR126      0.2313
     86  O         32.9140   56.6240   12.3380 O.2   126  THR126     -0.2863
     87  CB        29.8790   55.2290   12.7580 C.3   126  THR126      0.1794
     88  OG1       28.4750   55.2200   12.4140 O.3   126  THR126     -0.2208
     89  CG2       30.0860   55.6300   14.2310 C.3   126  THR126      0.0378
     90  N         27.1720   50.4290   19.5090 N.3   181  ALA181     -0.1245
     91  CA        25.9950   50.6850   18.6980 C.3   181  ALA181      0.1562
     92  C         24.7900   49.8650   19.1860 C.2   181  ALA181      0.2260
     93  O         24.9080   48.6690   19.4570 O.2   181  ALA181     -0.2867
     94  CB        26.3000   50.3450   17.2180 C.3   181  ALA181      0.0290
     95  N         20.6530   49.3900   17.9330 N.3   183  THR183     -0.1218
     96  CA        21.0760   48.0000   17.7620 C.3   183  THR183      0.1862
     97  C         22.3390   47.9940   16.8840 C.2   183  THR183      0.2287
     98  O         22.8970   49.0560   16.6050 O.2   183  THR183     -0.2866
     99  CB        19.9970   47.2300   16.9910 C.3   183  THR183      0.1770
    100  OG1       19.7020   47.9460   15.7720 O.3   183  THR183     -0.2211
    101  CG2       18.6940   47.0340   17.8390 C.3   183  THR183      0.0375
    102  N         23.4110   47.5420   13.2090 N.3   185  ASN185     -0.1240
    103  CA        22.7960   47.5460   11.8480 C.3   185  ASN185      0.1653
    104  C         23.4370   46.4510   10.9890 C.2   185  ASN185      0.2266
    105  O         22.7300   45.6330   10.3860 O.2   185  ASN185     -0.2867
    106  CB        22.9460   48.9440   11.2010 C.3   185  ASN185      0.1155
    107  CG        22.0790   49.1630    9.9200 C.2   185  ASN185      0.2627
    108  OD1       21.4240   48.2540    9.3890 O.2   185  ASN185     -0.2716
    109  ND2       22.0800   50.4180    9.4370 N.am  185  ASN185     -0.0877
    110  N         26.3190   54.7460   19.7210 N.3   214  ASP214     -0.1239
    111  CA        25.5550   55.1280   18.5410 C.3   214  ASP214      0.1674
    112  C         24.1200   54.7450   18.8830 C.2   214  ASP214      0.2266
    113  O         23.7540   53.5680   18.7900 O.2   214  ASP214     -0.2867
    114  CB        26.0330   54.3750   17.3030 C.3   214  ASP214      0.1410
    115  CG        25.2190   54.7310   16.0500 C.2   214  ASP214      0.3668
    116  OD1       24.1560   55.3910   16.1600 O.co2 214  ASP214     -0.2456
    117  OD2       25.6570   54.3620   14.9510 O.co2 214  ASP214     -0.2456
    118  N         21.3110   55.4900   17.4590 N.3   216  THR216     -0.1203
    119  CA        20.3620   55.5360   16.3120 C.3   216  THR216      0.1994
    120  C         19.0770   54.6580   16.4200 C.2   216  THR216      0.2617
    121  O         17.9620   55.1390   16.1650 O.2   216  THR216     -0.2717
    122  CB        21.1420   55.2900   14.9840 C.3   216  THR216      0.1784
    123  OG1       22.0630   56.3830   14.7860 O.3   216  THR216     -0.2211
    124  CG2       20.2200   55.2350   13.7900 C.3   216  THR216      0.0376
    125  N         19.2240   53.3870   16.7920 N.am  217  ARG217     -0.1979
    126  CA        18.0510   52.5240   16.9990 C.3   217  ARG217      0.1597
    127  C         18.0010   52.0040   18.4510 C.2   217  ARG217      0.2287
    128  O         17.7550   50.8120   18.6850 O.2   217  ARG217     -0.2864
    129  CB        17.9970   51.3940   15.9450 C.3   217  ARG217      0.0334
    130  CG        17.9180   51.9330   14.4840 C.3   217  ARG217      0.0492
    131  CD        17.9360   50.8090   13.4500 C.3   217  ARG217      0.2205
    132  NE        17.9720   51.2980   12.0630 N.pl3 217  ARG217     -0.0865
    133  CZ        19.0890   51.6640   11.4330 C.cat 217  ARG217      0.5346
    134  NH1       20.2620   51.6000   12.0570 N.pl3 217  ARG217      0.1354
    135  NH2       19.0460   52.0820   10.1780 N.pl3 217  ARG217      0.1354
    136  N         21.2380   59.4830   15.0800 N.3   254  SER254     -0.1217
    137  CA        20.4180   59.8750   13.9410 C.3   254  SER254      0.1889
    138  C         18.9530   59.8330   14.3480 C.2   254  SER254      0.2288
    139  O         18.3670   58.7530   14.4780 O.2   254  SER254     -0.2866
    140  CB        20.6520   58.9630   12.7440 C.3   254  SER254      0.2089
    141  OG        19.8330   59.4050   11.6660 O.3   254  SER254     -0.2183
    142  N         16.5380   60.5270   12.5790 N.3   256  LYS256     -0.1231
    143  CA        15.8270   59.9920   11.4220 C.3   256  LYS256      0.1693
    144  C         15.4460   58.5260   11.5670 C.2   256  LYS256      0.2591
    145  O         14.7060   58.0190   10.7190 O.2   256  LYS256     -0.2718
    146  CB        16.6950   60.1510   10.1560 C.3   256  LYS256      0.0285
    147  CG        17.1700   61.5920    9.9450 C.3   256  LYS256      0.0035
    148  CD        18.2320   61.6540    8.8280 C.3   256  LYS256      0.0206
    149  CE        17.5560   61.4610    7.4480 C.3   256  LYS256      0.1093
    150  NZ        18.6030   61.7480    6.3880 N.3   256  LYS256     -0.1314
    151  N         15.9620   57.8520   12.6090 N.am  257  LYS257     -0.1980
    152  CA        15.5490   56.4750   12.9000 C.3   257  LYS257      0.1596
    153  C         14.5890   56.4900   14.0620 C.2   257  LYS257      0.2287
    154  O         13.4430   56.8370   13.8810 O.2   257  LYS257     -0.2864
    155  CB        16.7250   55.5070   13.1350 C.3   257  LYS257      0.0298
    156  CG        17.4250   55.0320   11.8150 C.3   257  LYS257      0.0038
    157  CD        18.0760   56.2080   11.1520 C.3   257  LYS257      0.0206
    158  CE        19.3270   55.8430   10.3600 C.3   257  LYS257      0.1093
    159  NZ        19.8290   57.0820    9.7120 N.3   257  LYS257     -0.1314
    160  N         17.1910   47.4130   -0.7010 N.3   379  MET379     -0.1245
    161  CA        18.6120   47.8010   -0.8810 C.3   379  MET379      0.1570
    162  C         19.5510   46.5930   -1.0240 C.2   379  MET379      0.2261
    163  O         19.5170   45.6830   -0.1990 O.2   379  MET379     -0.2867
    164  CB        19.0960   48.6230    0.3280 C.3   379  MET379      0.0387
    165  CG        20.4440   49.3710    0.0960 C.3   379  MET379      0.0595
    166  SD        21.0410   50.1280    1.6290 S.3   379  MET379     -0.1393
    167  CE        20.0370   51.6530    1.6680 C.3   379  MET379      0.0692
    168  N         22.8190   44.8550   -0.3020 N.3   381  ARG381     -0.1245
    169  CA        23.8600   44.9600    0.7000 C.3   381  ARG381      0.1563
    170  C         24.7360   43.7300    0.4580 C.2   381  ARG381      0.2260
    171  O         24.6900   42.7350    1.1970 O.2   381  ARG381     -0.2867
    172  CB        23.2890   45.0060    2.1190 C.3   381  ARG381      0.0307
    173  CG        22.3350   46.1690    2.4200 C.3   381  ARG381      0.0489
    174  CD        23.0770   47.4350    2.8400 C.3   381  ARG381      0.2205
    175  NE        23.6180   48.1480    1.6820 N.pl3 381  ARG381     -0.0865
    176  CZ        24.2890   49.3020    1.7600 C.cat 381  ARG381      0.5346
    177  NH1       24.4870   49.8910    2.9440 N.pl3 381  ARG381      0.1354
    178  NH2       24.7400   49.8830    0.6510 N.pl3 381  ARG381      0.1354
    179  N         18.3310   43.9780    1.6590 N.3   404  ARG404     -0.1245
    180  CA        17.7360   44.4740    2.8860 C.3   404  ARG404      0.1563
    181  C         16.3250   45.0440    2.6300 C.2   404  ARG404      0.2260
    182  O         16.1520   45.9340    1.7950 O.2   404  ARG404     -0.2867
    183  CB        18.6270   45.5430    3.4910 C.3   404  ARG404      0.0307
    184  CG        18.2290   45.9070    4.8980 C.3   404  ARG404      0.0489
    185  CD        19.1570   47.0110    5.5160 C.3   404  ARG404      0.2205
    186  NE        18.8470   48.3210    4.9280 N.pl3 404  ARG404     -0.0865
    187  CZ        19.3970   49.4820    5.2720 C.cat 404  ARG404      0.5346
    188  NH1       20.2910   49.5530    6.2620 N.pl3 404  ARG404      0.1354
    189  NH2       18.9890   50.5970    4.6660 N.pl3 404  ARG404      0.1354
    190  N         27.4020   51.6400   -5.7980 N.3   448  PHE448     -0.1227
    191  CA        26.0260   51.1980   -5.5130 C.3   448  PHE448      0.1736
    192  C         24.9600   52.2450   -5.8280 C.2   448  PHE448      0.2595
    193  O         23.8270   51.8980   -6.1370 O.2   448  PHE448     -0.2718
    194  CB        25.8330   50.6250   -4.0860 C.3   448  PHE448      0.0547
    195  CG        26.4680   51.4310   -2.9970 C.ar  448  PHE448     -0.0202
    196  CD1       27.8510   51.5140   -2.8840 C.ar  448  PHE448     -0.0042
    197  CD2       25.6800   52.0760   -2.0570 C.ar  448  PHE448     -0.0042
    198  CE1       28.4430   52.2460   -1.8630 C.ar  448  PHE448     -0.0003
    199  CE2       26.2600   52.8090   -1.0330 C.ar  448  PHE448     -0.0003
    200  CZ        27.6470   52.8990   -0.9410 C.ar  448  PHE448     -0.0000
    201  N         25.3390   53.5170   -5.8080 N.am  449  PHE449     -0.1976
    202  CA        24.3750   54.5970   -6.0190 C.3   449  PHE449      0.1639
    203  C         23.9930   54.7920   -7.4720 C.2   449  PHE449      0.2290
    204  O         22.8260   55.0830   -7.7840 O.2   449  PHE449     -0.2864
    205  CB        24.9010   55.8980   -5.4420 C.3   449  PHE449      0.0560
    206  CG        25.0590   55.8650   -3.9570 C.ar  449  PHE449     -0.0200
    207  CD1       24.0920   55.2630   -3.1580 C.ar  449  PHE449     -0.0042
    208  CD2       26.1650   56.4380   -3.3530 C.ar  449  PHE449     -0.0042
    209  CE1       24.2350   55.2240   -1.7830 C.ar  449  PHE449     -0.0003
    210  CE2       26.3210   56.4150   -1.9710 C.ar  449  PHE449     -0.0003
    211  CZ        25.3630   55.8050   -1.1870 C.ar  449  PHE449     -0.0000
@<TRIPOS>BOND
     1   204   203    2
     2   203   202    1
     3     3     4    2
     4     3     2    1
     5     1     2    1
     6   193   192    2
     7     2     5    1
     8   202   201    1
     9   202   205    1
    10   192   201   am
    11   192   191    1
    12   190   191    1
    13     5     6    1
    14   191   194    1
    15   205   206    1
    16     6     8   ar
    17     6     7   ar
    18   194   195    1
    19   206   208   ar
    20   206   207   ar
    21     8    10   ar
    22     7     9   ar
    23   208   210   ar
    24   207   209   ar
    25   195   196   ar
    26   195   197   ar
    27   196   198   ar
    28    10    11   ar
    29     9    11   ar
    30   197   199   ar
    31   210   211   ar
    32   198   200   ar
    33   209   211   ar
    34   199   200   ar
    35   162   161    1
    36   162   163    2
    37   161   160    1
    38   161   164    1
    39   168   169    1
    40   165   164    1
    41   165   166    1
    42   170   169    1
    43   170   171    2
    44   178   176    1
    45   169   172    1
    46   166   167    1
    47   179   180    1
    48   175   176    2
    49   175   174    1
    50   176   177    1
    51   182   181    2
    52   172   173    1
    53   173   174    1
    54   181   180    1
    55   180   183    1
    56    12    13    1
    57   183   184    1
    58    18    16    1
    59    16    13    1
    60    16    17    1
    61    13    14    1
    62    47    46    1
    63   189   187    1
    64    15    14    2
    65   184   185    1
    66   186   187    2
    67   186   185    1
    68   187   188    1
    69    75    73    1
    70    46    48    1
    71    46    45    2
    72    74    73    1
    73    73    70    1
    74    22    21    2
    75   150   149    1
    76    45    44    1
    77    44    43    1
    78    33    31   am
    79    32    31    2
    80    82    80    1
    81    21    20    1
    82    23    24    1
    83    23    20    1
    84    19    20    1
    85    70    71    1
    86    70    69    1
    87    31    30    1
    88   149   148    1
    89    68    66   ar
    90    68    67   ar
    91    71    72    2
    92    71    76   am
    93    66    64   ar
    94    76    77    1
    95    43    42    1
    96    77    80    1
    97    77    78    1
    98    69    60   am
    99    67    65   ar
   100    80    81    1
   101    30    29    1
   102   148   147    1
   103    64    63   ar
   104    42    39    1
   105   108   107    2
   106    65    63   ar
   107   109   107   am
   108    78    79    2
   109    78    83   am
   110    60    61    2
   111    60    59    1
   112   159   158    1
   113    63    62    1
   114    29    26    1
   115   107   106    1
   116   147   146    1
   117   146   143    1
   118   135   133    1
   119   158   157    1
   120   105   104    2
   121    59    62    1
   122    59    58    1
   123    83    84    1
   124    39    40    1
   125    39    38    1
   126   145   144    2
   127    40    41    2
   128    38    36   am
   129   104   103    1
   130    25    26    1
   131   157   156    1
   132   106   103    1
   133    26    27    1
   134   143   144    1
   135   143   142    1
   136    56    55   ar
   137   133   134    1
   138   133   132    2
   139   144   151   am
   140   141   140    1
   141    85    84    1
   142    85    86    2
   143   156   155    1
   144    84    87    1
   145   103   102    1
   146    34    27   am
   147    34    35    1
   148    27    28    2
   149   132   131    1
   150    36    35    1
   151    36    37    2
   152    88    87    1
   153   151   152    1
   154    55    57   ar
   155    55    54    1
   156   140   137    1
   157    87    89    1
   158   152   155    1
   159   152   153    1
   160    53    54    1
   161    53    50    1
   162   131   130    1
   163   124   122    1
   164   154   153    2
   165   137   138    1
   166   137   136    1
   167    51    50    1
   168    51    52    2
   169    50    49    1
   170   138   139    2
   171   130   129    1
   172   123   122    1
   173   117   115   ar
   174   122   119    1
   175   100    99    1
   176   129   126    1
   177   115   116   ar
   178   115   114    1
   179   121   120    2
   180   119   120    1
   181   119   118    1
   182   120   125   am
   183    98    97    2
   184   125   126    1
   185    97    96    1
   186    99    96    1
   187    99   101    1
   188   126   127    1
   189    94    91    1
   190   114   111    1
   191    96    95    1
   192   127   128    2
   193   111   112    1
   194   111   110    1
   195    91    92    1
   196    91    90    1
   197   113   112    2
   198    92    93    2
