@<TRIPOS>MOLECULE
tmp/2ycpA01.pdb
 86 81 0 0 0
SMALL
GASTEIGER

@<TRIPOS>ATOM
      1  N         -2.0290  -24.1400  -16.7890 N.3   116  TYR116     -0.1241
      2  CA        -0.9120  -24.9970  -16.4200 C.3   116  TYR116      0.1605
      3  C          0.3950  -24.3870  -16.8930 C.2   116  TYR116      0.2264
      4  O          0.4570  -23.7780  -17.9640 O.2   116  TYR116     -0.2867
      5  CB        -1.1020  -26.4170  -16.9960 C.3   116  TYR116      0.0534
      6  CG        -2.3740  -27.0560  -16.4970 C.ar  116  TYR116     -0.0201
      7  CD1       -2.3880  -27.7910  -15.3090 C.ar  116  TYR116     -0.0009
      8  CD2       -3.5700  -26.8850  -17.1850 C.ar  116  TYR116     -0.0009
      9  CE1       -3.5580  -28.3510  -14.8300 C.ar  116  TYR116      0.0417
     10  CE2       -4.7570  -27.4410  -16.7150 C.ar  116  TYR116      0.0417
     11  CZ        -4.7440  -28.1660  -15.5320 C.ar  116  TYR116      0.1957
     12  OH        -5.9170  -28.7200  -15.0650 O.3   116  TYR116     -0.2866
     13  N         -1.0480  -24.2530  -12.1890 N.3   136  VAL136     -0.1245
     14  CA        -0.7510  -25.5580  -11.6220 C.3   136  VAL136      0.1561
     15  C          0.5500  -25.9890  -12.3090 C.2   136  VAL136      0.2260
     16  O          0.6400  -25.9430  -13.5500 O.2   136  VAL136     -0.2867
     17  CB        -1.8980  -26.5550  -11.8910 C.3   136  VAL136      0.0252
     18  CG1       -1.4940  -27.9910  -11.4890 C.3   136  VAL136      0.0019
     19  CG2       -3.1790  -26.1340  -11.1490 C.3   136  VAL136      0.0019
     20  N          3.2280  -28.5370  -13.7600 N.3   138  VAL138     -0.1231
     21  CA         3.2420  -29.9160  -14.2430 C.3   138  VAL138      0.1692
     22  C          4.6750  -30.2500  -14.6270 C.2   138  VAL138      0.2592
     23  O          5.3030  -29.5130  -15.3940 O.2   138  VAL138     -0.2718
     24  CB         2.3000  -30.1280  -15.4480 C.3   138  VAL138      0.0266
     25  CG1        2.4550  -31.5720  -16.0210 C.3   138  VAL138      0.0020
     26  CG2        0.8270  -29.8300  -15.0640 C.3   138  VAL138      0.0020
     27  N          5.1910  -31.3520  -14.0830 N.am  139  ASP139     -0.1960
     28  CA         6.5700  -31.7700  -14.3360 C.3   139  ASP139      0.1840
     29  C          6.6430  -32.6280  -15.5890 C.2   139  ASP139      0.2621
     30  O          6.0660  -33.7230  -15.6220 O.2   139  ASP139     -0.2715
     31  CB         7.1250  -32.5700  -13.1410 C.3   139  ASP139      0.1450
     32  CG         8.6270  -32.8790  -13.2860 C.2   139  ASP139      0.3671
     33  OD1        9.2410  -32.5050  -14.3140 O.co2 139  ASP139     -0.2456
     34  OD2        9.1960  -33.4970  -12.3640 O.co2 139  ASP139     -0.2456
     35  N          7.3800  -32.1490  -16.5980 N.am  140  ILE140     -0.1977
     36  CA         7.5150  -32.8770  -17.8820 C.3   140  ILE140      0.1596
     37  C          8.9470  -33.3260  -18.1810 C.2   140  ILE140      0.2287
     38  O          9.2640  -33.7110  -19.3030 O.2   140  ILE140     -0.2864
     39  CB         6.9330  -32.0770  -19.0960 C.3   140  ILE140      0.0276
     40  CG1        7.5830  -30.7020  -19.2330 C.3   140  ILE140      0.0022
     41  CG2        5.4040  -31.9450  -18.9840 C.3   140  ILE140      0.0022
     42  CD1        7.2340  -29.9960  -20.5570 C.3   140  ILE140      0.0001
     43  N          5.2720  -36.5450  -22.3520 N.3   162  LYS162     -0.1245
     44  CA         4.5750  -35.9150  -21.2260 C.3   162  LYS162      0.1561
     45  C          3.9590  -34.5820  -21.6380 C.2   162  LYS162      0.2260
     46  O          2.8360  -34.2540  -21.2370 O.2   162  LYS162     -0.2867
     47  CB         5.5130  -35.7130  -20.0330 C.3   162  LYS162      0.0271
     48  CG         5.8960  -37.0150  -19.3240 C.3   162  LYS162      0.0035
     49  CD         6.7760  -36.7290  -18.1120 C.3   162  LYS162      0.0206
     50  CE         7.6170  -37.9360  -17.7630 C.3   162  LYS162      0.1093
     51  NZ         6.8300  -38.9560  -17.0620 N.3   162  LYS162     -0.1314
     52  N          0.9010  -35.3760  -23.7620 N.3   165  LYS165     -0.1231
     53  CA        -0.1610  -35.8220  -22.8650 C.3   165  LYS165      0.1693
     54  C         -0.8740  -34.6300  -22.2010 C.2   165  LYS165      0.2591
     55  O         -2.1080  -34.5890  -22.1440 O.2   165  LYS165     -0.2718
     56  CB         0.4250  -36.7490  -21.7930 C.3   165  LYS165      0.0285
     57  CG        -0.5950  -37.5360  -20.9990 C.3   165  LYS165      0.0035
     58  CD         0.0560  -38.1220  -19.7540 C.3   165  LYS165      0.0206
     59  CE        -0.9750  -38.7240  -18.8040 C.3   165  LYS165      0.1093
     60  NZ        -1.5360  -39.9800  -19.3640 N.3   165  LYS165     -0.1314
     61  N         -0.0940  -33.6610  -21.7180 N.am  166  LEU166     -0.1980
     62  CA        -0.6590  -32.4460  -21.1530 C.3   166  LEU166      0.1596
     63  C         -1.5380  -31.6640  -22.1490 C.2   166  LEU166      0.2287
     64  O         -2.6500  -31.2640  -21.8070 O.2   166  LEU166     -0.2864
     65  CB         0.4420  -31.5560  -20.5840 C.3   166  LEU166      0.0297
     66  CG        -0.0460  -30.2590  -19.9550 C.3   166  LEU166      0.0022
     67  CD1       -0.9180  -30.5310  -18.7420 C.3   166  LEU166      0.0001
     68  CD2        1.1550  -29.4000  -19.5680 C.3   166  LEU166      0.0001
     69  N         -4.7340  -33.6680  -22.8390 N.3   169  GLU169     -0.1231
     70  CA        -5.6620  -33.7830  -21.7330 C.3   169  GLU169      0.1699
     71  C         -6.2290  -32.4370  -21.2950 C.2   169  GLU169      0.2592
     72  O         -7.3980  -32.3600  -20.9160 O.2   169  GLU169     -0.2718
     73  CB        -5.0320  -34.5790  -20.5720 C.3   169  GLU169      0.0402
     74  CG        -4.8000  -36.0670  -20.9480 C.3   169  GLU169      0.1161
     75  CD        -4.2650  -36.9460  -19.8160 C.2   169  GLU169      0.3649
     76  OE1       -4.0410  -36.4510  -18.6890 O.co2 169  GLU169     -0.2457
     77  OE2       -4.0650  -38.1550  -20.0690 O.co2 169  GLU169     -0.2457
     78  N         -5.4230  -31.3750  -21.3770 N.am  170  LYS170     -0.1980
     79  CA        -5.8310  -30.0720  -20.8600 C.3   170  LYS170      0.1596
     80  C         -6.1490  -29.0340  -21.9340 C.2   170  LYS170      0.2287
     81  O         -6.8580  -28.0660  -21.6540 O.2   170  LYS170     -0.2864
     82  CB        -4.7810  -29.5170  -19.8890 C.3   170  LYS170      0.0298
     83  CG        -4.5190  -30.3810  -18.6620 C.3   170  LYS170      0.0038
     84  CD        -5.7890  -30.6660  -17.8850 C.3   170  LYS170      0.0206
     85  CE        -5.4890  -31.5340  -16.6760 C.3   170  LYS170      0.1093
     86  NZ        -6.7190  -31.7850  -15.8630 N.3   170  LYS170     -0.1314
@<TRIPOS>BOND
     1    52    53    1
     2    53    54    1
     3    53    56    1
     4    69    70    1
     5    43    44    1
     6    54    55    2
     7    54    61   am
     8    63    64    2
     9    63    62    1
    10    80    81    2
    11    80    79    1
    12    56    57    1
    13    70    71    1
    14    70    73    1
    15    61    62    1
    16    45    46    2
    17    45    44    1
    18    78    71   am
    19    78    79    1
    20    71    72    2
    21    44    47    1
    22    62    65    1
    23    57    58    1
    24    74    73    1
    25    74    75    1
    26    79    82    1
    27    65    66    1
    28    42    40    1
    29    77    75   ar
    30    47    48    1
    31    66    68    1
    32    66    67    1
    33    82    83    1
    34    75    76   ar
    35    58    59    1
    36    60    59    1
    37    48    49    1
    38    38    37    2
    39    40    39    1
    40    39    41    1
    41    39    36    1
    42    83    84    1
    43    37    36    1
    44    49    50    1
    45     4     3    2
    46    84    85    1
    47    36    35    1
    48    50    51    1
    49     8    10   ar
    50     8     6   ar
    51     5     6    1
    52     5     2    1
    53     3     2    1
    54     1     2    1
    55    10    11   ar
    56    85    86    1
    57    35    29   am
    58     6     7   ar
    59    25    24    1
    60    30    29    2
    61    29    28    1
    62    11    12    1
    63    11     9   ar
    64    24    26    1
    65    24    21    1
    66    23    22    2
    67     7     9   ar
    68    22    21    1
    69    22    27   am
    70    28    27    1
    71    28    31    1
    72    33    32   ar
    73    21    20    1
    74    16    15    2
    75    32    31    1
    76    32    34   ar
    77    15    14    1
    78    13    14    1
    79    17    14    1
    80    17    18    1
    81    17    19    1
