@<TRIPOS>MOLECULE
tmp/2ycpB02.pdb
 86 81 0 0 0
SMALL
GASTEIGER

@<TRIPOS>ATOM
      1  N         -8.2680    1.4920    5.6310 N.3   116  TYR116     -0.1241
      2  CA        -7.6960    2.7810    5.2450 C.3   116  TYR116      0.1605
      3  C         -6.2370    2.8910    5.6390 C.2   116  TYR116      0.2264
      4  O         -5.8300    2.4260    6.7150 O.2   116  TYR116     -0.2867
      5  CB        -8.4920    3.9520    5.8510 C.3   116  TYR116      0.0534
      6  CG        -9.9260    3.9270    5.3920 C.ar  116  TYR116     -0.0201
      7  CD1      -10.8690    3.1710    6.0710 C.ar  116  TYR116     -0.0009
      8  CD2      -10.3190    4.5850    4.2160 C.ar  116  TYR116     -0.0009
      9  CE1      -12.1880    3.0990    5.6330 C.ar  116  TYR116      0.0417
     10  CE2      -11.6340    4.5130    3.7640 C.ar  116  TYR116      0.0417
     11  CZ       -12.5600    3.7690    4.4830 C.ar  116  TYR116      0.1957
     12  OH       -13.8660    3.6820    4.0610 O.3   116  TYR116     -0.2866
     13  N         -7.7190    2.0390    0.8840 N.3   136  VAL136     -0.1245
     14  CA        -8.0280    3.3750    0.4020 C.3   136  VAL136      0.1561
     15  C         -7.0890    4.3610    1.0930 C.2   136  VAL136      0.2260
     16  O         -6.9850    4.3640    2.3360 O.2   136  VAL136     -0.2867
     17  CB        -9.4780    3.7610    0.7030 C.3   136  VAL136      0.0252
     18  CG1       -9.7730    5.1450    0.1600 C.3   136  VAL136      0.0019
     19  CG2      -10.4520    2.7230    0.0970 C.3   136  VAL136      0.0019
     20  N         -5.9700    7.9100    2.4560 N.3   138  VAL138     -0.1231
     21  CA        -6.5870    9.1280    2.9850 C.3   138  VAL138      0.1692
     22  C         -5.4660   10.1190    3.3450 C.2   138  VAL138      0.2592
     23  O         -4.5350    9.7930    4.1040 O.2   138  VAL138     -0.2718
     24  CB        -7.4390    8.8490    4.2340 C.3   138  VAL138      0.0266
     25  CG1       -8.0120   10.1650    4.8110 C.3   138  VAL138      0.0020
     26  CG2       -8.5700    7.8510    3.9360 C.3   138  VAL138      0.0020
     27  N         -5.5450   11.3170    2.7720 N.am  139  ASP139     -0.1960
     28  CA        -4.5380   12.3500    2.9880 C.3   139  ASP139      0.1840
     29  C         -4.8550   13.1590    4.2420 C.2   139  ASP139      0.2621
     30  O         -5.8720   13.8510    4.3050 O.2   139  ASP139     -0.2715
     31  CB        -4.4800   13.2790    1.7850 C.3   139  ASP139      0.1450
     32  CG        -3.3030   14.2460    1.8450 C.2   139  ASP139      0.3671
     33  OD1       -2.5690   14.2730    2.8670 O.co2 139  ASP139     -0.2456
     34  OD2       -3.1140   14.9780    0.8470 O.co2 139  ASP139     -0.2456
     35  N         -3.9710   13.0830    5.2320 N.am  140  ILE140     -0.1977
     36  CA        -4.1810   13.7810    6.5040 C.3   140  ILE140      0.1596
     37  C         -3.1240   14.8640    6.7760 C.2   140  ILE140      0.2287
     38  O         -3.0470   15.4010    7.8900 O.2   140  ILE140     -0.2864
     39  CB        -4.2820   12.7870    7.7060 C.3   140  ILE140      0.0276
     40  CG1       -3.0490   11.8550    7.7450 C.3   140  ILE140      0.0022
     41  CG2       -5.5900   11.9910    7.6240 C.3   140  ILE140      0.0022
     42  CD1       -2.8670   11.0890    9.0750 C.3   140  ILE140      0.0001
     43  N         -7.7670   16.0220   11.0920 N.3   162  LYS162     -0.1245
     44  CA        -8.0770   15.1020    9.9880 C.3   162  LYS162      0.1561
     45  C         -7.9190   13.6330   10.3990 C.2   162  LYS162      0.2260
     46  O         -8.7400   12.7890   10.0290 O.2   162  LYS162     -0.2867
     47  CB        -7.2190   15.4060    8.7580 C.3   162  LYS162      0.0271
     48  CG        -7.4180   16.7990    8.2510 C.3   162  LYS162      0.0035
     49  CD        -6.6220   17.0390    6.9940 C.3   162  LYS162      0.0206
     50  CE        -6.8920   18.4360    6.4720 C.3   162  LYS162      0.1093
     51  NZ        -6.0150   18.6110    5.2830 N.3   162  LYS162     -0.1314
     52  N        -10.8510   12.7980   12.6640 N.3   165  LYS165     -0.1231
     53  CA       -12.0470   12.6480   11.8270 C.3   165  LYS165      0.1693
     54  C        -12.1430   11.2590   11.2200 C.2   165  LYS165      0.2591
     55  O        -13.2190   10.6390   11.2260 O.2   165  LYS165     -0.2718
     56  CB       -12.0400   13.6820   10.7030 C.3   165  LYS165      0.0285
     57  CG       -13.3480   13.8070    9.9270 C.3   165  LYS165      0.0035
     58  CD       -13.4150   15.1720    9.2140 C.3   165  LYS165      0.0206
     59  CE       -14.1120   15.0950    7.8640 C.3   165  LYS165      0.1093
     60  NZ       -15.5790   14.9670    8.0220 N.3   165  LYS165     -0.1314
     61  N        -11.0180   10.7860   10.6860 N.am  166  LEU166     -0.1980
     62  CA       -10.9350    9.4430   10.1230 C.3   166  LEU166      0.1596
     63  C        -11.2110    8.3760   11.1820 C.2   166  LEU166      0.2287
     64  O        -11.9450    7.4270   10.9250 O.2   166  LEU166     -0.2864
     65  CB        -9.5660    9.2140    9.4730 C.3   166  LEU166      0.0297
     66  CG        -9.3140    7.8490    8.8170 C.3   166  LEU166      0.0022
     67  CD1      -10.1500    7.6600    7.5520 C.3   166  LEU166      0.0001
     68  CD2       -7.8420    7.6520    8.5180 C.3   166  LEU166      0.0001
     69  N        -15.0960    8.5360   11.9490 N.3   169  GLU169     -0.1231
     70  CA       -16.0250    8.1640   10.9010 C.3   169  GLU169      0.1699
     71  C        -15.8560    6.7280   10.4060 C.2   169  GLU169      0.2592
     72  O        -16.8220    6.1140    9.9610 O.2   169  GLU169     -0.2718
     73  CB       -15.9310    9.1510    9.7450 C.3   169  GLU169      0.0402
     74  CG       -16.4750   10.5140   10.1070 C.3   169  GLU169      0.1161
     75  CD       -16.2560   11.5470    9.0300 C.2   169  GLU169      0.3649
     76  OE1      -15.8510   11.1690    7.9070 O.co2 169  GLU169     -0.2457
     77  OE2      -16.4950   12.7430    9.3140 O.co2 169  GLU169     -0.2457
     78  N        -14.6420    6.1930   10.4950 N.am  170  LYS170     -0.1980
     79  CA       -14.3590    4.8610    9.9680 C.3   170  LYS170      0.1596
     80  C        -14.0090    3.8360   11.0460 C.2   170  LYS170      0.2287
     81  O        -14.0610    2.6370   10.7960 O.2   170  LYS170     -0.2864
     82  CB       -13.2480    4.9340    8.9090 C.3   170  LYS170      0.0298
     83  CG       -13.5840    5.8420    7.7050 C.3   170  LYS170      0.0038
     84  CD       -14.9260    5.4510    7.0740 C.3   170  LYS170      0.0206
     85  CE       -15.2230    6.2750    5.8300 C.3   170  LYS170      0.1093
     86  NZ       -16.5390    5.8880    5.2440 N.3   170  LYS170     -0.1314
@<TRIPOS>BOND
     1    19    17    1
     2    18    17    1
     3    14    17    1
     4    14    13    1
     5    14    15    1
     6    34    32   ar
     7    15    16    2
     8    31    32    1
     9    31    28    1
    10    32    33   ar
    11    20    21    1
    12    27    28    1
    13    27    22   am
    14    21    22    1
    15    21    24    1
    16    28    29    1
    17    22    23    2
    18    10     8   ar
    19    10    11   ar
    20    26    24    1
    21    12    11    1
    22     8     6   ar
    23    24    25    1
    24    29    30    2
    25    29    35   am
    26    11     9   ar
    27    35    36    1
    28    86    85    1
    29     2     1    1
    30     2     3    1
    31     2     5    1
    32    51    50    1
    33     6     5    1
    34     6     7   ar
    35     9     7   ar
    36     3     4    2
    37    85    84    1
    38    50    49    1
    39    36    37    1
    40    36    39    1
    41    37    38    2
    42    49    48    1
    43    84    83    1
    44    67    66    1
    45    41    39    1
    46    83    82    1
    47    39    40    1
    48    40    42    1
    49    59    60    1
    50    59    58    1
    51    76    75   ar
    52    48    47    1
    53    68    66    1
    54    47    44    1
    55    66    65    1
    56    82    79    1
    57    75    77   ar
    58    75    74    1
    59    58    57    1
    60    65    62    1
    61    73    74    1
    62    73    70    1
    63    57    56    1
    64    72    71    2
    65    79    78    1
    66    79    80    1
    67    44    45    1
    68    44    43    1
    69    46    45    2
    70    62    61    1
    71    62    63    1
    72    71    78   am
    73    71    70    1
    74    61    54   am
    75    56    53    1
    76    81    80    2
    77    70    69    1
    78    64    63    2
    79    54    55    2
    80    54    53    1
    81    53    52    1
