@<TRIPOS>MOLECULE
tmp/2ycpA05.pdb
 84 82 0 0 0
SMALL
GASTEIGER

@<TRIPOS>ATOM
      1  N         42.0620  -32.7400  -21.1740 N.3     1  MET1       -0.1245
      2  CA        42.5460  -33.0790  -19.8060 C.3     1  MET1        0.1570
      3  C         41.3820  -33.3950  -18.8580 C.2     1  MET1        0.2261
      4  O         40.3480  -32.7190  -18.8810 O.2     1  MET1       -0.2867
      5  CB        43.3990  -31.9310  -19.2440 C.3     1  MET1        0.0387
      6  CG        44.3000  -32.3470  -18.1050 C.3     1  MET1        0.0595
      7  SD        45.6360  -31.1960  -17.7250 S.3     1  MET1       -0.1393
      8  CE        46.8230  -32.3780  -17.0830 C.3     1  MET1        0.0692
      9  N         41.5130  -32.9870  -15.5370 N.3     3  TYR3       -0.1228
     10  CA        41.3780  -31.8380  -14.6480 C.3     3  TYR3        0.1721
     11  C         42.4050  -30.7500  -14.9550 C.2     3  TYR3        0.2437
     12  O         43.5540  -30.8300  -14.5320 O.2     3  TYR3       -0.2733
     13  CB        41.4450  -32.2470  -13.1780 C.3     3  TYR3        0.0547
     14  CG        40.6800  -33.5160  -12.8250 C.ar    3  TYR3       -0.0200
     15  CD1       39.2870  -33.5420  -12.8310 C.ar    3  TYR3       -0.0009
     16  CD2       41.3720  -34.6800  -12.4570 C.ar    3  TYR3       -0.0009
     17  CE1       38.5840  -34.7110  -12.4950 C.ar    3  TYR3        0.0417
     18  CE2       40.6860  -35.8490  -12.1060 C.ar    3  TYR3        0.0417
     19  CZ        39.2950  -35.8520  -12.1300 C.ar    3  TYR3        0.1957
     20  OH        38.6190  -36.9980  -11.7970 O.3     3  TYR3       -0.2866
     21  N         41.9770  -29.7310  -15.7000 N.am    4  PRO4       -0.2718
     22  CA        42.8640  -28.6430  -16.1050 C.3     4  PRO4        0.1535
     23  C         43.2430  -27.7630  -14.9200 C.2     4  PRO4        0.2598
     24  O         42.4600  -27.6130  -13.9870 O.2     4  PRO4       -0.2715
     25  CB        42.0080  -27.8330  -17.0740 C.3     4  PRO4        0.0310
     26  CG        40.5670  -28.1930  -16.7500 C.3     4  PRO4        0.0237
     27  CD        40.6060  -29.5950  -16.2300 C.3     4  PRO4        0.0939
     28  N         44.4230  -27.1550  -14.9830 N.am    5  ALA5       -0.1978
     29  CA        44.7760  -26.1140  -14.0370 C.3     5  ALA5        0.1597
     30  C         43.8210  -24.9410  -14.2760 C.2     5  ALA5        0.2287
     31  O         43.1950  -24.8480  -15.3480 O.2     5  ALA5       -0.2864
     32  CB        46.2210  -25.6880  -14.2300 C.3     5  ALA5        0.0319
     33  N         35.7320  -33.1160  -10.4870 N.3   324  TYR324     -0.1241
     34  CA        36.8210  -33.6000   -9.6400 C.3   324  TYR324      0.1605
     35  C         36.3340  -33.9590   -8.2350 C.2   324  TYR324      0.2264
     36  O         36.6560  -35.0320   -7.7170 O.2   324  TYR324     -0.2867
     37  CB        37.9170  -32.5240   -9.5450 C.3   324  TYR324      0.0534
     38  CG        39.0480  -32.8810   -8.6030 C.ar  324  TYR324     -0.0201
     39  CD1       40.1280  -33.6330   -9.0540 C.ar  324  TYR324     -0.0009
     40  CD2       39.0400  -32.4520   -7.2590 C.ar  324  TYR324     -0.0009
     41  CE1       41.1760  -33.9710   -8.2040 C.ar  324  TYR324      0.0417
     42  CE2       40.1000  -32.7800   -6.3850 C.ar  324  TYR324      0.0417
     43  CZ        41.1640  -33.5330   -6.8870 C.ar  324  TYR324      0.1957
     44  OH        42.2210  -33.8870   -6.0990 O.3   324  TYR324     -0.2866
     45  N         41.3940  -26.8620   -6.3200 N.3   414  TYR414     -0.1227
     46  CA        41.3130  -28.3150   -6.1240 C.3   414  TYR414      0.1736
     47  C         41.6810  -28.7150   -4.6930 C.2   414  TYR414      0.2595
     48  O         41.2010  -29.7320   -4.2050 O.2   414  TYR414     -0.2718
     49  CB        42.2360  -29.0750   -7.0980 C.3   414  TYR414      0.0548
     50  CG        41.8050  -29.0310   -8.5500 C.ar  414  TYR414     -0.0200
     51  CD1       40.6210  -29.6560   -8.9730 C.ar  414  TYR414     -0.0009
     52  CD2       42.6090  -28.4080   -9.5190 C.ar  414  TYR414     -0.0009
     53  CE1       40.2340  -29.6180  -10.3120 C.ar  414  TYR414      0.0417
     54  CE2       42.2260  -28.3840  -10.8820 C.ar  414  TYR414      0.0417
     55  CZ        41.0310  -28.9690  -11.2500 C.ar  414  TYR414      0.1957
     56  OH        40.6560  -28.9670  -12.5650 O.3   414  TYR414     -0.2866
     57  N         42.5770  -27.9620   -4.0520 N.am  415  ALA415     -0.1980
     58  CA        42.9320  -28.2850   -2.6720 C.3   415  ALA415      0.1597
     59  C         41.7080  -28.1370   -1.7630 C.2   415  ALA415      0.2287
     60  O         41.5010  -28.9600   -0.8740 O.2   415  ALA415     -0.2864
     61  CB        44.1230  -27.4500   -2.1670 C.3   415  ALA415      0.0319
     62  N         39.6100  -31.1060   -2.3210 N.3   418  ASP418     -0.1225
     63  CA        40.1690  -32.2490   -1.5820 C.3   418  ASP418      0.1805
     64  C         39.7750  -32.2110   -0.1000 C.2   418  ASP418      0.2597
     65  O         39.4370  -33.2510    0.4770 O.2   418  ASP418     -0.2718
     66  CB        41.6930  -32.3210   -1.7270 C.3   418  ASP418      0.1424
     67  CG        42.1100  -32.8610   -3.0800 C.2   418  ASP418      0.3668
     68  OD1       41.3560  -33.6940   -3.6400 O.co2 418  ASP418     -0.2456
     69  OD2       43.1850  -32.4710   -3.5740 O.co2 418  ASP418     -0.2456
     70  N         39.8200  -31.0170    0.4930 N.am  419  VAL419     -0.1980
     71  CA        39.4680  -30.8530    1.9150 C.3   419  VAL419      0.1595
     72  C         37.9960  -31.2360    2.0840 C.2   419  VAL419      0.2287
     73  O         37.6370  -32.0000    2.9700 O.2   419  VAL419     -0.2864
     74  CB        39.7380  -29.4190    2.4230 C.3   419  VAL419      0.0276
     75  CG1       39.0530  -29.1740    3.7970 C.3   419  VAL419      0.0022
     76  CG2       41.2520  -29.1790    2.5330 C.3   419  VAL419      0.0022
     77  N         37.5530  -35.1290    1.6480 N.3   422  ASP422     -0.1239
     78  CA        38.0680  -35.8340    2.8090 C.3   422  ASP422      0.1674
     79  C         37.0770  -35.8240    3.9670 C.2   422  ASP422      0.2266
     80  O         36.8420  -36.8490    4.6020 O.2   422  ASP422     -0.2867
     81  CB        39.3690  -35.2070    3.2890 C.3   422  ASP422      0.1410
     82  CG        39.9760  -35.9720    4.4230 C.2   422  ASP422      0.3668
     83  OD1       40.5550  -37.0330    4.1480 O.co2 422  ASP422     -0.2456
     84  OD2       39.8510  -35.5430    5.5860 O.co2 422  ASP422     -0.2456
@<TRIPOS>BOND
     1     1     2    1
     2     2     5    1
     3     2     3    1
     4     5     6    1
     5     4     3    2
     6     6     7    1
     7     7     8    1
     8    25    26    1
     9    25    22    1
    10    26    27    1
    11    27    21    1
    12    22    21    1
    13    22    23    1
    14    21    11   am
    15     9    10    1
    16    31    30    2
    17    28    23   am
    18    28    29    1
    19    11    10    1
    20    11    12    2
    21    23    24    2
    22    10    13    1
    23    30    29    1
    24    32    29    1
    25    13    14    1
    26    15    14   ar
    27    15    17   ar
    28    14    16   ar
    29    56    55    1
    30    17    19   ar
    31    16    18   ar
    32    19    18   ar
    33    19    20    1
    34    55    54   ar
    35    55    53   ar
    36    54    52   ar
    37    33    34    1
    38    53    51   ar
    39    34    37    1
    40    34    35    1
    41    37    38    1
    42    52    50   ar
    43    39    38   ar
    44    39    41   ar
    45    51    50   ar
    46    38    40   ar
    47    50    49    1
    48    35    36    2
    49    41    43   ar
    50    40    42   ar
    51    49    46    1
    52    43    42   ar
    53    43    44    1
    54    45    46    1
    55    46    47    1
    56    47    48    2
    57    47    57   am
    58    57    58    1
    59    68    67   ar
    60    69    67   ar
    61    67    66    1
    62    58    61    1
    63    58    59    1
    64    62    63    1
    65    59    60    2
    66    66    63    1
    67    63    64    1
    68    64    65    2
    69    64    70   am
    70    70    71    1
    71    77    78    1
    72    71    72    1
    73    71    74    1
    74    72    73    2
    75    74    76    1
    76    74    75    1
    77    78    81    1
    78    78    79    1
    79    81    82    1
    80    79    80    2
    81    83    82   ar
    82    82    84   ar
