@<TRIPOS>MOLECULE
tmp/2ycqA00.pdb
 202 183 0 0 0
SMALL
GASTEIGER

@<TRIPOS>ATOM
      1  N        -50.8770  -22.8380   -8.7120 N.3    16  LEU16      -0.1231
      2  CA       -49.8120  -22.2810   -9.5490 C.3    16  LEU16       0.1693
      3  C        -48.4680  -22.3260   -8.8280 C.2    16  LEU16       0.2592
      4  O        -47.4240  -22.3930   -9.4640 O.2    16  LEU16      -0.2718
      5  CB       -50.1450  -20.8320   -9.9310 C.3    16  LEU16       0.0284
      6  CG       -51.4510  -20.6400  -10.7130 C.3    16  LEU16       0.0019
      7  CD1      -51.8670  -19.1720  -10.7740 C.3    16  LEU16       0.0001
      8  CD2      -51.3240  -21.2330  -12.1100 C.3    16  LEU16       0.0001
      9  N        -48.5100  -22.2580   -7.5000 N.am   17  GLY17      -0.1957
     10  CA       -47.3120  -22.2730   -6.6530 C.3    17  GLY17       0.1869
     11  C        -47.7140  -22.5540   -5.2110 C.2    17  GLY17       0.2309
     12  O        -48.9090  -22.5920   -4.8960 O.2    17  GLY17      -0.2863
     13  N        -45.9540  -20.2920    4.2860 N.3    21  CYS21      -0.1235
     14  CA       -47.2280  -20.0560    4.9850 C.3    21  CYS21       0.1677
     15  C        -48.4170  -20.0030    4.0200 C.2    21  CYS21       0.2270
     16  O        -49.5670  -19.8700    4.4520 O.2    21  CYS21      -0.2867
     17  CB       -47.1670  -18.7760    5.8430 C.3    21  CYS21       0.0956
     18  SG       -46.7190  -17.2430    4.9690 S.3    21  CYS21      -0.0801
     19  N        -50.4160  -20.2860   -4.0110 N.3    24  VAL24      -0.1245
     20  CA       -51.0430  -19.4100   -5.0070 C.3    24  VAL24       0.1561
     21  C        -51.9400  -20.2410   -5.9350 C.2    24  VAL24       0.2260
     22  O        -51.5010  -21.2540   -6.4640 O.2    24  VAL24      -0.2867
     23  CB       -49.9880  -18.6270   -5.8240 C.3    24  VAL24       0.0252
     24  CG1      -50.6590  -17.6590   -6.7840 C.3    24  VAL24       0.0019
     25  CG2      -49.0530  -17.8610   -4.8950 C.3    24  VAL24       0.0019
     26  N        -54.7070  -14.3510  -10.0220 N.3    37  ALA37      -0.1245
     27  CA       -53.9730  -15.1660   -9.0860 C.3    37  ALA37       0.1562
     28  C        -54.5400  -14.8430   -7.7430 C.2    37  ALA37       0.2260
     29  O        -54.8960  -13.6770   -7.4900 O.2    37  ALA37      -0.2867
     30  CB       -52.4810  -14.8160   -9.1270 C.3    37  ALA37       0.0290
     31  N        -53.3960  -15.3930   -3.7880 N.3    39  LYS39      -0.1245
     32  CA       -52.3930  -15.8020   -2.8290 C.3    39  LYS39       0.1561
     33  C        -53.1030  -16.0730   -1.5110 C.2    39  LYS39       0.2260
     34  O        -53.8430  -15.2210   -1.0220 O.2    39  LYS39      -0.2867
     35  CB       -51.3460  -14.6940   -2.6540 C.3    39  LYS39       0.0271
     36  CG       -50.3210  -14.9230   -1.5430 C.3    39  LYS39       0.0035
     37  CD       -49.4690  -16.1600   -1.7560 C.3    39  LYS39       0.0206
     38  CE       -48.3580  -16.2190   -0.7010 C.3    39  LYS39       0.1093
     39  NZ       -47.4930  -17.4290   -0.7730 N.3    39  LYS39      -0.1314
     40  N        -52.5860  -16.8440    2.4640 N.3    41  ILE41      -0.1245
     41  CA       -51.6540  -16.7630    3.5740 C.3    41  ILE41       0.1561
     42  C        -52.3730  -17.3210    4.7940 C.2    41  ILE41       0.2260
     43  O        -53.3760  -16.7610    5.2370 O.2    41  ILE41      -0.2867
     44  CB       -51.1560  -15.3190    3.8340 C.3    41  ILE41       0.0252
     45  CG1      -50.4830  -14.7600    2.5760 C.3    41  ILE41       0.0019
     46  CG2      -50.1800  -15.3020    5.0390 C.3    41  ILE41       0.0019
     47  CD1      -50.3540  -13.2480    2.5400 C.3    41  ILE41       0.0001
     48  N        -50.6460   -8.6290    7.8860 N.3    45  VAL45      -0.1245
     49  CA       -50.9670   -8.8350    6.4730 C.3    45  VAL45       0.1561
     50  C        -51.8760   -7.7010    5.9930 C.2    45  VAL45       0.2260
     51  O        -51.7340   -7.1940    4.8860 O.2    45  VAL45      -0.2867
     52  CB       -51.6230  -10.2100    6.2190 C.3    45  VAL45       0.0252
     53  CG1      -52.2480  -10.2710    4.8170 C.3    45  VAL45       0.0019
     54  CG2      -50.5900  -11.3050    6.3870 C.3    45  VAL45       0.0019
     55  N        -49.7900   -4.7720    5.2790 N.3    48  GLU48      -0.1245
     56  CA       -49.1140   -5.0480    4.0040 C.3    48  GLU48       0.1567
     57  C        -50.0370   -4.6800    2.8170 C.2    48  GLU48       0.2260
     58  O        -49.6130   -4.0320    1.8620 O.2    48  GLU48      -0.2867
     59  CB       -48.6760   -6.5190    3.9380 C.3    48  GLU48       0.0388
     60  CG       -48.2400   -6.9710    2.5640 C.3    48  GLU48       0.1160
     61  CD       -47.7430   -8.4030    2.5200 C.2    48  GLU48       0.3649
     62  OE1      -47.8110   -9.1410    3.5360 O.co2  48  GLU48      -0.2457
     63  OE2      -47.2830   -8.7910    1.4350 O.co2  48  GLU48      -0.2457
     64  N        -49.4810   -1.7790   -0.0030 N.3    52  LEU52      -0.1245
     65  CA       -49.5950   -2.0770   -1.4290 C.3    52  LEU52       0.1561
     66  C        -50.7370   -1.3330   -2.1690 C.2    52  LEU52       0.2260
     67  O        -50.6100   -1.0430   -3.3720 O.2    52  LEU52      -0.2867
     68  CB       -49.6800   -3.5780   -1.6470 C.3    52  LEU52       0.0270
     69  CG       -48.3120   -4.2610   -1.5290 C.3    52  LEU52       0.0019
     70  CD1      -48.4950   -5.7640   -1.5410 C.3    52  LEU52       0.0001
     71  CD2      -47.3430   -3.7850   -2.6560 C.3    52  LEU52       0.0001
     72  N        -46.3970   -5.2660   -7.6240 N.3    61  ILE61      -0.1245
     73  CA       -47.7190   -5.9080   -7.7050 C.3    61  ILE61       0.1561
     74  C        -48.8300   -5.0520   -7.1460 C.2    61  ILE61       0.2260
     75  O        -48.6330   -4.3090   -6.1850 O.2    61  ILE61      -0.2867
     76  CB       -47.8040   -7.2680   -6.9770 C.3    61  ILE61       0.0252
     77  CG1      -47.2900   -7.1550   -5.5280 C.3    61  ILE61       0.0019
     78  CG2      -47.1100   -8.3440   -7.7920 C.3    61  ILE61       0.0019
     79  CD1      -48.2140   -7.8120   -4.4880 C.3    61  ILE61       0.0001
     80  N        -52.8960   -5.0230   -5.6410 N.3    63  ILE63      -0.1245
     81  CA       -53.9540   -5.8190   -5.0230 C.3    63  ILE63       0.1561
     82  C        -55.2640   -5.4970   -5.7250 C.2    63  ILE63       0.2260
     83  O        -55.6460   -4.3460   -5.8020 O.2    63  ILE63      -0.2867
     84  CB       -54.1380   -5.5120   -3.5140 C.3    63  ILE63       0.0252
     85  CG1      -52.8280   -5.7170   -2.7520 C.3    63  ILE63       0.0019
     86  CG2      -55.2170   -6.4120   -2.8980 C.3    63  ILE63       0.0019
     87  CD1      -52.1020   -7.0040   -3.0920 C.3    63  ILE63       0.0001
     88  N        -55.4390  -12.9220   -1.0890 N.3    74  ILE74      -0.1245
     89  CA       -55.0550  -11.7190   -1.7990 C.3    74  ILE74       0.1561
     90  C        -55.1890  -11.9970   -3.2710 C.2    74  ILE74       0.2260
     91  O        -54.5080  -12.8660   -3.8000 O.2    74  ILE74      -0.2867
     92  CB       -53.5840  -11.3170   -1.5000 C.3    74  ILE74       0.0252
     93  CG1      -53.3720  -11.1580    0.0070 C.3    74  ILE74       0.0019
     94  CG2      -53.2330  -10.0310   -2.2350 C.3    74  ILE74       0.0019
     95  CD1      -51.8960  -11.0490    0.4310 C.3    74  ILE74       0.0001
     96  N        -54.6480  -10.9120   -7.1010 N.3    76  LEU76      -0.1231
     97  CA       -53.8930  -10.0190   -7.9630 C.3    76  LEU76       0.1693
     98  C        -53.8770  -10.4710   -9.4050 C.2    76  LEU76       0.2592
     99  O        -54.4070  -11.5390   -9.7360 O.2    76  LEU76      -0.2718
    100  CB       -52.4610   -9.8520   -7.4590 C.3    76  LEU76       0.0284
    101  CG       -51.5760  -11.0760   -7.2430 C.3    76  LEU76       0.0019
    102  CD1      -50.1120  -10.6420   -7.3510 C.3    76  LEU76       0.0001
    103  CD2      -51.8590  -11.6810   -5.8660 C.3    76  LEU76       0.0001
    104  N        -53.2820   -9.6420  -10.2650 N.am   77  GLU77      -0.1966
    105  CA       -53.1770   -9.9730  -11.6770 C.3    77  GLU77       0.1733
    106  C        -52.2310  -11.1600  -11.8370 C.2    77  GLU77       0.2616
    107  O        -51.2910  -11.3300  -11.0690 O.2    77  GLU77      -0.2715
    108  CB       -52.6980   -8.7880  -12.5430 C.3    77  GLU77       0.0429
    109  CG       -53.7770   -7.7330  -12.8760 C.3    77  GLU77       0.1163
    110  CD       -54.9850   -8.2730  -13.6390 C.2    77  GLU77       0.3649
    111  OE1      -54.8680   -9.3290  -14.2990 O.co2  77  GLU77      -0.2457
    112  OE2      -56.0640   -7.6320  -13.5910 O.co2  77  GLU77      -0.2457
    113  N        -52.5370  -11.9830  -12.8250 N.am   78  LEU78      -0.1963
    114  CA       -51.7770  -13.1740  -13.1390 C.3    78  LEU78       0.1728
    115  C        -50.3730  -12.7950  -13.6530 C.2    78  LEU78       0.2616
    116  O        -50.2200  -11.8560  -14.4310 O.2    78  LEU78      -0.2715
    117  CB       -52.5490  -13.9740  -14.1860 C.3    78  LEU78       0.0311
    118  CG       -52.2910  -15.4640  -14.3680 C.3    78  LEU78       0.0022
    119  CD1      -52.6720  -16.2370  -13.1180 C.3    78  LEU78       0.0001
    120  CD2      -53.0720  -15.9530  -15.5600 C.3    78  LEU78       0.0001
    121  N        -49.3570  -13.4890  -13.1580 N.am   79  MET79      -0.1963
    122  CA       -47.9890  -13.2890  -13.6160 C.3    79  MET79       0.1736
    123  C        -47.5500  -14.6540  -14.1200 C.2    79  MET79       0.2616
    124  O        -46.9560  -15.4500  -13.3960 O.2    79  MET79      -0.2715
    125  CB       -47.1040  -12.7430  -12.4910 C.3    79  MET79       0.0427
    126  CG       -47.5280  -11.3340  -12.0370 C.3    79  MET79       0.0599
    127  SD       -47.2250  -10.0840  -13.3110 S.3    79  MET79      -0.1393
    128  CE       -45.4060  -10.1230  -13.3030 C.3    79  MET79       0.0692
    129  N        -47.8940  -14.8970  -15.3830 N.am   80  GLU80      -0.1977
    130  CA       -47.8010  -16.2080  -16.0020 C.3    80  GLU80       0.1602
    131  C        -46.3810  -16.7280  -16.1250 C.2    80  GLU80       0.2287
    132  O        -46.1890  -17.9200  -16.2980 O.2    80  GLU80      -0.2864
    133  CB       -48.4680  -16.1860  -17.3980 C.3    80  GLU80       0.0415
    134  CG       -49.9910  -16.1480  -17.3290 C.3    80  GLU80       0.1163
    135  CD       -50.6510  -16.1730  -18.7000 C.2    80  GLU80       0.3649
    136  OE1      -50.2710  -15.3420  -19.5630 O.co2  80  GLU80      -0.2457
    137  OE2      -51.5490  -17.0200  -18.9140 O.co2  80  GLU80      -0.2457
    138  N        -44.2820  -16.6970  -13.7330 N.3    82  GLY82      -0.1210
    139  CA       -43.9420  -17.3430  -12.4650 C.3    82  GLY82       0.1956
    140  C        -42.8460  -16.5880  -11.7540 C.2    82  GLY82       0.2611
    141  O        -42.6190  -15.4150  -12.0360 O.2    82  GLY82      -0.2717
    142  N        -42.1700  -17.2600  -10.8240 N.am   83  GLU83      -0.1979
    143  CA       -41.0770  -16.6340  -10.0560 C.3    83  GLU83       0.1602
    144  C        -39.7760  -16.5910  -10.8470 C.2    83  GLU83       0.2287
    145  O        -39.4810  -17.5200  -11.6030 O.2    83  GLU83      -0.2864
    146  CB       -40.8180  -17.4070   -8.7590 C.3    83  GLU83       0.0415
    147  CG       -41.9500  -17.3430   -7.7540 C.3    83  GLU83       0.1163
    148  CD       -41.7100  -18.2190   -6.5240 C.2    83  GLU83       0.3649
    149  OE1      -40.6080  -18.8140   -6.3980 O.co2  83  GLU83      -0.2457
    150  OE2      -42.6330  -18.3100   -5.6780 O.co2  83  GLU83      -0.2457
    151  N        -37.1840  -19.6470  -10.4870 N.3    86  ASP86      -0.1239
    152  CA       -37.1880  -20.8040  -11.3710 C.3    86  ASP86       0.1674
    153  C        -36.3430  -20.6390  -12.6310 C.2    86  ASP86       0.2266
    154  O        -35.9590  -21.6300  -13.2340 O.2    86  ASP86      -0.2867
    155  CB       -38.6350  -21.1900  -11.7070 C.3    86  ASP86       0.1410
    156  CG       -39.3930  -21.6730  -10.4820 C.2    86  ASP86       0.3668
    157  OD1      -38.9770  -22.7090   -9.9240 O.co2  86  ASP86      -0.2456
    158  OD2      -40.3730  -21.0150  -10.0550 O.co2  86  ASP86      -0.2456
    159  N        -37.3530  -15.3650   -5.3840 N.3   126  GLU126     -0.1231
    160  CA       -38.7040  -15.8700   -5.0930 C.3   126  GLU126      0.1699
    161  C        -39.7680  -14.7650   -5.1120 C.2   126  GLU126      0.2592
    162  O        -40.9400  -15.0370   -5.4280 O.2   126  GLU126     -0.2718
    163  CB       -38.7380  -16.5640   -3.7290 C.3   126  GLU126      0.0402
    164  CG       -37.9240  -17.8630   -3.6820 C.3   126  GLU126      0.1161
    165  CD       -36.4330  -17.6630   -3.3460 C.2   126  GLU126      0.3649
    166  OE1      -35.8240  -16.6100   -3.6460 O.co2 126  GLU126     -0.2457
    167  OE2      -35.8550  -18.6160   -2.7890 O.co2 126  GLU126     -0.2457
    168  N        -39.3370  -13.5330   -4.8340 N.am  127  ASN127     -0.1974
    169  CA       -40.2300  -12.3710   -4.7260 C.3   127  ASN127      0.1688
    170  C        -40.2280  -11.4430   -5.9300 C.2   127  ASN127      0.2292
    171  O        -40.7100  -10.3130   -5.8740 O.2   127  ASN127     -0.2864
    172  CB       -39.8890  -11.6090   -3.4450 C.3   127  ASN127      0.1181
    173  CG       -40.1750  -12.4270   -2.2210 C.2   127  ASN127      0.2629
    174  OD1      -40.9240  -13.4030   -2.2990 O.2   127  ASN127     -0.2716
    175  ND2      -39.6040  -12.0400   -1.0780 N.am  127  ASN127     -0.0877
    176  N        -41.6920  -11.5940   -9.7480 N.3   129  LEU129     -0.1245
    177  CA       -42.6010  -12.3280  -10.6130 C.3   129  LEU129      0.1561
    178  C        -42.4150  -11.8420  -12.0330 C.2   129  LEU129      0.2260
    179  O        -42.1750  -10.6480  -12.2460 O.2   129  LEU129     -0.2867
    180  CB       -44.0550  -12.0940  -10.1800 C.3   129  LEU129      0.0270
    181  CG       -44.4080  -12.5030   -8.7410 C.3   129  LEU129      0.0019
    182  CD1      -45.8890  -12.1880   -8.4130 C.3   129  LEU129      0.0001
    183  CD2      -44.1070  -13.9760   -8.5610 C.3   129  LEU129      0.0001
    184  N        -42.9780   -8.5750   -5.4230 N.3   142  THR142     -0.1203
    185  CA       -44.0670   -8.9750   -4.5440 C.3   142  THR142      0.1994
    186  C        -43.5890   -9.3070   -3.1260 C.2   142  THR142      0.2617
    187  O        -42.4060   -9.1620   -2.8020 O.2   142  THR142     -0.2717
    188  CB       -44.7710  -10.2120   -5.1120 C.3   142  THR142      0.1784
    189  OG1      -46.0040  -10.4270   -4.4250 O.3   142  THR142     -0.2211
    190  CG2      -43.8730  -11.4320   -4.9940 C.3   142  THR142      0.0376
    191  N        -44.5420   -9.7370   -2.2960 N.am  143  ASP143     -0.1973
    192  CA       -44.3230  -10.1630   -0.9010 C.3   143  ASP143      0.1709
    193  C        -43.7200   -9.0650   -0.0320 C.2   143  ASP143      0.2293
    194  O        -42.5000   -9.0100    0.1740 O.2   143  ASP143     -0.2864
    195  CB       -43.4870  -11.4450   -0.8010 C.3   143  ASP143      0.1436
    196  CG       -43.3870  -11.9680    0.6480 C.2   143  ASP143      0.3671
    197  OD1      -43.9150  -11.3000    1.5600 O.co2 143  ASP143     -0.2456
    198  OD2      -42.7870  -13.0470    0.8840 O.co2 143  ASP143     -0.2456
    199  N        -44.3780   -8.6630    3.1580 N.3   145  GLY145     -0.1225
    200  CA       -44.5250   -9.1340    4.5310 C.3   145  GLY145      0.1811
    201  C        -43.4770   -8.6500    5.5120 C.2   145  GLY145      0.2280
    202  O        -43.7450   -8.5610    6.7000 O.2   145  GLY145     -0.2866
@<TRIPOS>BOND
     1   136   135   ar
     2   137   135   ar
     3   135   134    1
     4   133   134    1
     5   133   130    1
     6   132   131    2
     7   131   130    1
     8   130   129    1
     9   120   118    1
    10   129   123   am
    11   116   115    2
    12   118   117    1
    13   118   119    1
    14   111   110   ar
    15   117   114    1
    16   123   122    1
    17   123   124    2
    18   138   139    1
    19   115   121   am
    20   115   114    1
    21   110   112   ar
    22   110   109    1
    23   122   121    1
    24   122   125    1
    25   127   128    1
    26   127   126    1
    27   154   153    2
    28   114   113    1
    29   109   108    1
    30   113   106   am
    31   153   152    1
    32   108   105    1
    33   125   126    1
    34   139   140    1
    35   179   178    2
    36     8     6    1
    37   141   140    2
    38   178   177    1
    39   106   105    1
    40   106   107    2
    41   140   142   am
    42   155   152    1
    43   155   156    1
    44   105   104    1
    45   145   144    2
    46   152   151    1
    47   144   143    1
    48   142   143    1
    49     7     6    1
    50     6     5    1
    51   177   180    1
    52   177   176    1
    53   156   158   ar
    54   156   157   ar
    55   104    98   am
    56   180   181    1
    57   143   146    1
    58    26    27    1
    59     5     2    1
    60    99    98    2
    61     2     3    1
    62     2     1    1
    63     4     3    2
    64    98    97    1
    65    30    27    1
    66    27    28    1
    67     3     9   am
    68   146   147    1
    69   181   183    1
    70   181   182    1
    71    97   100    1
    72    97    96    1
    73    78    76    1
    74   147   148    1
    75    28    29    2
    76    73    72    1
    77    73    74    1
    78    73    76    1
    79     9    10    1
    80   100   101    1
    81   102   101    1
    82   101   103    1
    83    74    75    2
    84    76    77    1
    85    24    23    1
    86    10    11    1
    87   148   149   ar
    88   148   150   ar
    89    22    21    2
    90    21    20    1
    91   170   171    2
    92   170   169    1
    93    23    20    1
    94    23    25    1
    95    83    82    2
    96    82    81    1
    97    80    81    1
    98    77    79    1
    99   162   161    2
   100   184   185    1
   101   159   160    1
   102    11    12    2
   103   188   190    1
   104   188   185    1
   105   188   189    1
   106   161   160    1
   107   161   168   am
   108   160   163    1
   109    81    84    1
   110    20    19    1
   111   168   169    1
   112   169   172    1
   113   185   186    1
   114    91    90    2
   115    31    32    1
   116   163   164    1
   117   164   165    1
   118   166   165   ar
   119    84    86    1
   120    84    85    1
   121   172   173    1
   122    67    66    2
   123   165   167   ar
   124    90    89    1
   125   186   187    2
   126   186   191   am
   127    87    85    1
   128    32    35    1
   129    32    33    1
   130    71    69    1
   131    35    36    1
   132   174   173    2
   133   191   192    1
   134    94    92    1
   135   173   175   am
   136    66    65    1
   137    89    92    1
   138    89    88    1
   139    37    36    1
   140    37    38    1
   141    68    69    1
   142    68    65    1
   143    70    69    1
   144    33    34    2
   145    92    93    1
   146    65    64    1
   147   192   195    1
   148   192   193    1
   149   195   196    1
   150    39    38    1
   151   193   194    2
   152    93    95    1
   153   196   198   ar
   154   196   197   ar
   155    63    61   ar
   156    58    57    2
   157    40    41    1
   158    61    60    1
   159    61    62   ar
   160    47    45    1
   161    60    59    1
   162    45    44    1
   163    57    56    1
   164   199   200    1
   165    41    44    1
   166    41    42    1
   167    44    46    1
   168    59    56    1
   169    56    55    1
   170    15    16    2
   171    15    14    1
   172    13    14    1
   173   200   201    1
   174    42    43    2
   175    53    52    1
   176    51    50    2
   177    18    17    1
   178    14    17    1
   179   201   202    2
   180    50    49    1
   181    52    54    1
   182    52    49    1
   183    49    48    1
