@<TRIPOS>MOLECULE
tmp/2ycrA00.pdb
 218 202 0 0 0
SMALL
GASTEIGER

@<TRIPOS>ATOM
      1  N        -49.3650   36.4810    5.6800 N.3    14  LYS14      -0.1231
      2  CA       -49.4320   35.0580    6.0430 C.3    14  LYS14       0.1693
      3  C        -48.1730   34.5260    6.7310 C.2    14  LYS14       0.2593
      4  O        -47.0870   35.0890    6.5870 O.2    14  LYS14      -0.2718
      5  CB       -49.7420   34.1940    4.7990 C.3    14  LYS14       0.0285
      6  CG       -48.8050   34.4160    3.5950 C.3    14  LYS14       0.0035
      7  CD       -48.7530   33.1930    2.6740 C.3    14  LYS14       0.0206
      8  CE       -47.7930   33.4170    1.5040 C.3    14  LYS14       0.1093
      9  NZ       -47.2040   32.1490    1.0110 N.3    14  LYS14      -0.1314
     10  N        -48.3430   33.4290    7.4680 N.am   15  THR15      -0.1939
     11  CA       -47.2420   32.7490    8.1500 C.3    15  THR15       0.2028
     12  C        -46.3510   32.0390    7.1320 C.2    15  THR15       0.2642
     13  O        -46.8410   31.3800    6.2120 O.2    15  THR15      -0.2714
     14  CB       -47.7680   31.7120    9.1840 C.3    15  THR15       0.1808
     15  OG1      -48.5320   32.3880   10.1890 O.3    15  THR15      -0.2208
     16  CG2      -46.6210   30.9660    9.8570 C.3    15  THR15       0.0379
     17  N        -45.0420   32.1930    7.2910 N.am   16  LEU16      -0.1963
     18  CA       -44.0730   31.5240    6.4250 C.3    16  LEU16       0.1728
     19  C        -43.4790   30.3030    7.1350 C.2    16  LEU16       0.2616
     20  O        -43.1850   29.3000    6.4960 O.2    16  LEU16      -0.2715
     21  CB       -42.9810   32.5120    5.9700 C.3    16  LEU16       0.0311
     22  CG       -43.4800   33.6640    5.0730 C.3    16  LEU16       0.0022
     23  CD1      -42.4570   34.7890    4.9700 C.3    16  LEU16       0.0001
     24  CD2      -43.8760   33.1720    3.6770 C.3    16  LEU16       0.0001
     25  N        -43.3130   30.3940    8.4530 N.am   17  GLY17      -0.1955
     26  CA       -42.8560   29.2590    9.2580 C.3    17  GLY17       0.1869
     27  C        -43.0250   29.4630   10.7610 C.2    17  GLY17       0.2309
     28  O        -43.7260   30.3880   11.2020 O.2    17  GLY17      -0.2863
     29  N        -42.5550   33.1800   12.0540 N.3    21  VAL21      -0.1245
     30  CA       -42.1520   34.1120   10.9930 C.3    21  VAL21       0.1561
     31  C        -43.3060   34.4070   10.0360 C.2    21  VAL21       0.2260
     32  O        -43.9020   33.4870    9.4690 O.2    21  VAL21      -0.2867
     33  CB       -40.9720   33.5780   10.1760 C.3    21  VAL21       0.0252
     34  CG1      -40.4360   34.6770    9.2640 C.3    21  VAL21       0.0019
     35  CG2      -39.8810   33.0630   11.0970 C.3    21  VAL21       0.0019
     36  N        -39.8880   39.9390    6.0340 N.3    34  ALA34      -0.1245
     37  CA       -40.2630   38.8570    6.9200 C.3    34  ALA34       0.1562
     38  C        -40.2200   39.4490    8.2880 C.2    34  ALA34       0.2260
     39  O        -39.3740   40.3060    8.5700 O.2    34  ALA34      -0.2867
     40  CB       -39.3000   37.7120    6.7970 C.3    34  ALA34       0.0290
     41  N        -40.0630   38.2790   12.1860 N.3    36  LYS36      -0.1245
     42  CA       -39.8880   37.2380   13.2000 C.3    36  LYS36       0.1561
     43  C        -40.5250   37.7380   14.4800 C.2    36  LYS36       0.2260
     44  O        -40.2040   38.8250   14.9710 O.2    36  LYS36      -0.2867
     45  CB       -38.4000   36.9480   13.4210 C.3    36  LYS36       0.0271
     46  CG       -38.0740   35.9770   14.5550 C.3    36  LYS36       0.0035
     47  CD       -38.5490   34.5740   14.2600 C.3    36  LYS36       0.0206
     48  CE       -38.1200   33.5960   15.3540 C.3    36  LYS36       0.1093
     49  NZ       -38.7700   32.2590   15.2040 N.3    36  LYS36      -0.1314
     50  N        -40.8480   36.9340   18.3210 N.3    38  ILE38      -0.1245
     51  CA       -40.2710   36.2020   19.4440 C.3    38  ILE38       0.1561
     52  C        -41.0900   36.5310   20.6860 C.2    38  ILE38       0.2260
     53  O        -41.0420   37.6580   21.1820 O.2    38  ILE38      -0.2867
     54  CB       -38.7980   36.6000   19.6990 C.3    38  ILE38       0.0252
     55  CG1      -37.9180   36.2040   18.5090 C.3    38  ILE38       0.0019
     56  CG2      -38.2760   35.9410   20.9940 C.3    38  ILE38       0.0019
     57  CD1      -36.6970   37.0990   18.3230 C.3    38  ILE38       0.0001
     58  N        -32.4420   39.4190   23.5390 N.3    42  VAL42      -0.1245
     59  CA       -32.8950   39.7910   22.1960 C.3    42  VAL42       0.1561
     60  C        -32.2430   41.1300   21.8480 C.2    42  VAL42       0.2260
     61  O        -31.8390   41.3570   20.7020 O.2    42  VAL42      -0.2867
     62  CB       -34.4330   39.8550   22.0900 C.3    42  VAL42       0.0252
     63  CG1      -34.8670   40.2700   20.6760 C.3    42  VAL42       0.0019
     64  CG2      -35.0340   38.5120   22.4480 C.3    42  VAL42       0.0019
     65  N        -28.8820   40.2750   20.6700 N.3    45  GLU45      -0.1245
     66  CA       -28.9550   39.7320   19.3240 C.3    45  GLU45       0.1567
     67  C        -29.1110   40.8760   18.3120 C.2    45  GLU45       0.2260
     68  O        -28.4280   40.9140   17.2930 O.2    45  GLU45      -0.2867
     69  CB       -30.1020   38.7370   19.2180 C.3    45  GLU45       0.0388
     70  CG       -30.3820   38.2780   17.7940 C.3    45  GLU45       0.1160
     71  CD       -31.4570   37.2120   17.7120 C.2    45  GLU45       0.3649
     72  OE1      -32.0850   36.9000   18.7600 O.co2  45  GLU45      -0.2457
     73  OE2      -31.6690   36.6970   16.5850 O.co2  45  GLU45      -0.2457
     74  N        -26.5260   41.8780   15.4370 N.3    49  LEU49      -0.1245
     75  CA       -26.8850   41.8550   14.0250 C.3    49  LEU49       0.1561
     76  C        -26.7380   43.2200   13.3480 C.2    49  LEU49       0.2260
     77  O        -26.3280   43.2920   12.1860 O.2    49  LEU49      -0.2867
     78  CB       -28.2790   41.2670   13.8260 C.3    49  LEU49       0.0270
     79  CG       -28.2860   39.7350   13.8600 C.3    49  LEU49       0.0019
     80  CD1      -29.7100   39.1930   13.7920 C.3    49  LEU49       0.0001
     81  CD2      -27.4190   39.1560   12.7160 C.3    49  LEU49       0.0001
     82  N        -27.8420   37.3990    7.7210 N.3    58  ILE58      -0.1245
     83  CA       -29.1270   38.1020    7.6150 C.3    58  ILE58       0.1561
     84  C        -29.0430   39.4970    8.2620 C.2    58  ILE58       0.2260
     85  O        -28.4090   39.6660    9.2950 O.2    58  ILE58      -0.2867
     86  CB       -30.2470   37.2360    8.2670 C.3    58  ILE58       0.0252
     87  CG1      -31.6170   37.5260    7.6420 C.3    58  ILE58       0.0019
     88  CG2      -30.2500   37.4190    9.7940 C.3    58  ILE58       0.0019
     89  CD1      -31.7480   37.0790    6.1690 C.3    58  ILE58       0.0001
     90  N        -38.9530   41.4020   14.9820 N.3    71  ILE71      -0.1245
     91  CA       -37.7250   41.7050   14.2340 C.3    71  ILE71       0.1561
     92  C        -38.0400   41.6360   12.7710 C.2    71  ILE71       0.2260
     93  O        -38.4190   40.5870   12.2710 O.2    71  ILE71      -0.2867
     94  CB       -36.6250   40.6730   14.5080 C.3    71  ILE71       0.0252
     95  CG1      -36.2970   40.6130   15.9930 C.3    71  ILE71       0.0019
     96  CG2      -35.3660   40.9860   13.7040 C.3    71  ILE71       0.0019
     97  CD1      -35.3550   39.4680   16.3450 C.3    71  ILE71       0.0001
     98  N        -36.8530   41.5880    8.9280 N.3    73  LEU73      -0.1231
     99  CA       -35.6710   41.1180    8.1970 C.3    73  LEU73       0.1693
    100  C        -35.9760   41.0200    6.7230 C.2    73  LEU73       0.2592
    101  O        -37.1430   41.0150    6.3200 O.2    73  LEU73      -0.2718
    102  CB       -35.2790   39.7100    8.6350 C.3    73  LEU73       0.0284
    103  CG       -35.5140   39.3250   10.0960 C.3    73  LEU73       0.0019
    104  CD1      -36.2820   38.0040   10.1540 C.3    73  LEU73       0.0001
    105  CD2      -34.1760   39.2530   10.8770 C.3    73  LEU73       0.0001
    106  N        -34.9280   40.8900    5.9170 N.am   74  GLU74      -0.1966
    107  CA       -35.1380   40.6700    4.4890 C.3    74  GLU74       0.1733
    108  C        -35.8400   39.3180    4.3010 C.2    74  GLU74       0.2616
    109  O        -35.6360   38.3820    5.0760 O.2    74  GLU74      -0.2715
    110  CB       -33.8270   40.8230    3.6810 C.3    74  GLU74       0.0429
    111  CG       -32.6530   39.8950    4.0850 C.3    74  GLU74       0.1163
    112  CD       -31.2640   40.6070    4.0840 C.2    74  GLU74       0.3649
    113  OE1      -31.0860   41.6040    3.3140 O.co2  74  GLU74      -0.2457
    114  OE2      -30.3740   40.1760    4.8670 O.co2  74  GLU74      -0.2457
    115  N        -36.7280   39.2440    3.3210 N.am   75  LEU75      -0.1963
    116  CA       -37.4430   38.0140    3.0610 C.3    75  LEU75       0.1728
    117  C        -36.5330   37.0780    2.2650 C.2    75  LEU75       0.2616
    118  O        -35.9830   37.4680    1.2460 O.2    75  LEU75      -0.2715
    119  CB       -38.7290   38.2910    2.2840 C.3    75  LEU75       0.0311
    120  CG       -39.4980   37.0450    1.8140 C.3    75  LEU75       0.0022
    121  CD1      -39.9530   36.2180    3.0180 C.3    75  LEU75       0.0001
    122  CD2      -40.6700   37.4220    0.9250 C.3    75  LEU75       0.0001
    123  N        -36.3850   35.8470    2.7300 N.am   76  MET76      -0.1963
    124  CA       -35.5720   34.8580    2.0420 C.3    76  MET76       0.1736
    125  C        -36.5420   33.8780    1.3960 C.2    76  MET76       0.2616
    126  O        -37.1060   33.0270    2.0650 O.2    76  MET76      -0.2715
    127  CB       -34.6110   34.1650    3.0260 C.3    76  MET76       0.0427
    128  CG       -33.5560   35.0920    3.6140 C.3    76  MET76       0.0599
    129  SD       -32.4610   35.7610    2.3290 S.3    76  MET76      -0.1393
    130  CE       -31.4670   34.2990    1.9950 C.3    76  MET76       0.0692
    131  N        -36.7460   34.0230    0.0900 N.am   77  GLU77      -0.1963
    132  CA       -37.8380   33.3230   -0.5780 C.3    77  GLU77       0.1733
    133  C        -37.6510   31.8170   -0.6650 C.2    77  GLU77       0.2617
    134  O        -38.6280   31.1050   -0.8420 O.2    77  GLU77      -0.2715
    135  CB       -38.1040   33.8880   -1.9840 C.3    77  GLU77       0.0429
    136  CG       -39.1390   35.0170   -2.0150 C.3    77  GLU77       0.1163
    137  CD       -38.5400   36.3780   -2.3200 C.2    77  GLU77       0.3649
    138  OE1      -37.4520   36.6910   -1.7880 O.co2  77  GLU77      -0.2457
    139  OE2      -39.1680   37.1320   -3.0980 O.co2  77  GLU77      -0.2457
    140  N        -36.4180   31.3340   -0.5380 N.am   78  GLY78      -0.1940
    141  CA       -36.1630   29.8920   -0.6110 C.3    78  GLY78       0.2014
    142  C        -36.4880   29.1180    0.6540 C.2    78  GLY78       0.2639
    143  O        -36.4770   27.8880    0.6620 O.2    78  GLY78      -0.2714
    144  N        -36.7530   29.8300    1.7420 N.am   79  GLY79      -0.1939
    145  CA       -37.0290   29.1840    3.0200 C.3    79  GLY79       0.2014
    146  C        -35.7910   28.6230    3.6870 C.2    79  GLY79       0.2638
    147  O        -34.6790   29.0510    3.4020 O.2    79  GLY79      -0.2714
    148  N        -36.0020   27.6330    4.5500 N.am   80  GLU80      -0.1977
    149  CA       -34.9500   27.0160    5.3670 C.3    80  GLU80       0.1602
    150  C        -34.2590   25.8910    4.6240 C.2    80  GLU80       0.2287
    151  O        -34.9040   25.1610    3.8810 O.2    80  GLU80      -0.2864
    152  CB       -35.5590   26.4120    6.6370 C.3    80  GLU80       0.0415
    153  CG       -36.2070   27.4120    7.5780 C.3    80  GLU80       0.1163
    154  CD       -36.7920   26.7560    8.8320 C.2    80  GLU80       0.3649
    155  OE1      -36.7900   25.5070    8.9460 O.co2  80  GLU80      -0.2457
    156  OE2      -37.2530   27.5010    9.7140 O.co2  80  GLU80      -0.2457
    157  N        -35.7160   22.2460    5.0380 N.3    83  ASP83      -0.1239
    158  CA       -36.7350   21.6680    4.1580 C.3    83  ASP83       0.1674
    159  C        -36.1310   20.9570    2.9520 C.2    83  ASP83       0.2266
    160  O        -36.7920   20.1180    2.3480 O.2    83  ASP83      -0.2867
    161  CB       -37.7440   22.7280    3.7100 C.3    83  ASP83       0.1410
    162  CG       -38.5380   23.3090    4.8800 C.2    83  ASP83       0.3668
    163  OD1      -39.1350   22.5070    5.6420 O.co2  83  ASP83      -0.2456
    164  OD2      -38.5680   24.5560    5.0350 O.co2  83  ASP83      -0.2456
    165  N        -31.4660   27.2580   10.5640 N.3   124  ASN124     -0.1240
    166  CA       -30.9590   28.6140   10.6220 C.3   124  ASN124      0.1653
    167  C        -30.1160   28.9860    9.4280 C.2   124  ASN124      0.2266
    168  O        -29.3430   29.9380    9.4930 O.2   124  ASN124     -0.2867
    169  CB       -30.1580   28.8000   11.9090 C.3   124  ASN124      0.1155
    170  CG       -31.0070   28.6440   13.1210 C.2   124  ASN124      0.2627
    171  OD1      -32.2180   28.8830   13.0590 O.2   124  ASN124     -0.2716
    172  ND2      -30.4030   28.2380   14.2380 N.am  124  ASN124     -0.0877
    173  N        -30.8910   30.0660    5.6140 N.3   126  LEU126     -0.1245
    174  CA       -32.0330   30.4770    4.8230 C.3   126  LEU126      0.1561
    175  C        -31.5500   30.6150    3.4110 C.2   126  LEU126      0.2260
    176  O        -30.4470   31.0960    3.2010 O.2   126  LEU126     -0.2867
    177  CB       -32.5850   31.8220    5.3210 C.3   126  LEU126      0.0270
    178  CG       -33.0160   31.9590    6.7780 C.3   126  LEU126      0.0019
    179  CD1      -33.5650   33.3770    7.1050 C.3   126  LEU126      0.0001
    180  CD2      -34.0420   30.9210    7.1360 C.3   126  LEU126      0.0001
    181  N        -35.9260   29.9970   -4.6830 N.3   130  GLN130     -0.1245
    182  CA       -36.3030   28.6020   -4.8900 C.3   130  GLN130      0.1566
    183  C        -35.4230   27.9000   -5.9190 C.2   130  GLN130      0.2260
    184  O        -35.5360   26.6880   -6.0800 O.2   130  GLN130     -0.2867
    185  CB       -37.7790   28.4980   -5.2770 C.3   130  GLN130      0.0367
    186  CG       -38.7040   28.5520   -4.0730 C.3   130  GLN130      0.0905
    187  CD       -39.9800   29.3120   -4.3550 C.2   130  GLN130      0.2608
    188  OE1      -40.2670   30.3270   -3.7120 O.2   130  GLN130     -0.2717
    189  NE2      -40.7470   28.8410   -5.3280 N.am  130  GLN130     -0.0878
    190  N        -28.9800   32.8720   10.0230 N.3   139  THR139     -0.1203
    191  CA       -29.8690   33.6040   10.8720 C.3   139  THR139      0.1994
    192  C        -29.8890   33.0460   12.2970 C.2   139  THR139      0.2617
    193  O        -29.2060   32.0750   12.6240 O.2   139  THR139     -0.2717
    194  CB       -31.3070   33.5920   10.2730 C.3   139  THR139      0.1784
    195  OG1      -32.0870   34.5840   10.9310 O.3   139  THR139     -0.2211
    196  CG2      -31.9910   32.2410   10.4430 C.3   139  THR139      0.0376
    197  N        -30.6900   33.6960   13.1310 N.am  140  ASP140     -0.1973
    198  CA       -30.9510   33.2970   14.5280 C.3   140  ASP140      0.1709
    199  C        -29.7200   33.3630   15.4330 C.2   140  ASP140      0.2293
    200  O        -29.0640   32.3570   15.7180 O.2   140  ASP140     -0.2864
    201  CB       -31.5920   31.9150   14.6130 C.3   140  ASP140      0.1436
    202  CG       -31.9780   31.5460   16.0420 C.2   140  ASP140      0.3671
    203  OD1      -31.9050   32.4300   16.9520 O.co2 140  ASP140     -0.2456
    204  OD2      -32.3620   30.3700   16.2500 O.co2 140  ASP140     -0.2456
    205  N        -29.7810   34.1680   18.6110 N.3   142  GLY142     -0.1210
    206  CA       -30.2890   34.1800   19.9840 C.3   142  GLY142      0.1956
    207  C        -29.4180   33.4740   21.0150 C.2   142  GLY142      0.2611
    208  O        -29.5520   33.7450   22.2010 O.2   142  GLY142     -0.2717
    209  N        -28.5330   32.5750   20.5720 N.am  143  HIS143     -0.1975
    210  CA       -27.6020   31.8550   21.4790 C.3   143  HIS143      0.1656
    211  C        -26.1780   32.3420   21.2950 C.2   143  HIS143      0.2291
    212  O        -25.2610   31.7900   21.8760 O.2   143  HIS143     -0.2864
    213  CB       -27.6330   30.3330   21.2220 C.3   143  HIS143      0.0771
    214  CG       -28.8890   29.6670   21.6870 C.ar  143  HIS143      0.0820
    215  ND1      -30.0030   29.5300   20.8810 N.ar  143  HIS143     -0.2267
    216  CD2      -29.2170   29.1100   22.8790 C.ar  143  HIS143      0.1154
    217  CE1      -30.9630   28.9260   21.5580 C.ar  143  HIS143      0.1986
    218  NE2      -30.5120   28.6610   22.7740 N.ar  143  HIS143     -0.2212
@<TRIPOS>BOND
     1   184   183    2
     2   183   182    1
     3   189   187   am
     4   185   182    1
     5   185   186    1
     6   182   181    1
     7   187   186    1
     8   187   188    2
     9   139   137   ar
    10   137   136    1
    11   137   138   ar
    12   136   135    1
    13   135   132    1
    14   134   133    2
    15   133   132    1
    16   133   140   am
    17   141   140    1
    18   141   142    1
    19   132   131    1
    20   131   125   am
    21   142   143    2
    22   142   144   am
    23   122   120    1
    24     9     8    1
    25   118   117    2
    26   125   124    1
    27   125   126    2
    28     8     7    1
    29   144   145    1
    30   120   119    1
    31   120   121    1
    32   130   129    1
    33   124   123    1
    34   124   127    1
    35   117   123   am
    36   117   116    1
    37   119   116    1
    38   129   128    1
    39   160   159    2
    40     7     6    1
    41   159   158    1
    42   145   146    1
    43   127   128    1
    44   116   115    1
    45   176   175    2
    46   113   112   ar
    47   115   108   am
    48   147   146    2
    49   175   174    1
    50     6     5    1
    51    24    22    1
    52   110   111    1
    53   110   107    1
    54   146   148   am
    55   161   158    1
    56   161   162    1
    57   151   150    2
    58   112   111    1
    59   112   114   ar
    60   158   157    1
    61   108   107    1
    62   108   109    2
    63   107   106    1
    64   148   149    1
    65   150   149    1
    66     5     2    1
    67   174   177    1
    68   174   173    1
    69   162   164   ar
    70   162   163   ar
    71    23    22    1
    72    22    21    1
    73   177   178    1
    74   149   152    1
    75     1     2    1
    76   106   100   am
    77    21    18    1
    78    36    37    1
    79     2     3    1
    80    89    87    1
    81    13    12    2
    82   101   100    2
    83    18    19    1
    84    18    17    1
    85    20    19    2
    86     4     3    2
    87   152   153    1
    88   100    99    1
    89     3    10   am
    90   178   179    1
    91   178   180    1
    92    40    37    1
    93    37    38    1
    94    12    17   am
    95    12    11    1
    96    19    25   am
    97    10    11    1
    98   153   154    1
    99    83    82    1
   100    83    84    1
   101    83    86    1
   102    87    86    1
   103    11    14    1
   104    99   102    1
   105    99    98    1
   106    84    85    2
   107    86    88    1
   108    38    39    2
   109    25    26    1
   110   102   103    1
   111   154   155   ar
   112   154   156   ar
   113    14    16    1
   114    14    15    1
   115    26    27    1
   116    34    33    1
   117   167   168    2
   118   167   166    1
   119    32    31    2
   120   190   191    1
   121    31    30    1
   122   103   104    1
   123   103   105    1
   124    33    30    1
   125    33    35    1
   126   194   196    1
   127   194   191    1
   128   194   195    1
   129   165   166    1
   130   166   169    1
   131    27    28    2
   132   191   192    1
   133    30    29    1
   134   169   170    1
   135    41    42    1
   136    77    76    2
   137    93    92    2
   138   192   193    2
   139   192   197   am
   140    81    79    1
   141    92    91    1
   142   171   170    2
   143   170   172   am
   144   197   198    1
   145    42    45    1
   146    42    43    1
   147    76    75    1
   148    45    46    1
   149    96    94    1
   150    80    79    1
   151    78    79    1
   152    78    75    1
   153    75    74    1
   154    91    94    1
   155    91    90    1
   156    47    46    1
   157    47    48    1
   158    43    44    2
   159    94    95    1
   160   198   201    1
   161   198   199    1
   162   201   202    1
   163    49    48    1
   164   199   200    2
   165    95    97    1
   166   202   204   ar
   167   202   203   ar
   168    73    71   ar
   169    68    67    2
   170    71    70    1
   171    71    72   ar
   172    70    69    1
   173    67    66    1
   174    50    51    1
   175    57    55    1
   176    55    54    1
   177   205   206    1
   178    69    66    1
   179    66    65    1
   180    51    54    1
   181    51    52    1
   182    54    56    1
   183   206   207    1
   184   209   207   am
   185   209   210    1
   186    63    62    1
   187    52    53    2
   188    61    60    2
   189   215   217   ar
   190   215   214   ar
   191   207   208    2
   192   213   210    1
   193   213   214    1
   194   211   210    1
   195   211   212    2
   196   217   218   ar
   197   214   216   ar
   198    60    59    1
   199    62    59    1
   200    62    64    1
   201    59    58    1
   202   218   216   ar
