@<TRIPOS>MOLECULE
tmp/2ycsA00.pdb
 130 115 0 0 0
SMALL
GASTEIGER

@<TRIPOS>ATOM
      1  N        -42.7610   33.4410   12.0300 N.3    22  VAL22      -0.1245
      2  CA       -42.3290   34.3700   10.9720 C.3    22  VAL22       0.1561
      3  C        -43.4890   34.7080   10.0180 C.2    22  VAL22       0.2260
      4  O        -44.1410   33.8070    9.4830 O.2    22  VAL22      -0.2867
      5  CB       -41.1520   33.8190   10.1480 C.3    22  VAL22       0.0252
      6  CG1      -40.7930   34.8160    9.0300 C.3    22  VAL22       0.0019
      7  CG2      -39.9530   33.5510   11.0250 C.3    22  VAL22       0.0019
      8  N        -40.0010   40.2060    5.9580 N.3    35  ALA35      -0.1245
      9  CA       -40.3570   39.1250    6.8550 C.3    35  ALA35       0.1562
     10  C        -40.3260   39.7180    8.2330 C.2    35  ALA35       0.2260
     11  O        -39.4800   40.5670    8.5260 O.2    35  ALA35      -0.2867
     12  CB       -39.3680   37.9870    6.7570 C.3    35  ALA35       0.0290
     13  N        -40.2240   38.5340   12.1750 N.3    37  LYS37      -0.1245
     14  CA       -40.0820   37.4800   13.1780 C.3    37  LYS37       0.1561
     15  C        -40.6850   37.9930   14.4770 C.2    37  LYS37       0.2260
     16  O        -40.3130   39.0600   14.9740 O.2    37  LYS37      -0.2867
     17  CB       -38.6000   37.1060   13.3540 C.3    37  LYS37       0.0271
     18  CG       -38.3100   36.1280   14.4810 C.3    37  LYS37       0.0035
     19  CD       -38.7080   34.7090   14.1380 C.3    37  LYS37       0.0206
     20  CE       -38.2760   33.7410   15.2530 C.3    37  LYS37       0.1093
     21  NZ       -39.1560   32.5280   15.3650 N.3    37  LYS37      -0.1314
     22  N        -41.0820   37.0670   18.3320 N.3    39  ILE39      -0.1245
     23  CA       -40.5820   36.2880   19.4580 C.3    39  ILE39       0.1561
     24  C        -41.4190   36.6970   20.6620 C.2    39  ILE39       0.2260
     25  O        -41.3940   37.8550   21.0740 O.2    39  ILE39      -0.2867
     26  CB       -39.0950   36.5770   19.7480 C.3    39  ILE39       0.0252
     27  CG1      -38.2230   36.1550   18.5650 C.3    39  ILE39       0.0019
     28  CG2      -38.6380   35.8430   21.0350 C.3    39  ILE39       0.0019
     29  CD1      -36.9830   37.0320   18.3850 C.3    39  ILE39       0.0001
     30  N        -32.5960   39.3210   23.5560 N.3    43  VAL43      -0.1245
     31  CA       -33.1410   39.6460   22.2440 C.3    43  VAL43       0.1561
     32  C        -32.6040   41.0370   21.9630 C.2    43  VAL43       0.2260
     33  O        -32.2600   41.3800   20.8300 O.2    43  VAL43      -0.2867
     34  CB       -34.6850   39.6120   22.1960 C.3    43  VAL43       0.0252
     35  CG1      -35.1800   40.0340   20.8340 C.3    43  VAL43       0.0019
     36  CG2      -35.1930   38.2190   22.5030 C.3    43  VAL43       0.0019
     37  N        -29.1160   40.4070   20.7460 N.3    46  GLU46      -0.1245
     38  CA       -29.2060   39.8390   19.4130 C.3    46  GLU46       0.1567
     39  C        -29.4150   40.9720   18.3970 C.2    46  GLU46       0.2260
     40  O        -28.7920   40.9820   17.3340 O.2    46  GLU46      -0.2867
     41  CB       -30.3210   38.8110   19.3240 C.3    46  GLU46       0.0388
     42  CG       -30.5140   38.2920   17.9190 C.3    46  GLU46       0.1160
     43  CD       -31.5660   37.2330   17.8140 C.2    46  GLU46       0.3649
     44  OE1      -32.2100   36.9290   18.8560 O.co2  46  GLU46      -0.2457
     45  OE2      -31.7480   36.7140   16.6800 O.co2  46  GLU46      -0.2457
     46  N        -26.7810   42.0290   15.4460 N.3    50  LEU50      -0.1245
     47  CA       -27.1950   42.0780   14.0500 C.3    50  LEU50       0.1561
     48  C        -27.1040   43.4760   13.4220 C.2    50  LEU50       0.2260
     49  O        -26.8500   43.6000   12.2200 O.2    50  LEU50      -0.2867
     50  CB       -28.6110   41.5360   13.8970 C.3    50  LEU50       0.0270
     51  CG       -28.7060   40.0150   13.9910 C.3    50  LEU50       0.0019
     52  CD1      -30.0570   39.5180   13.4670 C.3    50  LEU50       0.0001
     53  CD2      -27.5180   39.3680   13.2260 C.3    50  LEU50       0.0001
     54  N        -28.0760   37.6050    7.7380 N.3    59  ILE59      -0.1245
     55  CA       -29.3620   38.3150    7.7000 C.3    59  ILE59       0.1561
     56  C        -29.2040   39.7120    8.2940 C.2    59  ILE59       0.2260
     57  O        -28.5180   39.8780    9.2750 O.2    59  ILE59      -0.2867
     58  CB       -30.4300   37.4640    8.4530 C.3    59  ILE59       0.0252
     59  CG1      -31.8160   37.7170    7.8890 C.3    59  ILE59       0.0019
     60  CG2      -30.3510   37.6560    9.9820 C.3    59  ILE59       0.0019
     61  CD1      -32.1260   36.8400    6.6810 C.3    59  ILE59       0.0001
     62  N        -39.1630   41.6840   14.9130 N.3    72  ILE72      -0.1245
     63  CA       -37.8970   41.9540   14.2340 C.3    72  ILE72       0.1561
     64  C        -38.1960   41.9380   12.7710 C.2    72  ILE72       0.2260
     65  O        -38.6160   40.9110   12.2630 O.2    72  ILE72      -0.2867
     66  CB       -36.8670   40.8410   14.5010 C.3    72  ILE72       0.0252
     67  CG1      -36.6330   40.6830   16.0060 C.3    72  ILE72       0.0019
     68  CG2      -35.5840   41.1100   13.7580 C.3    72  ILE72       0.0019
     69  CD1      -35.6540   39.5590   16.3610 C.3    72  ILE72       0.0001
     70  N        -36.9860   41.9110    8.9250 N.3    74  LEU74      -0.1245
     71  CA       -35.8330   41.4630    8.1320 C.3    74  LEU74       0.1561
     72  C        -36.1730   41.4530    6.6490 C.2    74  LEU74       0.2260
     73  O        -37.3410   41.4660    6.2550 O.2    74  LEU74      -0.2867
     74  CB       -35.4630   40.0200    8.4930 C.3    74  LEU74       0.0270
     75  CG       -35.5410   39.6910    9.9950 C.3    74  LEU74       0.0019
     76  CD1      -36.3390   38.4190   10.2130 C.3    74  LEU74       0.0001
     77  CD2      -34.1410   39.6210   10.6770 C.3    74  LEU74       0.0001
     78  N        -36.2980   27.9530    4.6620 N.3    81  GLU81      -0.1245
     79  CA       -35.2320   27.3120    5.4520 C.3    81  GLU81       0.1567
     80  C        -34.5450   26.2190    4.6590 C.2    81  GLU81       0.2260
     81  O        -35.1980   25.5310    3.8690 O.2    81  GLU81      -0.2867
     82  CB       -35.8030   26.6780    6.7190 C.3    81  GLU81       0.0388
     83  CG       -36.5590   27.6260    7.6450 C.3    81  GLU81       0.1160
     84  CD       -36.9610   26.9550    8.9550 C.2    81  GLU81       0.3649
     85  OE1      -36.9700   25.6950    9.0090 O.co2  81  GLU81      -0.2457
     86  OE2      -37.2510   27.6910    9.9390 O.co2  81  GLU81      -0.2457
     87  N        -32.3090   24.7840   10.0770 N.3   124  GLU124     -0.1231
     88  CA       -33.3970   25.6870   10.3850 C.3   124  GLU124      0.1699
     89  C        -32.9400   27.1410   10.3150 C.2   124  GLU124      0.2592
     90  O        -33.7560   28.0180   10.0170 O.2   124  GLU124     -0.2718
     91  CB       -33.9730   25.3950   11.7740 C.3   124  GLU124      0.0402
     92  CG       -34.7050   24.0640   11.8940 C.3   124  GLU124      0.1161
     93  CD       -33.7900   22.8910   12.2690 C.2   124  GLU124      0.3649
     94  OE1      -32.6190   22.8120   11.7990 O.co2 124  GLU124     -0.2457
     95  OE2      -34.2720   22.0290   13.0540 O.co2 124  GLU124     -0.2457
     96  N        -31.6450   27.3810   10.5830 N.am  125  ASN125     -0.1974
     97  CA       -31.0950   28.7270   10.7040 C.3   125  ASN125      0.1688
     98  C        -30.3020   29.1910    9.5040 C.2   125  ASN125      0.2292
     99  O        -29.5840   30.1870    9.5690 O.2   125  ASN125     -0.2864
    100  CB       -30.2830   28.8280   11.9920 C.3   125  ASN125      0.1181
    101  CG       -31.1660   28.7840   13.2120 C.2   125  ASN125      0.2629
    102  OD1      -32.3430   29.1000   13.1060 O.2   125  ASN125     -0.2716
    103  ND2      -30.6250   28.3940   14.3710 N.am  125  ASN125     -0.0877
    104  N        -31.1450   30.4200    5.7060 N.3   127  LEU127     -0.1245
    105  CA       -32.2480   30.8230    4.8320 C.3   127  LEU127      0.1561
    106  C        -31.7880   30.9140    3.3680 C.2   127  LEU127      0.2260
    107  O        -30.6660   31.3490    3.0990 O.2   127  LEU127     -0.2867
    108  CB       -32.8260   32.1690    5.2800 C.3   127  LEU127      0.0270
    109  CG       -33.3110   32.2980    6.7260 C.3   127  LEU127      0.0019
    110  CD1      -33.6830   33.7530    7.0640 C.3   127  LEU127      0.0001
    111  CD2      -34.4650   31.3510    6.9880 C.3   127  LEU127      0.0001
    112  N        -29.1960   33.0020   10.0530 N.3   140  THR140     -0.1203
    113  CA       -30.0720   33.7670   10.9250 C.3   140  THR140      0.1994
    114  C        -30.0770   33.2120   12.3450 C.2   140  THR140      0.2617
    115  O        -29.3660   32.2660   12.6530 O.2   140  THR140     -0.2717
    116  CB       -31.5270   33.7810   10.3850 C.3   140  THR140      0.1784
    117  OG1      -32.2780   34.8100   11.0670 O.3   140  THR140     -0.2211
    118  CG2      -32.1860   32.4090   10.5640 C.3   140  THR140      0.0376
    119  N        -30.8730   33.8490   13.2050 N.am  141  ASP141     -0.1973
    120  CA       -31.1030   33.4260   14.6050 C.3   141  ASP141      0.1709
    121  C        -29.8700   33.4940   15.5120 C.2   141  ASP141      0.2293
    122  O        -29.2160   32.4900   15.7920 O.2   141  ASP141     -0.2864
    123  CB       -31.7090   32.0280   14.6850 C.3   141  ASP141      0.1436
    124  CG       -31.9670   31.6020   16.1120 C.2   141  ASP141      0.3671
    125  OD1      -31.7400   32.4400   17.0090 O.co2 141  ASP141     -0.2456
    126  OD2      -32.4120   30.4550   16.3410 O.co2 141  ASP141     -0.2456
    127  N        -29.9210   34.2990   18.6490 N.3   143  GLY143     -0.1225
    128  CA       -30.4180   34.2630   20.0030 C.3   143  GLY143      0.1811
    129  C        -29.5490   33.5330   21.0120 C.2   143  GLY143      0.2280
    130  O        -29.7040   33.7470   22.1900 O.2   143  GLY143     -0.2866
@<TRIPOS>BOND
     1   107   106    2
     2   106   105    1
     3    81    80    2
     4    80    79    1
     5    78    79    1
     6   105   108    1
     7   105   104    1
     8   108   109    1
     9    79    82    1
    10     8     9    1
    11    73    72    2
    12    72    71    1
    13    61    59    1
    14    82    83    1
    15   109   111    1
    16   109   110    1
    17    12     9    1
    18     9    10    1
    19    83    84    1
    20    55    54    1
    21    55    56    1
    22    55    58    1
    23    59    58    1
    24    71    74    1
    25    71    70    1
    26    10    11    2
    27    56    57    2
    28    58    60    1
    29    74    75    1
    30    84    85   ar
    31    84    86   ar
    32     6     5    1
    33     4     3    2
    34    98    99    2
    35    98    97    1
    36    75    76    1
    37    75    77    1
    38    90    89    2
    39     3     2    1
    40   112   113    1
    41    87    88    1
    42     5     2    1
    43     5     7    1
    44    89    88    1
    45    89    96   am
    46    88    91    1
    47   116   118    1
    48   116   113    1
    49   116   117    1
    50    96    97    1
    51    97   100    1
    52   113   114    1
    53     2     1    1
    54    91    92    1
    55    94    93   ar
    56    92    93    1
    57   100   101    1
    58    13    14    1
    59    49    48    2
    60    65    64    2
    61    93    95   ar
    62   114   115    2
    63   114   119   am
    64    64    63    1
    65   102   101    2
    66    14    17    1
    67    14    15    1
    68   119   120    1
    69   101   103   am
    70    53    51    1
    71    17    18    1
    72    48    47    1
    73    52    51    1
    74    68    66    1
    75    50    51    1
    76    50    47    1
    77    47    46    1
    78    19    18    1
    79    19    20    1
    80    63    66    1
    81    63    62    1
    82    15    16    2
    83    66    67    1
    84   120   123    1
    85   120   121    1
    86   123   124    1
    87    20    21    1
    88   121   122    2
    89    67    69    1
    90   124   126   ar
    91   124   125   ar
    92    45    43   ar
    93    40    39    2
    94    43    42    1
    95    43    44   ar
    96    42    41    1
    97    22    23    1
    98    29    27    1
    99    39    38    1
   100    27    26    1
   101   127   128    1
   102    41    38    1
   103    38    37    1
   104    23    26    1
   105    23    24    1
   106    26    28    1
   107   128   129    1
   108    24    25    2
   109    33    32    2
   110    35    34    1
   111   129   130    2
   112    32    31    1
   113    34    31    1
   114    34    36    1
   115    31    30    1
