@<TRIPOS>MOLECULE
tmp/2yctA00.pdb
 127 116 0 0 0
SMALL
GASTEIGER

@<TRIPOS>ATOM
      1  N         19.1810   84.6170    8.2230 N.3    50  SER50      -0.1217
      2  CA        19.4500   83.2550    7.7990 C.3    50  SER50       0.1889
      3  C         18.4950   82.2960    8.4570 C.2    50  SER50       0.2288
      4  O         18.5610   82.0900    9.6780 O.2    50  SER50      -0.2866
      5  CB        20.8870   82.8660    8.1690 C.3    50  SER50       0.2089
      6  OG        21.1070   81.4850    7.9840 O.3    50  SER50      -0.2183
      7  N         22.8750   72.9930    4.7370 N.3    97  GLN97      -0.1231
      8  CA        22.9490   74.4530    4.6120 C.3    97  GLN97       0.1698
      9  C         24.2980   74.9000    3.9840 C.2    97  GLN97       0.2593
     10  O         25.0650   74.0750    3.4840 O.2    97  GLN97      -0.2718
     11  CB        22.6770   75.1460    5.9520 C.3    97  GLN97       0.0381
     12  CG        23.7010   74.8620    7.0500 C.3    97  GLN97       0.0905
     13  CD        23.2790   75.4370    8.4170 C.2    97  GLN97       0.2608
     14  OE1       22.2250   75.0860    8.9590 O.2    97  GLN97      -0.2717
     15  NE2       24.1180   76.3010    8.9860 N.am   97  GLN97      -0.0878
     16  N         24.5740   76.2010    4.0040 N.am   98  GLY98      -0.1942
     17  CA        25.7380   76.7440    3.3210 C.3    98  GLY98       0.2014
     18  C         27.0810   76.1390    3.7120 C.2    98  GLY98       0.2638
     19  O         27.8610   75.7560    2.8370 O.2    98  GLY98      -0.2714
     20  N         27.3770   76.0490    5.0100 N.am   99  ARG99      -0.1977
     21  CA        28.7320   75.6490    5.3980 C.3    99  ARG99       0.1597
     22  C         28.9710   74.1710    5.0800 C.2    99  ARG99       0.2287
     23  O         30.1080   73.7240    4.9950 O.2    99  ARG99      -0.2864
     24  CB        29.0550   75.9970    6.8700 C.3    99  ARG99       0.0334
     25  CG        28.2370   75.2190    7.9380 C.3    99  ARG99       0.0492
     26  CD        28.2680   75.9820    9.2800 C.3    99  ARG99       0.2205
     27  NE        27.3320   77.1170    9.2630 N.pl3  99  ARG99      -0.0865
     28  CZ        26.9830   77.8200   10.3370 C.cat  99  ARG99       0.5346
     29  NH1       27.4980   77.5390   11.5370 N.pl3  99  ARG99       0.1354
     30  NH2       26.1030   78.8010   10.2120 N.pl3  99  ARG99       0.1354
     31  N         30.3600   74.5580    1.6830 N.3   102  GLU102     -0.1245
     32  CA        31.7100   75.1360    1.7790 C.3   102  GLU102      0.1567
     33  C         32.6980   74.0470    2.1940 C.2   102  GLU102      0.2260
     34  O         33.8240   73.9840    1.6880 O.2   102  GLU102     -0.2867
     35  CB        31.7580   76.3210    2.7680 C.3   102  GLU102      0.0388
     36  CG        30.8280   77.4720    2.3720 C.3   102  GLU102      0.1160
     37  CD        30.8150   78.6360    3.3920 C.2   102  GLU102      0.3649
     38  OE1       30.9400   78.3820    4.6150 O.co2 102  GLU102     -0.2457
     39  OE2       30.6800   79.8090    2.9640 O.co2 102  GLU102     -0.2457
     40  N         34.4880   85.8520    4.5130 N.3   122  PHE122     -0.1241
     41  CA        33.3830   85.5280    5.4010 C.3   122  PHE122      0.1605
     42  C         33.8270   84.4950    6.4690 C.2   122  PHE122      0.2264
     43  O         34.7700   83.7240    6.2430 O.2   122  PHE122     -0.2867
     44  CB        32.1430   85.0440    4.6440 C.3   122  PHE122      0.0534
     45  CG        30.9490   84.8870    5.5480 C.ar  122  PHE122     -0.0203
     46  CD1       30.4180   86.0060    6.1990 C.ar  122  PHE122     -0.0042
     47  CD2       30.4120   83.6320    5.8090 C.ar  122  PHE122     -0.0042
     48  CE1       29.3480   85.8830    7.0880 C.ar  122  PHE122     -0.0003
     49  CE2       29.3280   83.4910    6.6940 C.ar  122  PHE122     -0.0003
     50  CZ        28.7960   84.6210    7.3350 C.ar  122  PHE122     -0.0000
     51  N         32.6000   81.5060    8.1380 N.3   124  THR124     -0.1218
     52  CA        32.6360   80.0620    7.9050 C.3   124  THR124      0.1862
     53  C         33.4560   79.7350    6.6520 C.2   124  THR124      0.2287
     54  O         34.2310   78.7660    6.6370 O.2   124  THR124     -0.2866
     55  CB        31.2140   79.4360    7.8060 C.3   124  THR124      0.1770
     56  OG1       30.4880   80.0620    6.7560 O.3   124  THR124     -0.2211
     57  CG2       30.4400   79.6080    9.1180 C.3   124  THR124      0.0375
     58  N         31.5500   86.3400   -3.9760 N.3   180  ALA180     -0.1245
     59  CA        30.2830   86.3620   -3.2540 C.3   180  ALA180      0.1562
     60  C         29.3620   87.4600   -3.7610 C.2   180  ALA180      0.2260
     61  O         29.8000   88.5810   -4.0490 O.2   180  ALA180     -0.2867
     62  CB        30.5340   86.5610   -1.7350 C.3   180  ALA180      0.0290
     63  N         25.3820   88.9840   -2.6400 N.3   182  THR182     -0.1218
     64  CA        26.1170   90.2210   -2.3580 C.3   182  THR182      0.1862
     65  C         27.2700   89.8400   -1.4330 C.2   182  THR182      0.2287
     66  O         27.4170   88.6540   -1.0290 O.2   182  THR182     -0.2866
     67  CB        25.2050   91.1950   -1.5780 C.3   182  THR182      0.1770
     68  OG1       24.7290   90.5580   -0.3780 O.3   182  THR182     -0.2211
     69  CG2       23.9800   91.5650   -2.3780 C.3   182  THR182      0.0375
     70  N         28.4000   90.1050    2.1110 N.3   184  ASN184     -0.1240
     71  CA        27.7560   90.2450    3.4170 C.3   184  ASN184      0.1653
     72  C         28.4910   91.2290    4.3430 C.2   184  ASN184      0.2266
     73  O         27.9160   92.2120    4.8220 O.2   184  ASN184     -0.2867
     74  CB        27.6050   88.8350    4.0410 C.3   184  ASN184      0.1155
     75  CG        26.9140   88.8380    5.4070 C.2   184  ASN184      0.2627
     76  OD1       26.5030   89.8840    5.9480 O.2   184  ASN184     -0.2716
     77  ND2       26.7850   87.6420    5.9740 N.am  184  ASN184     -0.0877
     78  N         29.7620   82.5640   -4.2710 N.3   213  ASP213     -0.1239
     79  CA        28.9140   82.3280   -3.1000 C.3   213  ASP213      0.1674
     80  C         27.5490   82.9300   -3.4470 C.2   213  ASP213      0.2266
     81  O         27.3820   84.1570   -3.4810 O.2   213  ASP213     -0.2867
     82  CB        29.5170   82.9450   -1.8410 C.3   213  ASP213      0.1410
     83  CG        28.7100   82.6350   -0.5920 C.2   213  ASP213      0.3668
     84  OD1       27.4740   82.5420   -0.6830 O.co2 213  ASP213     -0.2456
     85  OD2       29.3220   82.4710    0.4880 O.co2 213  ASP213     -0.2456
     86  N         24.7370   82.9390   -1.9960 N.3   215  THR215     -0.1203
     87  CA        23.7990   83.0520   -0.8750 C.3   215  THR215      0.1994
     88  C         22.7800   84.2050   -0.9730 C.2   215  THR215      0.2617
     89  O         21.6140   84.0240   -0.6390 O.2   215  THR215     -0.2717
     90  CB        24.5800   83.0740    0.4530 C.3   215  THR215      0.1784
     91  OG1       25.2560   81.8050    0.5910 O.3   215  THR215     -0.2211
     92  CG2       23.6480   83.3130    1.6430 C.3   215  THR215      0.0376
     93  N         23.2030   85.3750   -1.4530 N.am  216  ARG216     -0.1979
     94  CA        22.2600   86.4970   -1.6460 C.3   216  ARG216      0.1597
     95  C         22.2560   87.0080   -3.0960 C.2   216  ARG216      0.2287
     96  O         22.2720   88.2240   -3.3450 O.2   216  ARG216     -0.2864
     97  CB        22.5220   87.6030   -0.6060 C.3   216  ARG216      0.0334
     98  CG        22.3840   87.0820    0.8780 C.3   216  ARG216      0.0492
     99  CD        22.3680   88.2170    1.9190 C.3   216  ARG216      0.2205
    100  NE        22.2710   87.7510    3.3130 N.pl3 216  ARG216     -0.0865
    101  CZ        23.2650   87.1740    3.9940 C.cat 216  ARG216      0.5346
    102  NH1       24.4450   86.9600    3.4090 N.pl3 216  ARG216      0.1354
    103  NH2       23.0750   86.8080    5.2690 N.pl3 216  ARG216      0.1354
    104  N         23.8760   79.0320    0.6000 N.3   253  SER253     -0.1217
    105  CA        23.0290   78.8730    1.7860 C.3   253  SER253      0.1889
    106  C         21.5710   79.2510    1.4260 C.2   253  SER253      0.2288
    107  O         21.2160   80.4430    1.3980 O.2   253  SER253     -0.2866
    108  CB        23.5360   79.7410    2.9500 C.3   253  SER253      0.2089
    109  OG        22.6570   79.6080    4.0840 O.3   253  SER253     -0.2183
    110  N         19.0420   79.1860    3.0340 N.3   255  LYS255     -0.1231
    111  CA        18.4240   79.8330    4.1960 C.3   255  LYS255      0.1693
    112  C         18.3380   81.3490    4.0630 C.2   255  LYS255      0.2591
    113  O         17.6760   82.0110    4.8790 O.2   255  LYS255     -0.2718
    114  CB        19.1930   79.4700    5.4970 C.3   255  LYS255      0.0285
    115  CG        19.0950   78.0270    5.8650 C.3   255  LYS255      0.0035
    116  CD        20.1100   77.6490    6.9450 C.3   255  LYS255      0.0206
    117  CE        19.7260   78.1450    8.3360 C.3   255  LYS255      0.1093
    118  NZ        20.6480   77.4650    9.3700 N.3   255  LYS255     -0.1314
    119  N         19.0100   81.9080    3.0620 N.am  256  LYS256     -0.1980
    120  CA        18.8000   83.3110    2.7250 C.3   256  LYS256      0.1596
    121  C         17.8620   83.4270    1.5260 C.2   256  LYS256      0.2287
    122  O         16.6530   83.2100    1.6460 O.2   256  LYS256     -0.2864
    123  CB        20.1310   84.0520    2.4720 C.3   256  LYS256      0.0298
    124  CG        21.0010   84.2230    3.7410 C.3   256  LYS256      0.0038
    125  CD        21.3530   82.8710    4.3860 C.3   256  LYS256      0.0206
    126  CE        22.5900   82.9840    5.2790 C.3   256  LYS256      0.1093
    127  NZ        22.9750   81.7090    5.9060 N.3   256  LYS256     -0.1314
@<TRIPOS>BOND
     1    78    79    1
     2    61    60    2
     3    58    59    1
     4    60    59    1
     5    81    80    2
     6    80    79    1
     7    96    95    2
     8    59    62    1
     9    79    82    1
    10    95    94    1
    11    63    64    1
    12    69    67    1
    13    64    67    1
    14    64    65    1
    15    86    87    1
    16    82    83    1
    17    94    93    1
    18    94    97    1
    19    67    68    1
    20    93    88   am
    21    65    66    2
    22    88    87    1
    23    88    89    2
    24    87    90    1
    25    84    83   ar
    26    97    98    1
    27    83    85   ar
    28    90    91    1
    29    90    92    1
    30   104   105    1
    31    98    99    1
    32   107   106    2
    33   106   105    1
    34   121   122    2
    35   121   120    1
    36    31    32    1
    37    34    33    2
    38    32    33    1
    39    32    35    1
    40   105   108    1
    41    99   100    1
    42    70    71    1
    43    36    35    1
    44    36    37    1
    45   123   120    1
    46   123   124    1
    47   120   119    1
    48    19    18    2
    49   108   109    1
    50    39    37   ar
    51   110   111    1
    52   119   112   am
    53   100   101    2
    54    17    18    1
    55    17    16    1
    56    37    38   ar
    57   102   101    1
    58    71    74    1
    59    71    72    1
    60    10     9    2
    61    18    20   am
    62   124   125    1
    63     9    16   am
    64     9     8    1
    65   101   103    1
    66    74    75    1
    67   112   111    1
    68   112   113    2
    69   111   114    1
    70    72    73    2
    71   125   126    1
    72    40    41    1
    73     8     7    1
    74     8    11    1
    75    44    41    1
    76    44    45    1
    77    23    22    2
    78    20    21    1
    79    22    21    1
    80   126   127    1
    81    21    24    1
    82    41    42    1
    83    75    76    2
    84    75    77   am
    85   114   115    1
    86    45    47   ar
    87    45    46   ar
    88    47    49   ar
    89   115   116    1
    90    11    12    1
    91    46    48   ar
    92    43    42    2
    93    54    53    2
    94    53    52    1
    95    49    50   ar
    96    56    55    1
    97    24    25    1
    98   116   117    1
    99    12    13    1
   100    48    50   ar
   101     2     5    1
   102     2     1    1
   103     2     3    1
   104    55    52    1
   105    55    57    1
   106    52    51    1
   107    25    26    1
   108     6     5    1
   109   117   118    1
   110    13    14    2
   111    13    15   am
   112     3     4    2
   113    27    26    1
   114    27    28    2
   115    30    28    1
   116    28    29    1
