@<TRIPOS>MOLECULE
tmp/2yctB02.pdb
 94 90 0 0 0
SMALL
GASTEIGER

@<TRIPOS>ATOM
      1  N         25.4630   33.9830   10.3980 N.3   147  ALA147     -0.1231
      2  CA        24.2350   34.7060   10.0340 C.3   147  ALA147      0.1694
      3  C         22.9920   33.8100   10.0720 C.2   147  ALA147      0.2592
      4  O         21.8610   34.2950   10.0310 O.2   147  ALA147     -0.2718
      5  CB        24.3840   35.3790    8.6440 C.3   147  ALA147      0.0304
      6  N         23.2050   32.5010   10.1650 N.am  148  GLY148     -0.1957
      7  CA        22.0880   31.5830   10.2660 C.3   148  GLY148      0.1869
      8  C         21.8400   31.1080   11.6910 C.2   148  GLY148      0.2309
      9  O         20.9270   30.3070   11.9310 O.2   148  GLY148     -0.2863
     10  N         15.2220   31.5910    2.5100 N.3   334  PRO334     -0.2102
     11  CA        16.3950   31.7280    3.4060 C.3   334  PRO334      0.1504
     12  C         16.6240   33.1690    3.8410 C.2   334  PRO334      0.2576
     13  O         16.7070   34.0570    2.9860 O.2   334  PRO334     -0.2718
     14  CB        17.5700   31.2440    2.5310 C.3   334  PRO334      0.0282
     15  CG        17.0910   31.4410    1.0820 C.3   334  PRO334      0.0208
     16  CD        15.5940   31.2890    1.1060 C.3   334  PRO334      0.0893
     17  N         16.6910   33.4010    5.1560 N.am  335  ILE335     -0.1966
     18  CA        16.8870   34.7540    5.7100 C.3   335  ILE335      0.1727
     19  C         17.9920   34.7720    6.7720 C.2   335  ILE335      0.2616
     20  O         18.3440   33.7310    7.3120 O.2   335  ILE335     -0.2715
     21  CB        15.5980   35.3300    6.3760 C.3   335  ILE335      0.0290
     22  CG1       15.1310   34.4300    7.5250 C.3   335  ILE335      0.0022
     23  CG2       14.4770   35.5590    5.3270 C.3   335  ILE335      0.0023
     24  CD1       14.0970   35.0780    8.4280 C.3   335  ILE335      0.0001
     25  N         18.5230   35.9560    7.0750 N.am  336  VAL336     -0.1977
     26  CA        19.4370   36.1060    8.1990 C.3   336  VAL336      0.1596
     27  C         18.6170   35.8720    9.4580 C.2   336  VAL336      0.2287
     28  O         17.4970   36.3970    9.5690 O.2   336  VAL336     -0.2864
     29  CB        20.0480   37.5490    8.2420 C.3   336  VAL336      0.0276
     30  CG1       20.5980   37.8860    9.6590 C.3   336  VAL336      0.0022
     31  CG2       21.1310   37.6970    7.1620 C.3   336  VAL336      0.0022
     32  N         18.7470   35.8650    2.1760 N.3   347  ASP347     -0.1239
     33  CA        20.0340   35.3080    1.7430 C.3   347  ASP347      0.1674
     34  C         19.9880   34.9990    0.2450 C.2   347  ASP347      0.2266
     35  O         19.5130   33.9390   -0.1570 O.2   347  ASP347     -0.2867
     36  CB        20.3270   34.0380    2.4990 C.3   347  ASP347      0.1410
     37  CG        21.6520   33.3920    2.0940 C.2   347  ASP347      0.3668
     38  OD1       22.2740   33.7970    1.0800 O.co2 347  ASP347     -0.2456
     39  OD2       22.0590   32.4460    2.8110 O.co2 347  ASP347     -0.2456
     40  N         22.4530   34.4970   -1.7910 N.3   349  ARG349     -0.1231
     41  CA        23.3630   33.4420   -2.2190 C.3   349  ARG349      0.1694
     42  C         22.6200   32.1120   -2.2820 C.2   349  ARG349      0.2591
     43  O         22.6990   31.3760   -3.2640 O.2   349  ARG349     -0.2718
     44  CB        24.5770   33.3120   -1.2920 C.3   349  ARG349      0.0321
     45  CG        25.3880   32.0310   -1.6180 C.3   349  ARG349      0.0489
     46  CD        26.5970   31.8690   -0.7010 C.3   349  ARG349      0.2205
     47  NE        27.5060   32.9950   -0.8930 N.pl3 349  ARG349     -0.0865
     48  CZ        27.8570   33.8170    0.0740 C.cat 349  ARG349      0.5346
     49  NH1       27.3850   33.5900    1.2950 N.pl3 349  ARG349      0.1354
     50  NH2       28.6730   34.8400   -0.1810 N.pl3 349  ARG349      0.1354
     51  N         21.8780   31.8160   -1.2250 N.am  350  ARG350     -0.1980
     52  CA        21.1470   30.5630   -1.1560 C.3   350  ARG350      0.1597
     53  C         19.8800   30.6470   -2.0150 C.2   350  ARG350      0.2287
     54  O         19.4760   29.6660   -2.6370 O.2   350  ARG350     -0.2864
     55  CB        20.8390   30.2590    0.3110 C.3   350  ARG350      0.0334
     56  CG        19.7420   29.2620    0.5700 C.3   350  ARG350      0.0492
     57  CD        20.2720   27.8780    0.8090 C.3   350  ARG350      0.2205
     58  NE        21.3510   27.8040    1.7940 N.pl3 350  ARG350     -0.0865
     59  CZ        21.2310   27.2890    3.0210 C.cat 350  ARG350      0.5346
     60  NH1       20.0550   26.8380    3.4460 N.pl3 350  ARG350      0.1354
     61  NH2       22.2880   27.2310    3.8310 N.pl3 350  ARG350      0.1354
     62  N         31.0800   38.1050    2.4880 N.3   398  LYS398     -0.1231
     63  CA        30.4560   36.8480    2.8730 C.3   398  LYS398      0.1693
     64  C         28.9180   36.9170    2.8310 C.2   398  LYS398      0.2592
     65  O         28.2550   35.9440    2.4970 O.2   398  LYS398     -0.2718
     66  CB        30.9410   36.3830    4.2410 C.3   398  LYS398      0.0285
     67  CG        30.4940   34.9730    4.5930 C.3   398  LYS398      0.0035
     68  CD        31.5500   34.3170    5.4650 C.3   398  LYS398      0.0206
     69  CE        30.9420   33.3420    6.4580 C.3   398  LYS398      0.1093
     70  NZ        30.1360   34.0860    7.4560 N.3   398  LYS398     -0.1314
     71  N         28.3530   38.0660    3.1580 N.am  399  LEU399     -0.1966
     72  CA        26.9130   38.2030    3.1020 C.3   399  LEU399      0.1728
     73  C         26.5220   38.7370    1.7310 C.2   399  LEU399      0.2616
     74  O         26.9370   39.8260    1.3300 O.2   399  LEU399     -0.2715
     75  CB        26.4060   39.1130    4.2280 C.3   399  LEU399      0.0311
     76  CG        26.5130   38.5200    5.6470 C.3   399  LEU399      0.0022
     77  CD1       26.2230   39.5690    6.7300 C.3   399  LEU399      0.0001
     78  CD2       25.5670   37.3520    5.7990 C.3   399  LEU399      0.0001
     79  N         25.7370   37.9520    1.0040 N.am  400  GLU400     -0.1963
     80  CA        25.1630   38.4000   -0.2670 C.3   400  GLU400      0.1733
     81  C         23.6580   38.4780   -0.0050 C.2   400  GLU400      0.2617
     82  O         22.9570   37.4600   -0.0930 O.2   400  GLU400     -0.2715
     83  CB        25.4900   37.3750   -1.3710 C.3   400  GLU400      0.0429
     84  CG        24.8770   37.6530   -2.7500 C.3   400  GLU400      0.1163
     85  CD        25.5100   38.8590   -3.4350 C.2   400  GLU400      0.3649
     86  OE1       26.5190   39.4110   -2.9280 O.co2 400  GLU400     -0.2457
     87  OE2       24.9950   39.2680   -4.4800 O.co2 400  GLU400     -0.2457
     88  N         23.1660   39.6650    0.3470 N.am  401  THR401     -0.1951
     89  CA        21.7860   39.7980    0.8440 C.3   401  THR401      0.1897
     90  C         20.9670   40.8840    0.1360 C.2   401  THR401      0.2313
     91  O         21.5160   41.8320   -0.4590 O.2   401  THR401     -0.2863
     92  CB        21.7400   40.0800    2.3700 C.3   401  THR401      0.1794
     93  OG1       22.2850   41.3750    2.6600 O.3   401  THR401     -0.2208
     94  CG2       22.5140   39.0350    3.1510 C.3   401  THR401      0.0378
@<TRIPOS>BOND
     1    87    85   ar
     2    85    86   ar
     3    85    84    1
     4    43    42    2
     5    84    83    1
     6    54    53    2
     7    42    41    1
     8    42    51   am
     9    41    40    1
    10    41    44    1
    11    53    52    1
    12    45    44    1
    13    45    46    1
    14    83    80    1
    15    51    52    1
    16    52    55    1
    17    47    46    1
    18    47    48    2
    19    91    90    2
    20    80    81    1
    21    80    79    1
    22    50    48    1
    23    35    34    2
    24    82    81    2
    25    81    88   am
    26    48    49    1
    27    90    89    1
    28    34    33    1
    29    55    56    1
    30    88    89    1
    31    56    57    1
    32    57    58    1
    33    89    92    1
    34    79    73   am
    35    38    37   ar
    36    15    16    1
    37    15    14    1
    38    16    10    1
    39    74    73    2
    40    73    72    1
    41    33    32    1
    42    33    36    1
    43    58    59    2
    44    37    36    1
    45    37    39   ar
    46    92    93    1
    47    92    94    1
    48    62    63    1
    49    65    64    2
    50    10    11    1
    51    14    11    1
    52    64    63    1
    53    64    71   am
    54    63    66    1
    55    13    12    2
    56    59    60    1
    57    59    61    1
    58    72    71    1
    59    72    75    1
    60    11    12    1
    61    12    17   am
    62    75    76    1
    63    66    67    1
    64    67    68    1
    65    17    18    1
    66    23    21    1
    67    68    69    1
    68    76    78    1
    69    76    77    1
    70    18    21    1
    71    18    19    1
    72    21    22    1
    73    69    70    1
    74    19    25   am
    75    19    20    2
    76    25    26    1
    77    31    29    1
    78    22    24    1
    79    26    29    1
    80    26    27    1
    81    29    30    1
    82     5     2    1
    83    27    28    2
    84     4     3    2
    85     2     3    1
    86     2     1    1
    87     3     6   am
    88     6     7    1
    89     7     8    1
    90     8     9    2
