@<TRIPOS>MOLECULE
tmp/2yctA02.pdb
 121 115 0 0 0
SMALL
GASTEIGER

@<TRIPOS>ATOM
      1  N         24.2980   86.3790   20.7380 N.3    35  PHE35      -0.1241
      2  CA        24.0820   85.0000   20.2610 C.3    35  PHE35       0.1605
      3  C         23.5780   84.0790   21.3750 C.2    35  PHE35       0.2264
      4  O         23.0120   83.0190   21.1240 O.2    35  PHE35      -0.2867
      5  CB        25.3750   84.3830   19.7340 C.3    35  PHE35       0.0534
      6  CG        25.6890   84.7000   18.2970 C.ar   35  PHE35      -0.0203
      7  CD1       25.1400   83.9400   17.2690 C.ar   35  PHE35      -0.0042
      8  CD2       26.5860   85.7180   17.9770 C.ar   35  PHE35      -0.0042
      9  CE1       25.4750   84.2000   15.9260 C.ar   35  PHE35      -0.0003
     10  CE2       26.9290   85.9870   16.6550 C.ar   35  PHE35      -0.0003
     11  CZ        26.3680   85.2380   15.6240 C.ar   35  PHE35      -0.0000
     12  N         19.7930   87.7220   12.5360 N.3    48  THR48      -0.1218
     13  CA        20.1550   87.2600   11.2020 C.3    48  THR48       0.1862
     14  C         18.9720   87.0010   10.3150 C.2    48  THR48       0.2287
     15  O         17.8710   86.6840   10.8050 O.2    48  THR48      -0.2866
     16  CB        20.9930   85.9670   11.2250 C.3    48  THR48       0.1770
     17  OG1       21.3270   85.6100    9.8720 O.3    48  THR48      -0.2211
     18  CG2       20.2150   84.8520   11.8540 C.3    48  THR48       0.0375
     19  N         19.1810   84.6170    8.2230 N.3    50  SER50      -0.1217
     20  CA        19.4500   83.2550    7.7990 C.3    50  SER50       0.1889
     21  C         18.4950   82.2960    8.4570 C.2    50  SER50       0.2288
     22  O         18.5610   82.0900    9.6780 O.2    50  SER50      -0.2866
     23  CB        20.8870   82.8660    8.1690 C.3    50  SER50       0.2089
     24  OG        21.1070   81.4850    7.9840 O.3    50  SER50      -0.2183
     25  N         27.3770   76.0490    5.0100 N.3    99  ARG99      -0.1245
     26  CA        28.7320   75.6490    5.3980 C.3    99  ARG99       0.1563
     27  C         28.9710   74.1710    5.0800 C.2    99  ARG99       0.2260
     28  O         30.1080   73.7240    4.9950 O.2    99  ARG99      -0.2867
     29  CB        29.0550   75.9970    6.8700 C.3    99  ARG99       0.0307
     30  CG        28.2370   75.2190    7.9380 C.3    99  ARG99       0.0489
     31  CD        28.2680   75.9820    9.2800 C.3    99  ARG99       0.2205
     32  NE        27.3320   77.1170    9.2630 N.pl3  99  ARG99      -0.0865
     33  CZ        26.9830   77.8200   10.3370 C.cat  99  ARG99       0.5346
     34  NH1       27.4980   77.5390   11.5370 N.pl3  99  ARG99       0.1354
     35  NH2       26.1030   78.8010   10.2120 N.pl3  99  ARG99       0.1354
     36  N         34.4880   85.8520    4.5130 N.3   122  PHE122     -0.1227
     37  CA        33.3830   85.5280    5.4010 C.3   122  PHE122      0.1736
     38  C         33.8270   84.4950    6.4690 C.2   122  PHE122      0.2596
     39  O         34.7700   83.7240    6.2430 O.2   122  PHE122     -0.2718
     40  CB        32.1430   85.0440    4.6440 C.3   122  PHE122      0.0547
     41  CG        30.9490   84.8870    5.5480 C.ar  122  PHE122     -0.0202
     42  CD1       30.4180   86.0060    6.1990 C.ar  122  PHE122     -0.0042
     43  CD2       30.4120   83.6320    5.8090 C.ar  122  PHE122     -0.0042
     44  CE1       29.3480   85.8830    7.0880 C.ar  122  PHE122     -0.0003
     45  CE2       29.3280   83.4910    6.6940 C.ar  122  PHE122     -0.0003
     46  CZ        28.7960   84.6210    7.3350 C.ar  122  PHE122     -0.0000
     47  N         33.1500   84.4800    7.6200 N.am  123  THR123     -0.1939
     48  CA        33.5760   83.6600    8.7740 C.3   123  THR123      0.2028
     49  C         33.7060   82.1540    8.4910 C.2   123  THR123      0.2642
     50  O         34.8020   81.5790    8.6100 O.2   123  THR123     -0.2714
     51  CB        32.6590   83.8620   10.0220 C.3   123  THR123      0.1808
     52  OG1       31.3150   83.4840    9.6950 O.3   123  THR123     -0.2208
     53  CG2       32.6670   85.3320   10.4960 C.3   123  THR123      0.0379
     54  N         32.6000   81.5060    8.1380 N.am  124  THR124     -0.1950
     55  CA        32.6360   80.0620    7.9050 C.3   124  THR124      0.1897
     56  C         33.4560   79.7350    6.6520 C.2   124  THR124      0.2313
     57  O         34.2310   78.7660    6.6370 O.2   124  THR124     -0.2863
     58  CB        31.2140   79.4360    7.8060 C.3   124  THR124      0.1794
     59  OG1       30.4880   80.0620    6.7560 O.3   124  THR124     -0.2208
     60  CG2       30.4400   79.6080    9.1180 C.3   124  THR124      0.0378
     61  N         19.0100   81.9080    3.0620 N.3   256  LYS256     -0.1245
     62  CA        18.8000   83.3110    2.7250 C.3   256  LYS256      0.1561
     63  C         17.8620   83.4270    1.5260 C.2   256  LYS256      0.2260
     64  O         16.6530   83.2100    1.6460 O.2   256  LYS256     -0.2867
     65  CB        20.1310   84.0520    2.4720 C.3   256  LYS256      0.0271
     66  CG        21.0010   84.2230    3.7410 C.3   256  LYS256      0.0035
     67  CD        21.3530   82.8710    4.3860 C.3   256  LYS256      0.0206
     68  CE        22.5900   82.9840    5.2790 C.3   256  LYS256      0.1093
     69  NZ        22.9750   81.7090    5.9060 N.3   256  LYS256     -0.1314
     70  N         23.4610   91.5300   15.6290 N.3   378  MET378     -0.1245
     71  CA        24.7000   90.7210   15.6800 C.3   378  MET378      0.1570
     72  C         26.0240   91.5360   15.5650 C.2   378  MET378      0.2261
     73  O         26.1150   92.4460   14.7190 O.2   378  MET378     -0.2867
     74  CB        24.6950   89.7410   14.4960 C.3   378  MET378      0.0387
     75  CG        25.7750   88.6590   14.5620 C.3   378  MET378      0.0595
     76  SD        25.9480   87.7830   12.9970 S.3   378  MET378     -0.1393
     77  CE        24.4840   86.7080   12.9800 C.3   378  MET378      0.0692
     78  N         29.4470   92.2520   14.0080 N.3   380  ARG380     -0.1245
     79  CA        30.1030   92.0070   12.7160 C.3   380  ARG380      0.1563
     80  C         31.3760   92.8830   12.6870 C.2   380  ARG380      0.2260
     81  O         31.4560   93.8670   11.9330 O.2   380  ARG380     -0.2867
     82  CB        29.1820   92.3730   11.5370 C.3   380  ARG380      0.0307
     83  CG        27.8320   91.6060   11.4570 C.3   380  ARG380      0.0489
     84  CD        27.9800   90.1920   10.8350 C.3   380  ARG380      0.2205
     85  NE        28.6340   89.2560   11.7570 N.pl3 380  ARG380     -0.0865
     86  CZ        28.9220   87.9830   11.4700 C.cat 380  ARG380      0.5346
     87  NH1       28.6220   87.4830   10.2720 N.pl3 380  ARG380      0.1354
     88  NH2       29.4890   87.1980   12.3970 N.pl3 380  ARG380      0.1354
     89  N         24.9450   94.6320   13.1740 N.3   403  ARG403     -0.1245
     90  CA        24.0070   94.3570   12.0930 C.3   403  ARG403      0.1563
     91  C         22.5580   94.2090   12.5610 C.2   403  ARG403      0.2260
     92  O         22.2480   93.4240   13.4660 O.2   403  ARG403     -0.2867
     93  CB        24.4560   93.1030   11.3170 C.3   403  ARG403      0.0307
     94  CG        23.9050   93.0140    9.9200 C.3   403  ARG403      0.0489
     95  CD        24.3920   91.7360    9.2150 C.3   403  ARG403      0.2205
     96  NE        23.9150   90.5600    9.9410 N.pl3 403  ARG403     -0.0865
     97  CZ        24.2280   89.3070    9.6310 C.cat 403  ARG403      0.5346
     98  NH1       25.0570   89.0500    8.6030 N.pl3 403  ARG403      0.1354
     99  NH2       23.7290   88.3150   10.3640 N.pl3 403  ARG403      0.1354
    100  N         32.9100   84.1530   17.7760 N.3   447  PHE447     -0.1227
    101  CA        31.7840   85.0730   17.9500 C.3   447  PHE447      0.1736
    102  C         30.4890   84.3470   18.3440 C.2   447  PHE447      0.2595
    103  O         29.5960   84.9570   18.9410 O.2   447  PHE447     -0.2718
    104  CB        31.5590   85.8720   16.6470 C.3   447  PHE447      0.0547
    105  CG        31.3440   84.9990   15.4180 C.ar  447  PHE447     -0.0202
    106  CD1       32.4360   84.4900   14.7060 C.ar  447  PHE447     -0.0042
    107  CD2       30.0530   84.6700   14.9850 C.ar  447  PHE447     -0.0042
    108  CE1       32.2530   83.6810   13.5960 C.ar  447  PHE447     -0.0003
    109  CE2       29.8540   83.8660   13.8510 C.ar  447  PHE447     -0.0003
    110  CZ        30.9530   83.3620   13.1580 C.ar  447  PHE447     -0.0000
    111  N         30.3920   83.0620   17.9770 N.am  448  PHE448     -0.1976
    112  CA        29.1620   82.2800   18.1590 C.3   448  PHE448      0.1639
    113  C         28.8300   82.0850   19.6430 C.2   448  PHE448      0.2290
    114  O         27.6810   82.2010   20.0530 O.2   448  PHE448     -0.2864
    115  CB        29.2820   80.8900   17.5020 C.3   448  PHE448      0.0560
    116  CG        28.9870   80.8560   15.9890 C.ar  448  PHE448     -0.0200
    117  CD1       27.7910   81.3700   15.4660 C.ar  448  PHE448     -0.0042
    118  CD2       29.8910   80.2530   15.1040 C.ar  448  PHE448     -0.0042
    119  CE1       27.5030   81.3030   14.0900 C.ar  448  PHE448     -0.0003
    120  CE2       29.6180   80.1770   13.7090 C.ar  448  PHE448     -0.0003
    121  CZ        28.4250   80.7080   13.2010 C.ar  448  PHE448     -0.0000
@<TRIPOS>BOND
     1    63    64    2
     2    63    62    1
     3    65    62    1
     4    65    66    1
     5    62    61    1
     6    66    67    1
     7    67    68    1
     8    36    37    1
     9    40    37    1
    10    40    41    1
    11    28    27    2
    12    25    26    1
    13    27    26    1
    14    68    69    1
    15    26    29    1
    16    37    38    1
    17    41    43   ar
    18    41    42   ar
    19    43    45   ar
    20    42    44   ar
    21    39    38    2
    22    38    47   am
    23    57    56    2
    24    56    55    1
    25    45    46   ar
    26    59    58    1
    27    29    30    1
    28    44    46   ar
    29    47    48    1
    30    20    23    1
    31    20    19    1
    32    20    21    1
    33    58    55    1
    34    58    60    1
    35    55    54    1
    36    30    31    1
    37    24    23    1
    38    54    49   am
    39    21    22    2
    40    49    50    2
    41    49    48    1
    42    98    97    1
    43    48    51    1
    44    95    94    1
    45    95    96    1
    46    32    31    1
    47    32    33    2
    48    97    96    2
    49    97    99    1
    50    52    51    1
    51    17    16    1
    52    94    93    1
    53    51    53    1
    54    35    33    1
    55    87    86    1
    56    14    15    2
    57    14    13    1
    58    33    34    1
    59    84    83    1
    60    84    85    1
    61    13    16    1
    62    13    12    1
    63    16    18    1
    64    93    90    1
    65    83    82    1
    66    86    85    2
    67    86    88    1
    68    82    79    1
    69    81    80    2
    70    90    91    1
    71    90    89    1
    72    91    92    2
    73    80    79    1
    74    79    78    1
    75    77    76    1
    76    76    75    1
    77   110   108   ar
    78   110   109   ar
    79   121   120   ar
    80   121   119   ar
    81   108   106   ar
    82   120   118   ar
    83   109   107   ar
    84   119   117   ar
    85    74    75    1
    86    74    71    1
    87   106   105   ar
    88    73    72    2
    89   107   105   ar
    90   118   116   ar
    91   105   104    1
    92   117   116   ar
    93    72    71    1
    94    11     9   ar
    95    11    10   ar
    96    70    71    1
    97     9     7   ar
    98   116   115    1
    99   104   101    1
   100    10     8   ar
   101     7     6   ar
   102   115   112    1
   103   100   101    1
   104   101   102    1
   105     8     6   ar
   106   111   112    1
   107   111   102   am
   108   112   113    1
   109     6     5    1
   110   102   103    2
   111   113   114    2
   112     5     2    1
   113     2     1    1
   114     2     3    1
   115     4     3    2
