@<TRIPOS>MOLECULE
tmp/2ycwA00.pdb
 192 188 0 0 0
SMALL
GASTEIGER

@<TRIPOS>ATOM
      1  N         51.6280  -16.3870   23.7000 N.3    85  TRP85      -0.1227
      2  CA        52.5650  -15.3490   24.1300 C.3    85  TRP85       0.1737
      3  C         52.0160  -13.9810   23.7770 C.2    85  TRP85       0.2596
      4  O         51.9300  -13.1080   24.6370 O.2    85  TRP85      -0.2718
      5  CB        53.9410  -15.5540   23.4760 C.3    85  TRP85       0.0564
      6  CG        54.9250  -14.4440   23.7090 C.ar   85  TRP85       0.0003
      7  CD1       55.5550  -14.1500   24.8750 C.ar   85  TRP85       0.0946
      8  CD2       55.3990  -13.4950   22.7460 C.ar   85  TRP85       0.0152
      9  NE1       56.3810  -13.0720   24.7060 N.ar   85  TRP85      -0.2442
     10  CE2       56.3050  -12.6510   23.4070 C.ar   85  TRP85       0.0810
     11  CE3       55.1490  -13.2820   21.3880 C.ar   85  TRP85       0.0012
     12  CZ2       56.9630  -11.6000   22.7610 C.ar   85  TRP85       0.0191
     13  CZ3       55.8100  -12.2300   20.7370 C.ar   85  TRP85       0.0001
     14  CH2       56.7000  -11.4030   21.4270 C.ar   85  TRP85       0.0015
     15  N         51.6400  -13.8060   22.5090 N.am   86  THR86      -0.1953
     16  CA        51.0450  -12.5530   22.0350 C.3    86  THR86       0.1897
     17  C         49.8120  -12.1840   22.8520 C.2    86  THR86       0.2313
     18  O         49.6090  -11.0150   23.1770 O.2    86  THR86      -0.2863
     19  CB        50.5780  -12.6460   20.5800 C.3    86  THR86       0.1794
     20  OG1       51.6130  -13.1920   19.7680 O.3    86  THR86      -0.2208
     21  CG2       50.2190  -11.2870   20.0590 C.3    86  THR86       0.0378
     22  N         50.7570  -11.1160   26.2750 N.3    89  ASP89      -0.1225
     23  CA        51.4220   -9.8390   26.1260 C.3    89  ASP89       0.1805
     24  C         50.3870   -8.7350   26.0460 C.2    89  ASP89       0.2597
     25  O         50.5100   -7.7280   26.7260 O.2    89  ASP89      -0.2718
     26  CB        52.3030   -9.8600   24.8830 C.3    89  ASP89       0.1424
     27  CG        53.0320   -8.5530   24.6520 C.2    89  ASP89       0.3668
     28  OD1       52.6190   -7.5040   25.1990 O.co2  89  ASP89      -0.2456
     29  OD2       54.0230   -8.5690   23.8910 O.co2  89  ASP89      -0.2456
     30  N         49.3700   -8.9260   25.2160 N.am   90  VAL90      -0.1980
     31  CA        48.2910   -7.9490   25.0710 C.3    90  VAL90       0.1595
     32  C         47.4420   -7.8740   26.3360 C.2    90  VAL90       0.2287
     33  O         47.0250   -6.7850   26.7420 O.2    90  VAL90      -0.2864
     34  CB        47.3760   -8.2950   23.8660 C.3    90  VAL90       0.0276
     35  CG1       46.1430   -7.4100   23.8540 C.3    90  VAL90       0.0022
     36  CG2       48.1370   -8.1300   22.5590 C.3    90  VAL90       0.0022
     37  N         48.9240   -5.7080   29.2240 N.3    93  VAL93      -0.1231
     38  CA        48.9890   -4.2720   28.9960 C.3    93  VAL93       0.1692
     39  C         47.6210   -3.6530   29.2390 C.2    93  VAL93       0.2592
     40  O         47.5270   -2.5590   29.8210 O.2    93  VAL93      -0.2718
     41  CB        49.4840   -3.9410   27.5930 C.3    93  VAL93       0.0266
     42  CG1       49.6270   -2.4120   27.4040 C.3    93  VAL93       0.0020
     43  CG2       50.7950   -4.6540   27.3570 C.3    93  VAL93       0.0020
     44  N         46.5720   -4.3570   28.7950 N.am   94  THR94      -0.1953
     45  CA        45.1990   -3.9120   28.9740 C.3    94  THR94       0.1897
     46  C         44.8160   -3.9720   30.4470 C.2    94  THR94       0.2313
     47  O         44.3090   -2.9910   30.9900 O.2    94  THR94      -0.2863
     48  CB        44.2450   -4.7790   28.1600 C.3    94  THR94       0.1794
     49  OG1       44.4280   -4.5060   26.7710 O.3    94  THR94      -0.2208
     50  CG2       42.8130   -4.4830   28.5140 C.3    94  THR94       0.0378
     51  N         57.0990  -14.7400   14.4550 N.3   167  CYS167     -0.1221
     52  CA        56.1310  -14.3750   15.4700 C.3   167  CYS167      0.1808
     53  C         56.1130  -12.8650   15.5510 C.2   167  CYS167      0.2601
     54  O         56.1300  -12.2860   16.6380 O.2   167  CYS167     -0.2717
     55  CB        56.4820  -14.9990   16.8240 C.3   167  CYS167      0.0970
     56  SG        55.1280  -14.9670   18.0680 S.3   167  CYS167     -0.0800
     57  N         56.1170  -12.2330   14.3830 N.am  168  ASP168     -0.1959
     58  CA        55.7790  -10.8290   14.2890 C.3   168  ASP168      0.1840
     59  C         54.2790  -10.7290   14.4750 C.2   168  ASP168      0.2622
     60  O         53.5190  -11.5750   13.9920 O.2   168  ASP168     -0.2715
     61  CB        56.1340  -10.2300   12.9240 C.3   168  ASP168      0.1450
     62  CG        57.6190  -10.1570   12.6740 C.2   168  ASP168      0.3671
     63  OD1       58.3920  -10.8260   13.3940 O.co2 168  ASP168     -0.2456
     64  OD2       58.0030   -9.4290   11.7340 O.co2 168  ASP168     -0.2456
     65  N         53.8610   -9.6870   15.1770 N.am  169  PHE169     -0.1974
     66  CA        52.4640   -9.4020   15.3450 C.3   169  PHE169      0.1639
     67  C         52.0730   -8.4490   14.2200 C.2   169  PHE169      0.2290
     68  O         51.8930   -7.2430   14.4210 O.2   169  PHE169     -0.2864
     69  CB        52.2240   -8.8020   16.7310 C.3   169  PHE169      0.0560
     70  CG        50.7970   -8.8700   17.1850 C.ar  169  PHE169     -0.0200
     71  CD1       50.0770  -10.0540   17.0900 C.ar  169  PHE169     -0.0042
     72  CD2       50.1770   -7.7540   17.7300 C.ar  169  PHE169     -0.0042
     73  CE1       48.7740  -10.1230   17.5050 C.ar  169  PHE169     -0.0003
     74  CE2       48.8620   -7.8220   18.1480 C.ar  169  PHE169     -0.0003
     75  CZ        48.1650   -9.0150   18.0360 C.ar  169  PHE169     -0.0000
     76  N         49.3150   -7.1710   12.1080 N.3   171  THR171     -0.1218
     77  CA        47.8530   -7.1100   12.2530 C.3   171  THR171      0.1862
     78  C         47.2250   -6.1860   11.2040 C.2   171  THR171      0.2287
     79  O         47.7610   -5.1170   10.8920 O.2   171  THR171     -0.2866
     80  CB        47.4110   -6.6480   13.6820 C.3   171  THR171      0.1770
     81  OG1       47.4580   -5.2170   13.7870 O.3   171  THR171     -0.2211
     82  CG2       48.2940   -7.2650   14.7560 C.3   171  THR171      0.0375
     83  N         41.9820   -4.1770   13.2210 N.3   175  TYR175     -0.1227
     84  CA        42.3680   -4.6580   14.5420 C.3   175  TYR175      0.1736
     85  C         43.3560   -3.7230   15.1910 C.2   175  TYR175      0.2595
     86  O         43.2470   -3.4460   16.3620 O.2   175  TYR175     -0.2718
     87  CB        43.0050   -6.0420   14.4640 C.3   175  TYR175      0.0548
     88  CG        43.4540   -6.5720   15.8160 C.ar  175  TYR175     -0.0200
     89  CD1       44.6050   -6.0910   16.4430 C.ar  175  TYR175     -0.0009
     90  CD2       42.7200   -7.5430   16.4750 C.ar  175  TYR175     -0.0009
     91  CE1       45.0050   -6.5750   17.6860 C.ar  175  TYR175      0.0417
     92  CE2       43.1210   -8.0350   17.7090 C.ar  175  TYR175      0.0417
     93  CZ        44.2620   -7.5500   18.3090 C.ar  175  TYR175      0.1957
     94  OH        44.6400   -8.0430   19.5360 O.3   175  TYR175     -0.2866
     95  N         44.3450   -3.2590   14.4450 N.am  176  ALA176     -0.1980
     96  CA        45.2690   -2.2690   14.9850 C.3   176  ALA176      0.1597
     97  C         44.4710   -1.1580   15.6750 C.2   176  ALA176      0.2287
     98  O         44.5160   -1.0230   16.8950 O.2   176  ALA176     -0.2864
     99  CB        46.1800   -1.6960   13.8900 C.3   176  ALA176      0.0319
    100  N         41.7170   -2.3560   18.4710 N.3   179  SER179     -0.1202
    101  CA        42.2830   -2.9470   19.6820 C.3   179  SER179      0.2020
    102  C         43.1380   -1.9760   20.4680 C.2   179  SER179      0.2619
    103  O         43.1730   -2.0370   21.6940 O.2   179  SER179     -0.2717
    104  CB        43.0970   -4.2020   19.3740 C.3   179  SER179      0.2103
    105  OG        43.4100   -4.8720   20.5920 O.3   179  SER179     -0.2182
    106  N         43.8180   -1.0750   19.7790 N.am  180  SER180     -0.1951
    107  CA        44.5770   -0.0700   20.4880 C.3   180  SER180      0.1924
    108  C         43.6270    0.9460   21.1170 C.2   180  SER180      0.2314
    109  O         43.9380    1.5160   22.1590 O.2   180  SER180     -0.2863
    110  CB        45.6200    0.6050   19.5870 C.3   180  SER180      0.2116
    111  OG        45.0300    1.1060   18.4050 O.3   180  SER180     -0.2180
    112  N         41.8070   -1.3170   24.1390 N.3   183  SER183     -0.1217
    113  CA        42.7470   -1.7470   25.1840 C.3   183  SER183      0.1889
    114  C         43.5230   -0.6190   25.8120 C.2   183  SER183      0.2288
    115  O         43.8410   -0.6800   26.9930 O.2   183  SER183     -0.2866
    116  CB        43.7460   -2.7530   24.6430 C.3   183  SER183      0.2089
    117  OG        43.1510   -4.0290   24.5540 O.3   183  SER183     -0.2183
    118  N         54.3800    3.8000   27.4740 N.3   241  TRP241     -0.1241
    119  CA        53.5780    3.1320   26.4340 C.3   241  TRP241      0.1605
    120  C         52.9940    4.0530   25.3690 C.2   241  TRP241      0.2264
    121  O         52.7480    3.6180   24.2570 O.2   241  TRP241     -0.2867
    122  CB        52.4430    2.3660   27.0710 C.3   241  TRP241      0.0550
    123  CG        52.7910    1.0330   27.6310 C.ar  241  TRP241      0.0003
    124  CD1       52.7940    0.6760   28.9520 C.ar  241  TRP241      0.0946
    125  CD2       53.1220   -0.1520   26.9010 C.ar  241  TRP241      0.0152
    126  NE1       53.1230   -0.6490   29.0860 N.ar  241  TRP241     -0.2442
    127  CE2       53.3250   -1.1820   27.8400 C.ar  241  TRP241      0.0810
    128  CE3       53.2770   -0.4420   25.5440 C.ar  241  TRP241      0.0012
    129  CZ2       53.6800   -2.4850   27.4640 C.ar  241  TRP241      0.0191
    130  CZ3       53.6280   -1.7550   25.1720 C.ar  241  TRP241      0.0001
    131  CH2       53.8280   -2.7470   26.1330 C.ar  241  TRP241      0.0015
    132  N         54.7800    3.7500   21.9390 N.3   244  PHE244     -0.1227
    133  CA        54.4920    2.5140   21.2380 C.3   244  PHE244      0.1736
    134  C         53.1550    2.5660   20.5320 C.2   244  PHE244      0.2595
    135  O         53.0440    2.1040   19.4030 O.2   244  PHE244     -0.2718
    136  CB        54.4860    1.3450   22.1960 C.3   244  PHE244      0.0547
    137  CG        54.0780    0.0720   21.5600 C.ar  244  PHE244     -0.0202
    138  CD1       55.0190   -0.7550   20.9760 C.ar  244  PHE244     -0.0042
    139  CD2       52.7490   -0.3020   21.5190 C.ar  244  PHE244     -0.0042
    140  CE1       54.6450   -1.9550   20.3680 C.ar  244  PHE244     -0.0003
    141  CE2       52.3540   -1.4970   20.9100 C.ar  244  PHE244     -0.0003
    142  CZ        53.3060   -2.3250   20.3310 C.ar  244  PHE244     -0.0000
    143  N         52.1350    3.1090   21.1990 N.am  245  PHE245     -0.1976
    144  CA        50.7920    3.1620   20.6140 C.3   245  PHE245      0.1639
    145  C         50.6180    4.3330   19.6720 C.2   245  PHE245      0.2290
    146  O         49.8180    4.2340   18.7530 O.2   245  PHE245     -0.2864
    147  CB        49.7010    3.1830   21.6890 C.3   245  PHE245      0.0560
    148  CG        49.4430    1.8480   22.2890 C.ar  245  PHE245     -0.0200
    149  CD1       48.7590    0.8880   21.5730 C.ar  245  PHE245     -0.0042
    150  CD2       49.9150    1.5330   23.5500 C.ar  245  PHE245     -0.0042
    151  CE1       48.5290   -0.3800   22.1060 C.ar  245  PHE245     -0.0003
    152  CE2       49.7050    0.2770   24.0950 C.ar  245  PHE245     -0.0003
    153  CZ        49.0080   -0.6880   23.3680 C.ar  245  PHE245     -0.0000
    154  N         52.0200    2.8920   16.6910 N.3   248  ASN248     -0.1240
    155  CA        51.1120    1.8950   16.1250 C.3   248  ASN248      0.1653
    156  C         50.0360    2.5330   15.2320 C.2   248  ASN248      0.2266
    157  O         49.7220    2.0260   14.1640 O.2   248  ASN248     -0.2867
    158  CB        50.4600    1.0830   17.2420 C.3   248  ASN248      0.1155
    159  CG        50.2650   -0.3520   16.8630 C.2   248  ASN248      0.2627
    160  OD1       49.7830   -0.6490   15.7860 O.2   248  ASN248     -0.2716
    161  ND2       50.6510   -1.2550   17.7420 N.am  248  ASN248     -0.0877
    162  N         60.2440    0.8270   16.5660 N.3   263  PHE263     -0.1241
    163  CA        59.0850    0.0800   16.9830 C.3   263  PHE263      0.1605
    164  C         59.4430   -0.8960   18.0960 C.2   263  PHE263      0.2264
    165  O         58.8850   -0.8280   19.1780 O.2   263  PHE263     -0.2867
    166  CB        58.4700   -0.6610   15.8010 C.3   263  PHE263      0.0534
    167  CG        57.0120   -0.9660   15.9790 C.ar  263  PHE263     -0.0203
    168  CD1       56.6050   -2.1480   16.5840 C.ar  263  PHE263     -0.0042
    169  CD2       56.0490   -0.0610   15.5550 C.ar  263  PHE263     -0.0042
    170  CE1       55.2620   -2.4270   16.7600 C.ar  263  PHE263     -0.0003
    171  CE2       54.7080   -0.3250   15.7310 C.ar  263  PHE263     -0.0003
    172  CZ        54.3110   -1.5170   16.3360 C.ar  263  PHE263     -0.0000
    173  N         58.3490   -0.9480   22.1560 N.3   267  ASN267     -0.1240
    174  CA        57.7210   -2.0930   22.7970 C.3   267  ASN267      0.1653
    175  C         58.5070   -2.5290   24.0250 C.2   267  ASN267      0.2266
    176  O         57.9220   -2.9710   25.0090 O.2   267  ASN267     -0.2867
    177  CB        57.5610   -3.2680   21.8350 C.3   267  ASN267      0.1155
    178  CG        56.3930   -4.1980   22.2210 C.2   267  ASN267      0.2627
    179  OD1       55.7990   -4.8540   21.3590 O.2   267  ASN267     -0.2716
    180  ND2       56.0660   -4.2500   23.5090 N.am  267  ASN267     -0.0877
    181  N         57.7630   -2.8440   28.1150 N.3   271  TYR271     -0.1241
    182  CA        58.0390   -3.9210   29.0550 C.3   271  TYR271      0.1605
    183  C         58.8530   -3.3940   30.2110 C.2   271  TYR271      0.2264
    184  O         58.7750   -3.9230   31.3140 O.2   271  TYR271     -0.2867
    185  CB        58.8170   -5.0580   28.4090 C.3   271  TYR271      0.0534
    186  CG        58.1430   -5.7050   27.2190 C.ar  271  TYR271     -0.0201
    187  CD1       56.7890   -6.0460   27.2430 C.ar  271  TYR271     -0.0009
    188  CD2       58.8620   -5.9830   26.0730 C.ar  271  TYR271     -0.0009
    189  CE1       56.1860   -6.6490   26.1610 C.ar  271  TYR271      0.0417
    190  CE2       58.2700   -6.5830   24.9990 C.ar  271  TYR271      0.0417
    191  CZ        56.9320   -6.9140   25.0440 C.ar  271  TYR271      0.1957
    192  OH        56.3540   -7.4980   23.9450 O.3   271  TYR271     -0.2866
@<TRIPOS>BOND
     1    79    78    2
     2    78    77    1
     3    64    62   ar
     4    76    77    1
     5    77    80    1
     6    62    61    1
     7    62    63   ar
     8    61    58    1
     9    83    84    1
    10    80    81    1
    11    80    82    1
    12    99    96    1
    13    60    59    2
    14   157   156    2
    15    67    68    2
    16    67    66    1
    17    58    57    1
    18    58    59    1
    19    57    53   am
    20    95    96    1
    21    95    85   am
    22    51    52    1
    23    87    84    1
    24    87    88    1
    25    59    65   am
    26    84    85    1
    27    96    97    1
    28    65    66    1
    29    85    86    2
    30   156   155    1
    31    66    69    1
    32    52    53    1
    33    52    55    1
    34    53    54    2
    35   169   171   ar
    36   169   167   ar
    37    97    98    2
    38   171   172   ar
    39   160   159    2
    40   166   167    1
    41   166   163    1
    42    88    89   ar
    43    88    90   ar
    44   167   168   ar
    45   155   154    1
    46   155   158    1
    47   172   170   ar
    48    89    91   ar
    49    90    92   ar
    50   162   163    1
    51   168   170   ar
    52    69    70    1
    53    55    56    1
    54   159   158    1
    55   159   161   am
    56   163   164    1
    57    71    70   ar
    58    71    73   ar
    59    70    72   ar
    60    73    75   ar
    61    91    93   ar
    62    92    93   ar
    63    72    74   ar
    64    75    74   ar
    65   164   165    2
    66    93    94    1
    67   111   110    1
    68   100   101    1
    69   146   145    2
    70   104   101    1
    71   104   105    1
    72   135   134    2
    73   110   107    1
    74   145   144    1
    75   101   102    1
    76    20    19    1
    77   106   102   am
    78   106   107    1
    79    21    19    1
    80   142   140   ar
    81   142   141   ar
    82   140   138   ar
    83   102   103    2
    84   107   108    1
    85   134   143   am
    86   134   133    1
    87    19    16    1
    88   144   143    1
    89   144   147    1
    90    13    11   ar
    91    13    14   ar
    92   141   139   ar
    93   138   137   ar
    94   108   109    2
    95   133   132    1
    96   133   136    1
    97   179   178    2
    98    11     8   ar
    99    14    12   ar
   100   139   137   ar
   101   137   136    1
   102   149   151   ar
   103   149   148   ar
   104   147   148    1
   105   177   178    1
   106   177   174    1
   107    16    15    1
   108    16    17    1
   109   151   153   ar
   110   173   174    1
   111   178   180   am
   112   148   150   ar
   113    15     3   am
   114    36    34    1
   115     8    10   ar
   116     8     6   ar
   117    12    10   ar
   118   174   175    1
   119    17    18    2
   120   153   152   ar
   121    10     9   ar
   122     5     6    1
   123     5     2    1
   124   150   152   ar
   125     1     2    1
   126     6     7   ar
   127     3     2    1
   128     3     4    2
   129    35    34    1
   130    34    31    1
   131    29    27   ar
   132   192   191    1
   133   175   176    2
   134   112   113    1
   135   121   120    2
   136   117   116    1
   137   116   113    1
   138    27    26    1
   139    27    28   ar
   140     9     7   ar
   141    26    23    1
   142   190   191   ar
   143   190   188   ar
   144   191   189   ar
   145    31    30    1
   146    31    32    1
   147   130   128   ar
   148   130   131   ar
   149   113   114    1
   150    30    24   am
   151   120   119    1
   152   128   125   ar
   153   114   115    2
   154    24    23    1
   155    24    25    2
   156   188   186   ar
   157    23    22    1
   158   131   129   ar
   159   189   187   ar
   160    32    33    2
   161   119   122    1
   162   119   118    1
   163    49    48    1
   164   125   123   ar
   165   125   127   ar
   166   122   123    1
   167   186   187   ar
   168   186   185    1
   169    43    41    1
   170    42    41    1
   171   129   127   ar
   172    41    38    1
   173   123   124   ar
   174   127   126   ar
   175   181   182    1
   176    48    50    1
   177    48    45    1
   178   185   182    1
   179    44    45    1
   180    44    39   am
   181   124   126   ar
   182    45    46    1
   183    38    37    1
   184    38    39    1
   185   182   183    1
   186    39    40    2
   187   183   184    2
   188    46    47    2
