@<TRIPOS>MOLECULE
tmp/2ycwA01.pdb
 134 126 0 0 0
SMALL
GASTEIGER

@<TRIPOS>ATOM
      1  N         42.3940    5.1810   39.5630 N.3   104  ALA104     -0.1245
      2  CA        42.0750    6.6120   39.4270 C.3   104  ALA104      0.1562
      3  C         40.6670    6.9230   39.9070 C.2   104  ALA104      0.2260
      4  O         40.4940    7.7060   40.8300 O.2   104  ALA104     -0.2867
      5  CB        42.2480    7.0750   37.9960 C.3   104  ALA104      0.0290
      6  N         40.1620    6.5690   43.7440 N.3   107  ARG107     -0.1245
      7  CA        40.5910    7.7130   44.5610 C.3   107  ARG107      0.1563
      8  C         39.6270    8.8670   44.4360 C.2   107  ARG107      0.2260
      9  O         39.2400    9.4480   45.4290 O.2   107  ARG107     -0.2867
     10  CB        41.9950    8.2010   44.1820 C.3   107  ARG107      0.0307
     11  CG        43.1230    7.2500   44.5430 C.3   107  ARG107      0.0489
     12  CD        43.1840    6.9740   46.0310 C.3   107  ARG107      0.2205
     13  NE        42.2090    5.9710   46.4560 N.pl3 107  ARG107     -0.0865
     14  CZ        41.8920    5.7220   47.7210 C.cat 107  ARG107      0.5346
     15  NH1       42.4610    6.3980   48.7080 N.pl3 107  ARG107      0.1354
     16  NH2       41.0000    4.7860   48.0070 N.pl3 107  ARG107      0.1354
     17  N         42.2350   11.5180   36.6610 N.3   195  ALA195     -0.1245
     18  CA        43.4450   11.9140   37.3970 C.3   195  ALA195      0.1562
     19  C         43.6270   13.4260   37.4730 C.2   195  ALA195      0.2260
     20  O         44.1030   13.9380   38.4780 O.2   195  ALA195     -0.2867
     21  CB        44.6840   11.2640   36.7990 C.3   195  ALA195      0.0290
     22  N         41.0350   14.3680   40.1870 N.3   198  VAL198     -0.1231
     23  CA        41.5770   13.9940   41.4980 C.3   198  VAL198      0.1692
     24  C         42.6850   14.9370   41.9550 C.2   198  VAL198      0.2592
     25  O         42.8700   15.1360   43.1460 O.2   198  VAL198     -0.2718
     26  CB        42.1280   12.5590   41.5150 C.3   198  VAL198      0.0266
     27  CG1       42.9700   12.3290   42.7550 C.3   198  VAL198      0.0020
     28  CG2       41.0020   11.5530   41.4600 C.3   198  VAL198      0.0020
     29  N         43.4210   15.5050   41.0040 N.am  199  TYR199     -0.1976
     30  CA        44.4510   16.5040   41.2990 C.3   199  TYR199      0.1639
     31  C         43.8250   17.8380   41.6920 C.2   199  TYR199      0.2290
     32  O         44.2430   18.4480   42.6770 O.2   199  TYR199     -0.2864
     33  CB        45.3790   16.6930   40.0890 C.3   199  TYR199      0.0560
     34  CG        46.3390   17.8700   40.1870 C.ar  199  TYR199     -0.0198
     35  CD1       47.5530   17.7510   40.8570 C.ar  199  TYR199     -0.0009
     36  CD2       46.0350   19.0940   39.5920 C.ar  199  TYR199     -0.0009
     37  CE1       48.4320   18.8180   40.9450 C.ar  199  TYR199      0.0417
     38  CE2       46.9050   20.1690   39.6750 C.ar  199  TYR199      0.0417
     39  CZ        48.1020   20.0260   40.3520 C.ar  199  TYR199      0.1957
     40  OH        48.9680   21.0930   40.4360 O.3   199  TYR199     -0.2866
     41  N         42.0450   17.6490   45.0040 N.3   202  ALA202     -0.1231
     42  CA        43.0720   17.5180   46.0350 C.3   202  ALA202      0.1694
     43  C         43.6890   18.8690   46.3750 C.2   202  ALA202      0.2591
     44  O         44.1140   19.1000   47.5040 O.2   202  ALA202     -0.2718
     45  CB        44.1470   16.5530   45.5940 C.3   202  ALA202      0.0304
     46  N         43.7370   19.7610   45.3910 N.am  203  LYS203     -0.1980
     47  CA        44.2780   21.1000   45.5910 C.3   203  LYS203      0.1596
     48  C         43.2880   21.9680   46.3670 C.2   203  LYS203      0.2287
     49  O         43.6570   22.5930   47.3560 O.2   203  LYS203     -0.2864
     50  CB        44.6240   21.7470   44.2460 C.3   203  LYS203      0.0298
     51  CG        45.7090   22.8060   44.3320 C.3   203  LYS203      0.0038
     52  CD        46.1430   23.2740   42.9490 C.3   203  LYS203      0.0206
     53  CE        47.4700   24.0240   42.9960 C.3   203  LYS203      0.1093
     54  NZ        47.3970   25.2700   43.8040 N.3   203  LYS203     -0.1314
     55  N         43.3860   21.1880   50.1680 N.3   206  ILE206     -0.1245
     56  CA        44.5130   21.8130   50.8630 C.3   206  ILE206      0.1561
     57  C         44.3880   23.3460   50.8410 C.2   206  ILE206      0.2260
     58  O         44.8170   24.0160   51.7730 O.2   206  ILE206     -0.2867
     59  CB        45.8920   21.3410   50.3000 C.3   206  ILE206      0.0252
     60  CG1       46.9980   21.5880   51.3310 C.3   206  ILE206      0.0019
     61  CG2       46.2220   22.0310   48.9770 C.3   206  ILE206      0.0019
     62  CD1       48.3570   21.0600   50.9230 C.3   206  ILE206      0.0001
     63  N         44.8860   11.3300   50.8430 N.3   224  HIS224     -0.1226
     64  CA        45.7850   12.2160   50.0950 C.3   224  HIS224      0.1752
     65  C         47.2200   11.7170   50.1100 C.2   224  HIS224      0.2596
     66  O         47.9330   11.8330   49.1170 O.2   224  HIS224     -0.2718
     67  CB        45.7870   13.6240   50.6790 C.3   224  HIS224      0.0759
     68  CG        44.6570   14.4740   50.2120 C.ar  224  HIS224      0.0818
     69  ND1       44.8530   15.6520   49.5260 N.ar  224  HIS224     -0.2268
     70  CD2       43.3180   14.3240   50.3360 C.ar  224  HIS224      0.1154
     71  CE1       43.6820   16.1940   49.2490 C.ar  224  HIS224      0.1986
     72  NE2       42.7350   15.4100   49.7320 N.ar  224  HIS224     -0.2212
     73  N         47.6510   11.1980   51.2550 N.am  225  LYS225     -0.1966
     74  CA        49.0170   10.7130   51.4020 C.3   225  LYS225      0.1728
     75  C         49.1470    9.4240   50.5980 C.2   225  LYS225      0.2616
     76  O         48.5540    8.4050   50.9720 O.2   225  LYS225     -0.2715
     77  CB        49.3520   10.4870   52.8880 C.3   225  LYS225      0.0311
     78  CG        50.8450   10.2380   53.1690 C.3   225  LYS225      0.0038
     79  CD        51.2590   10.6850   54.5810 C.3   225  LYS225      0.0206
     80  CE        52.7860   10.7140   54.7410 C.3   225  LYS225      0.1093
     81  NZ        53.2650   11.8480   55.6050 N.3   225  LYS225     -0.1314
     82  N         49.9110    9.4820   49.4990 N.am  226  ALA226     -0.1963
     83  CA        50.0020    8.3660   48.5400 C.3   226  ALA226      0.1728
     84  C         49.3850    8.6960   47.1860 C.2   226  ALA226      0.2616
     85  O         49.5140    7.9270   46.2470 O.2   226  ALA226     -0.2715
     86  CB        49.3340    7.1440   49.1090 C.3   226  ALA226      0.0334
     87  N         48.7040    9.8280   47.0810 N.am  227  LEU227     -0.1963
     88  CA        48.1810   10.2670   45.7870 C.3   227  LEU227      0.1728
     89  C         49.3260   10.5160   44.8130 C.2   227  LEU227      0.2616
     90  O         49.3140    9.9850   43.7100 O.2   227  LEU227     -0.2715
     91  CB        47.3190   11.5290   45.9210 C.3   227  LEU227      0.0311
     92  CG        45.9160   11.3380   46.4970 C.3   227  LEU227      0.0022
     93  CD1       45.1870   12.6700   46.5290 C.3   227  LEU227      0.0001
     94  CD2       45.1310   10.3230   45.6920 C.3   227  LEU227      0.0001
     95  N         50.3250   11.2930   45.2200 N.am  228  LYS228     -0.1977
     96  CA        51.4330   11.6120   44.3230 C.3   228  LYS228      0.1596
     97  C         52.1400   10.3390   43.8810 C.2   228  LYS228      0.2287
     98  O         52.4390   10.1700   42.7030 O.2   228  LYS228     -0.2864
     99  CB        52.4290   12.5880   44.9640 C.3   228  LYS228      0.0298
    100  CG        53.4200   13.1750   43.9530 C.3   228  LYS228      0.0038
    101  CD        54.3030   14.2550   44.5560 C.3   228  LYS228      0.0206
    102  CE        55.5850   14.4350   43.7470 C.3   228  LYS228      0.1093
    103  NZ        56.5190   15.4050   44.3900 N.3   228  LYS228     -0.1314
    104  N         50.8330    7.5440   43.3870 N.3   230  LEU230     -0.1231
    105  CA        49.9620    6.9790   42.3520 C.3   230  LEU230      0.1693
    106  C         50.0070    7.8070   41.0840 C.2   230  LEU230      0.2592
    107  O         50.0400    7.2690   39.9950 O.2   230  LEU230     -0.2718
    108  CB        48.5120    6.8680   42.8350 C.3   230  LEU230      0.0284
    109  CG        48.2110    5.9240   44.0000 C.3   230  LEU230      0.0019
    110  CD1       46.7120    5.9440   44.2640 C.3   230  LEU230      0.0001
    111  CD2       48.7110    4.4940   43.7720 C.3   230  LEU230      0.0001
    112  N         50.0000    9.1190   41.2260 N.am  231  GLY231     -0.1957
    113  CA        50.1000   10.0050   40.0720 C.3   231  GLY231      0.1869
    114  C         51.3920    9.8140   39.2860 C.2   231  GLY231      0.2309
    115  O         51.4160    9.9980   38.0740 O.2   231  GLY231     -0.2863
    116  N         51.0540    6.3680   37.3400 N.3   234  MET234     -0.1245
    117  CA        50.2430    6.5710   36.1380 C.3   234  MET234      0.1570
    118  C         51.0350    7.2960   35.0780 C.2   234  MET234      0.2261
    119  O         51.1070    6.8430   33.9420 O.2   234  MET234     -0.2867
    120  CB        49.0040    7.4110   36.4540 C.3   234  MET234      0.0387
    121  CG        47.9960    6.7510   37.3960 C.3   234  MET234      0.0595
    122  SD        46.7380    7.9110   37.9840 S.3   234  MET234     -0.1393
    123  CE        45.8670    6.8950   39.1730 C.3   234  MET234      0.0692
    124  N         59.3010    5.5830   47.2450 N.3   283  ARG283     -0.1245
    125  CA        58.9210    6.8850   47.7970 C.3   283  ARG283      0.1563
    126  C         58.3120    6.7180   49.1840 C.2   283  ARG283      0.2260
    127  O         58.5900    7.5030   50.0910 O.2   283  ARG283     -0.2867
    128  CB        57.8870    7.5670   46.9120 C.3   283  ARG283      0.0307
    129  CG        58.4480    8.3080   45.7280 C.3   283  ARG283      0.0489
    130  CD        57.3090    8.7580   44.8330 C.3   283  ARG283      0.2205
    131  NE        56.3410    9.5820   45.5580 N.pl3 283  ARG283     -0.0865
    132  CZ        56.4120   10.9090   45.6910 C.cat 283  ARG283      0.5346
    133  NH1       57.4110   11.6070   45.1500 N.pl3 283  ARG283      0.1354
    134  NH2       55.4690   11.5500   46.3710 N.pl3 283  ARG283      0.1354
@<TRIPOS>BOND
     1   119   118    2
     2   118   117    1
     3   117   120    1
     4   117   116    1
     5   120   121    1
     6    17    18    1
     7    21    18    1
     8   121   122    1
     9    18    19    1
    10    19    20    2
    11   122   123    1
    12     5     2    1
    13   115   114    2
    14   114   113    1
    15     2     1    1
    16     2     3    1
    17    36    38   ar
    18    36    34   ar
    19    38    39   ar
    20     3     4    2
    21   107   106    2
    22   113   112    1
    23    33    34    1
    24    33    30    1
    25    22    23    1
    26    34    35   ar
    27    39    40    1
    28    39    37   ar
    29    35    37   ar
    30    29    30    1
    31    29    24   am
    32   106   112   am
    33   106   105    1
    34    30    31    1
    35    28    26    1
    36    23    26    1
    37    23    24    1
    38    26    27    1
    39    31    32    2
    40    24    25    2
    41   105   108    1
    42   105   104    1
    43    98    97    2
    44   108   109    1
    45    52    53    1
    46    52    51    1
    47    53    54    1
    48    90    89    2
    49     6     7    1
    50   102   103    1
    51   102   101    1
    52   111   109    1
    53    97    96    1
    54   100   101    1
    55   100    99    1
    56   109   110    1
    57    10    11    1
    58    10     7    1
    59    50    51    1
    60    50    47    1
    61    96    99    1
    62    96    95    1
    63     8     7    1
    64     8     9    2
    65    11    12    1
    66    89    95   am
    67    89    88    1
    68   130   131    1
    69   130   129    1
    70    41    42    1
    71   133   132    1
    72    46    47    1
    73    46    43   am
    74   131   132    2
    75    47    48    1
    76    45    42    1
    77   132   134    1
    78    94    92    1
    79   129   128    1
    80    88    91    1
    81    88    87    1
    82    91    92    1
    83    12    13    1
    84    42    43    1
    85    85    84    2
    86    48    49    2
    87    43    44    2
    88    13    14    2
    89    92    93    1
    90   128   125    1
    91    87    84   am
    92    84    83    1
    93   124   125    1
    94    14    16    1
    95    14    15    1
    96   125   126    1
    97    83    86    1
    98    83    82    1
    99    61    59    1
   100    66    65    2
   101   126   127    2
   102    71    69   ar
   103    71    72   ar
   104    82    75   am
   105    69    68   ar
   106    72    70   ar
   107    64    65    1
   108    64    67    1
   109    64    63    1
   110    65    73   am
   111    55    56    1
   112    68    70   ar
   113    68    67    1
   114    59    56    1
   115    59    60    1
   116    75    76    2
   117    75    74    1
   118    57    56    1
   119    57    58    2
   120    62    60    1
   121    73    74    1
   122    74    77    1
   123    77    78    1
   124    78    79    1
   125    79    80    1
   126    80    81    1
