@<TRIPOS>MOLECULE
tmp/2ycxB02.pdb
 87 85 0 0 0
SMALL
GASTEIGER

@<TRIPOS>ATOM
      1  N         39.2500    6.7980   -8.9090 N.3   146  ASP146     -0.1225
      2  CA        39.3820    8.0490   -9.6680 C.3   146  ASP146      0.1805
      3  C         40.1490    9.1250   -8.9070 C.2   146  ASP146      0.2598
      4  O         39.9970    9.2790   -7.6890 O.2   146  ASP146     -0.2718
      5  CB        38.0030    8.5920  -10.0930 C.3   146  ASP146      0.1424
      6  CG        38.0780    9.5690  -11.2930 C.2   146  ASP146      0.3668
      7  OD1       39.1190    9.5920  -12.0080 O.co2 146  ASP146     -0.2456
      8  OD2       37.0810   10.3070  -11.5270 O.co2 146  ASP146     -0.2456
      9  N         40.9450    9.8790   -9.6660 N.am  147  GLU147     -0.1965
     10  CA        41.8600   10.9090   -9.1540 C.3   147  GLU147      0.1733
     11  C         41.1670   12.1390   -8.5430 C.2   147  GLU147      0.2616
     12  O         41.5190   12.5580   -7.4430 O.2   147  GLU147     -0.2715
     13  CB        42.8240   11.3320  -10.2750 C.3   147  GLU147      0.0429
     14  CG        44.2540   11.5640   -9.8170 C.3   147  GLU147      0.1163
     15  CD        44.8790   10.3400   -9.1540 C.2   147  GLU147      0.3649
     16  OE1       44.2580    9.2590   -9.1660 O.co2 147  GLU147     -0.2457
     17  OE2       46.0000   10.4590   -8.6160 O.co2 147  GLU147     -0.2457
     18  N         40.2060   12.7030   -9.2830 N.am  148  ASP148     -0.1971
     19  CA        39.3210   13.8080   -8.8630 C.3   148  ASP148      0.1709
     20  C         38.9380   13.8010   -7.3690 C.2   148  ASP148      0.2293
     21  O         38.7090   12.7270   -6.7930 O.2   148  ASP148     -0.2864
     22  CB        38.0540   13.7940   -9.7430 C.3   148  ASP148      0.1436
     23  CG        36.9470   14.7100   -9.2270 C.2   148  ASP148      0.3671
     24  OD1       36.3170   14.3860   -8.1970 O.co2 148  ASP148     -0.2456
     25  OD2       36.6990   15.7570   -9.8590 O.co2 148  ASP148     -0.2456
     26  N         37.3950    5.7250  -12.5580 N.3   166  ASN166     -0.1225
     27  CA        38.1490    6.4380  -13.5710 C.3   166  ASN166      0.1785
     28  C         37.7090    5.9530  -14.9380 C.2   166  ASN166      0.2597
     29  O         37.1220    4.8800  -15.0460 O.2   166  ASN166     -0.2718
     30  CB        39.6500    6.2760  -13.3530 C.3   166  ASN166      0.1169
     31  CG        40.1180    4.8520  -13.5190 C.2   166  ASN166      0.2627
     32  OD1       40.2920    4.3840  -14.6390 O.2   166  ASN166     -0.2716
     33  ND2       40.3610    4.1630  -12.4060 N.am  166  ASN166     -0.0877
     34  N         37.9820    6.7480  -15.9710 N.am  167  ARG167     -0.1966
     35  CA        37.4040    6.5340  -17.3110 C.3   167  ARG167      0.1729
     36  C         38.0020    5.3620  -18.1170 C.2   167  ARG167      0.2616
     37  O         37.2760    4.6680  -18.8600 O.2   167  ARG167     -0.2715
     38  CB        37.4120    7.8380  -18.1130 C.3   167  ARG167      0.0348
     39  CG        36.3730    8.8280  -17.6160 C.3   167  ARG167      0.0492
     40  CD        36.6010   10.2550  -18.1290 C.3   167  ARG167      0.2205
     41  NE        35.5990   11.1740  -17.5710 N.pl3 167  ARG167     -0.0865
     42  CZ        35.3090   12.3850  -18.0520 C.cat 167  ARG167      0.5346
     43  NH1       35.9490   12.8600  -19.1240 N.pl3 167  ARG167      0.1354
     44  NH2       34.3620   13.1190  -17.4640 N.pl3 167  ARG167      0.1354
     45  N         39.3070    5.1390  -17.9670 N.am  168  ALA168     -0.1977
     46  CA        39.9170    3.9410  -18.5310 C.3   168  ALA168      0.1597
     47  C         39.2660    2.6580  -17.9630 C.2   168  ALA168      0.2287
     48  O         39.0270    1.7050  -18.7110 O.2   168  ALA168     -0.2864
     49  CB        41.4220    3.9430  -18.3280 C.3   168  ALA168      0.0319
     50  N         32.0240   10.4700  -21.8380 N.3   247  PHE247     -0.1227
     51  CA        32.1670   11.5700  -22.7920 C.3   247  PHE247      0.1736
     52  C         31.7570   12.8930  -22.1550 C.2   247  PHE247      0.2595
     53  O         32.3390   13.9400  -22.4420 O.2   247  PHE247     -0.2718
     54  CB        31.2830   11.3190  -24.0220 C.3   247  PHE247      0.0547
     55  CG        31.7930   10.2310  -24.9490 C.ar  247  PHE247     -0.0202
     56  CD1       32.2770    9.0110  -24.4460 C.ar  247  PHE247     -0.0042
     57  CD2       31.7560   10.4160  -26.3390 C.ar  247  PHE247     -0.0042
     58  CE1       32.7380    8.0030  -25.3080 C.ar  247  PHE247     -0.0003
     59  CE2       32.2130    9.4140  -27.2170 C.ar  247  PHE247     -0.0003
     60  CZ        32.7030    8.2050  -26.7000 C.ar  247  PHE247     -0.0000
     61  N         30.7460   12.8300  -21.2930 N.am  248  ASN248     -0.1960
     62  CA        30.1970   14.0050  -20.6500 C.3   248  ASN248      0.1819
     63  C         29.2830   13.6180  -19.5050 C.2   248  ASN248      0.2621
     64  O         28.1780   13.1090  -19.7420 O.2   248  ASN248     -0.2715
     65  CB        29.4070   14.8180  -21.6680 C.3   248  ASN248      0.1195
     66  CG        28.9300   16.1460  -21.1110 C.2   248  ASN248      0.2630
     67  OD1       29.1280   16.4580  -19.9310 O.2   248  ASN248     -0.2716
     68  ND2       28.2980   16.9440  -21.9670 N.am  248  ASN248     -0.0877
     69  N         29.7290   13.8850  -18.2750 N.am  249  ARG249     -0.1963
     70  CA        28.9750   13.5000  -17.0680 C.3   249  ARG249      0.1729
     71  C         27.6220   14.2280  -16.9310 C.2   249  ARG249      0.2616
     72  O         26.7310   13.7560  -16.2110 O.2   249  ARG249     -0.2715
     73  CB        29.8310   13.6580  -15.7980 C.3   249  ARG249      0.0348
     74  CG        31.2830   13.2010  -15.9720 C.3   249  ARG249      0.0492
     75  CD        31.7940   12.3750  -14.7880 C.3   249  ARG249      0.2205
     76  NE        32.8340   11.4220  -15.1980 N.pl3 249  ARG249     -0.0865
     77  CZ        33.2260   10.3610  -14.4910 C.cat 249  ARG249      0.5346
     78  NH1       32.6810   10.0780  -13.3090 N.pl3 249  ARG249      0.1354
     79  NH2       34.1790    9.5740  -14.9680 N.pl3 249  ARG249      0.1354
     80  N         27.4770   15.3500  -17.6470 N.am  250  ASP250     -0.1971
     81  CA        26.2920   16.2260  -17.5690 C.3   250  ASP250      0.1709
     82  C         25.2680   15.9050  -18.6460 C.2   250  ASP250      0.2293
     83  O         24.3290   16.6710  -18.8830 O.2   250  ASP250     -0.2864
     84  CB        26.6910   17.7160  -17.6770 C.3   250  ASP250      0.1436
     85  CG        27.4050   18.2390  -16.4270 C.2   250  ASP250      0.3671
     86  OD1       27.0020   17.8800  -15.2880 O.co2 250  ASP250     -0.2456
     87  OD2       28.3710   19.0250  -16.5890 O.co2 250  ASP250     -0.2456
@<TRIPOS>BOND
     1    59    60   ar
     2    59    57   ar
     3    60    58   ar
     4    57    55   ar
     5    58    56   ar
     6    55    56   ar
     7    55    54    1
     8    54    51    1
     9    51    52    1
    10    51    50    1
    11    53    52    2
    12    52    61   am
    13    68    66   am
    14    65    66    1
    15    65    62    1
    16    61    62    1
    17    66    67    2
    18    62    63    1
    19    64    63    2
    20    63    69   am
    21    43    42    1
    22    83    82    2
    23    37    36    2
    24    48    47    2
    25    82    81    1
    26    46    49    1
    27    46    45    1
    28    46    47    1
    29    69    70    1
    30    40    39    1
    31    40    41    1
    32    36    45   am
    33    36    35    1
    34    38    39    1
    35    38    35    1
    36    42    41    2
    37    42    44    1
    38    84    81    1
    39    84    85    1
    40    80    81    1
    41    80    71   am
    42    35    34    1
    43    70    71    1
    44    70    73    1
    45    71    72    2
    46    87    85   ar
    47    85    86   ar
    48    74    73    1
    49    74    75    1
    50    34    28   am
    51    76    75    1
    52    76    77    2
    53    29    28    2
    54    79    77    1
    55    28    27    1
    56    32    31    2
    57    77    78    1
    58    27    30    1
    59    27    26    1
    60    31    30    1
    61    31    33   am
    62     7     6   ar
    63     8     6   ar
    64     6     5    1
    65    13    14    1
    66    13    10    1
    67     5     2    1
    68    25    23   ar
    69    14    15    1
    70    22    23    1
    71    22    19    1
    72     2     1    1
    73     2     3    1
    74     9    10    1
    75     9     3   am
    76    18    19    1
    77    18    11   am
    78    23    24   ar
    79    16    15   ar
    80    10    11    1
    81    15    17   ar
    82     3     4    2
    83    19    20    1
    84    11    12    2
    85    20    21    2
