@<TRIPOS>MOLECULE
tmp/2ycyB03.pdb
 72 67 0 0 0
SMALL
GASTEIGER

@<TRIPOS>ATOM
      1  N         48.7550   23.3550  -23.0180 N.3    43  THR43      -0.1203
      2  CA        49.5570   23.4190  -21.7940 C.3    43  THR43       0.1994
      3  C         49.0620   22.4210  -20.7540 C.2    43  THR43       0.2618
      4  O         49.8480   21.7680  -20.0650 O.2    43  THR43      -0.2717
      5  CB        49.5390   24.8400  -21.2010 C.3    43  THR43       0.1784
      6  OG1       50.0460   25.7520  -22.1880 O.3    43  THR43      -0.2211
      7  CG2       50.3710   24.9340  -19.8910 C.3    43  THR43       0.0376
      8  N         47.7480   22.3060  -20.6510 N.am   44  SER44      -0.1951
      9  CA        47.1560   21.3370  -19.7470 C.3    44  SER44       0.1924
     10  C         47.6260   19.9290  -20.1300 C.2    44  SER44       0.2314
     11  O         48.0360   19.1160  -19.2750 O.2    44  SER44      -0.2863
     12  CB        45.6250   21.4420  -19.7920 C.3    44  SER44       0.2116
     13  OG        44.9900   20.3850  -19.0780 O.3    44  SER44      -0.2180
     14  N         51.1640   19.3870  -19.1530 N.3    47  CYS47      -0.1235
     15  CA        51.3400   19.1750  -17.7140 C.3    47  CYS47       0.1677
     16  C         51.0100   17.7500  -17.3160 C.2    47  CYS47       0.2270
     17  O         51.6040   17.2000  -16.3940 O.2    47  CYS47      -0.2867
     18  CB        50.4600   20.1190  -16.9350 C.3    47  CYS47       0.0956
     19  SG        50.9530   21.8380  -17.0900 S.3    47  CYS47      -0.0801
     20  N         53.8770   15.1740  -15.8770 N.3    51  VAL51      -0.1245
     21  CA        53.7210   14.3510  -14.6950 C.3    51  VAL51       0.1561
     22  C         54.0500   12.8950  -15.0380 C.2    51  VAL51       0.2260
     23  O         54.6990   12.2010  -14.2390 O.2    51  VAL51      -0.2867
     24  CB        52.2640   14.4470  -14.1100 C.3    51  VAL51       0.0252
     25  CG1       52.1080   13.5690  -12.8810 C.3    51  VAL51       0.0019
     26  CG2       51.8930   15.8830  -13.7510 C.3    51  VAL51       0.0019
     27  N         44.8530    9.0510  -13.3090 N.3    85  LEU85      -0.1245
     28  CA        44.4240   10.4480  -13.3330 C.3    85  LEU85       0.1561
     29  C         44.8850   11.1520  -14.6210 C.2    85  LEU85       0.2260
     30  O         44.1560   11.9750  -15.1900 O.2    85  LEU85      -0.2867
     31  CB        44.9320   11.1810  -12.0700 C.3    85  LEU85       0.0270
     32  CG        44.8320   12.7060  -12.0960 C.3    85  LEU85       0.0019
     33  CD1       43.4390   13.1120  -12.2970 C.3    85  LEU85       0.0001
     34  CD2       45.3290   13.3090  -10.8530 C.3    85  LEU85       0.0001
     35  N         39.7110   24.3410  -17.5160 N.3   124  ILE124     -0.1231
     36  CA        40.8120   23.4210  -17.3130 C.3   124  ILE124      0.1692
     37  C         40.8170   22.8970  -15.8980 C.2   124  ILE124      0.2592
     38  O         40.9000   21.6950  -15.7040 O.2   124  ILE124     -0.2718
     39  CB        42.1400   24.0740  -17.6140 C.3   124  ILE124      0.0266
     40  CG1       42.2240   24.3550  -19.1320 C.3   124  ILE124      0.0019
     41  CG2       43.2670   23.1700  -17.1320 C.3   124  ILE124      0.0020
     42  CD1       43.4980   25.0710  -19.6090 C.3   124  ILE124      0.0001
     43  N         40.6880   23.7860  -14.9120 N.am  125  CYS125     -0.1970
     44  CA        40.6100   23.3750  -13.4910 C.3   125  CYS125      0.1712
     45  C         39.4610   22.4190  -13.2410 C.2   125  CYS125      0.2296
     46  O         39.5000   21.6640  -12.2850 O.2   125  CYS125     -0.2864
     47  CB        40.4260   24.5740  -12.5800 C.3   125  CYS125      0.0983
     48  SG        41.8740   25.5480  -12.3960 S.3   125  CYS125     -0.0798
     49  N         40.4210   18.7420  -14.5570 N.3   128  TRP128     -0.1227
     50  CA        41.2650   18.1050  -13.5430 C.3   128  TRP128      0.1737
     51  C         40.4170   17.7230  -12.3070 C.2   128  TRP128      0.2595
     52  O         40.7040   16.7600  -11.5840 O.2   128  TRP128     -0.2718
     53  CB        42.4420   19.0180  -13.1490 C.3   128  TRP128      0.0564
     54  CG        43.5500   19.1160  -14.1770 C.ar  128  TRP128      0.0003
     55  CD1       43.7900   20.1600  -15.0140 C.ar  128  TRP128      0.0946
     56  CD2       44.5490   18.1390  -14.4660 C.ar  128  TRP128      0.0152
     57  NE1       44.8660   19.8920  -15.8170 N.ar  128  TRP128     -0.2442
     58  CE2       45.3500   18.6520  -15.5000 C.ar  128  TRP128      0.0810
     59  CE3       44.8440   16.8740  -13.9550 C.ar  128  TRP128      0.0012
     60  CZ2       46.4360   17.9520  -16.0240 C.ar  128  TRP128      0.0191
     61  CZ3       45.9290   16.1780  -14.4810 C.ar  128  TRP128      0.0001
     62  CH2       46.7050   16.7170  -15.5010 C.ar  128  TRP128      0.0015
     63  N         39.3500   18.4750  -12.0840 N.am  129  ALA129     -0.1980
     64  CA        38.4580   18.2150  -10.9660 C.3   129  ALA129      0.1597
     65  C         37.6250   16.9760  -11.2410 C.2   129  ALA129      0.2287
     66  O         37.4430   16.1140  -10.3770 O.2   129  ALA129     -0.2864
     67  CB        37.5550   19.3950  -10.7490 C.3   129  ALA129      0.0319
     68  N         39.9610   13.8150  -11.1700 N.3   132  ALA132     -0.1245
     69  CA        40.2520   13.4780   -9.7840 C.3   132  ALA132      0.1562
     70  C         39.0770   12.6910   -9.1590 C.2   132  ALA132      0.2260
     71  O         39.2610   11.7200   -8.4180 O.2   132  ALA132     -0.2867
     72  CB        40.5400   14.7760   -8.9800 C.3   132  ALA132      0.0290
@<TRIPOS>BOND
     1     1     2    1
     2     6     5    1
     3     2     5    1
     4     2     3    1
     5     5     7    1
     6     3     8   am
     7     3     4    2
     8     8     9    1
     9    10     9    1
    10    10    11    2
    11    12     9    1
    12    12    13    1
    13    42    40    1
    14    14    15    1
    15    40    39    1
    16    15    16    1
    17    15    18    1
    18    39    36    1
    19    39    41    1
    20    35    36    1
    21    16    17    2
    22    36    37    1
    23    19    18    1
    24    60    62   ar
    25    60    58   ar
    26    37    38    2
    27    37    43   am
    28    20    21    1
    29    57    58   ar
    30    57    55   ar
    31    62    61   ar
    32    58    56   ar
    33    30    29    2
    34    22    21    1
    35    22    23    2
    36    55    54   ar
    37    43    44    1
    38    21    24    1
    39    29    28    1
    40    49    50    1
    41    61    59   ar
    42    56    54   ar
    43    56    59   ar
    44    54    53    1
    45    24    26    1
    46    24    25    1
    47    50    53    1
    48    50    51    1
    49    44    45    1
    50    44    47    1
    51    28    27    1
    52    28    31    1
    53    45    46    2
    54    47    48    1
    55    51    63   am
    56    51    52    2
    57    33    32    1
    58    32    31    1
    59    32    34    1
    60    63    64    1
    61    65    64    1
    62    65    66    2
    63    68    69    1
    64    64    67    1
    65    69    70    1
    66    69    72    1
    67    70    71    2
