@<TRIPOS>MOLECULE
tmp/2ycyB02.pdb
 91 83 0 0 0
SMALL
GASTEIGER

@<TRIPOS>ATOM
      1  N         40.0130   13.7790  -21.7970 N.3    92  GLU92      -0.1245
      2  CA        38.9580   14.7480  -21.5630 C.3    92  GLU92       0.1567
      3  C         39.3420   16.0860  -22.1570 C.2    92  GLU92       0.2260
      4  O         38.5040   16.7610  -22.7390 O.2    92  GLU92      -0.2867
      5  CB        38.6880   14.9080  -20.0790 C.3    92  GLU92       0.0388
      6  CG        38.0510   13.6850  -19.4270 C.3    92  GLU92       0.1160
      7  CD        37.7360   13.8980  -17.9090 C.2    92  GLU92       0.3649
      8  OE1       37.9960   15.0070  -17.3810 O.co2  92  GLU92      -0.2457
      9  OE2       37.2280   12.9590  -17.2330 O.co2  92  GLU92      -0.2457
     10  N         38.8860   16.2090  -25.6830 N.3    95  CYS95      -0.1221
     11  CA        37.4800   16.4830  -25.9700 C.3    95  CYS95       0.1808
     12  C         37.2670   17.9770  -25.9850 C.2    95  CYS95       0.2601
     13  O         36.8030   18.5250  -26.9810 O.2    95  CYS95      -0.2717
     14  CB        36.5420   15.8400  -24.9430 C.3    95  CYS95       0.0970
     15  SG        36.0740   14.1950  -25.3810 S.3    95  CYS95      -0.0800
     16  N         37.6240   18.6340  -24.8850 N.am   96  VAL96      -0.1979
     17  CA        37.4100   20.0750  -24.7460 C.3    96  VAL96       0.1595
     18  C         37.9670   20.7970  -25.9520 C.2    96  VAL96       0.2287
     19  O         37.3490   21.7130  -26.4590 O.2    96  VAL96      -0.2864
     20  CB        38.0430   20.6550  -23.4530 C.3    96  VAL96       0.0276
     21  CG1       38.0160   22.1850  -23.4650 C.3    96  VAL96       0.0022
     22  CG2       37.3190   20.1310  -22.2230 C.3    96  VAL96       0.0022
     23  N         35.6830   20.1500  -29.0140 N.3    99  ILE99      -0.1245
     24  CA        34.4490   20.9480  -28.8770 C.3    99  ILE99       0.1561
     25  C         34.7250   22.4430  -29.0580 C.2    99  ILE99       0.2260
     26  O         33.9530   23.1560  -29.6920 O.2    99  ILE99      -0.2867
     27  CB        33.7900   20.7490  -27.4880 C.3    99  ILE99       0.0252
     28  CG1       33.3680   19.2870  -27.2900 C.3    99  ILE99       0.0019
     29  CG2       32.6210   21.6650  -27.3350 C.3    99  ILE99       0.0019
     30  CD1       32.6070   19.0200  -25.9830 C.3    99  ILE99       0.0001
     31  N         38.2530   20.1270  -15.6440 N.3   127  VAL127     -0.1245
     32  CA        38.6440   18.8250  -16.2270 C.3   127  VAL127      0.1561
     33  C         39.6020   18.0330  -15.3330 C.2   127  VAL127      0.2260
     34  O         39.5930   16.8040  -15.3530 O.2   127  VAL127     -0.2867
     35  CB        39.2590   18.9990  -17.6190 C.3   127  VAL127      0.0252
     36  CG1       39.9500   17.7220  -18.0960 C.3   127  VAL127      0.0019
     37  CG2       38.1550   19.3970  -18.5850 C.3   127  VAL127      0.0019
     38  N         37.1110   16.9020  -12.4580 N.3   130  ILE130     -0.1245
     39  CA        36.3030   15.7660  -12.8890 C.3   130  ILE130      0.1561
     40  C         37.0920   14.4610  -12.8890 C.2   130  ILE130      0.2260
     41  O         36.5730   13.4070  -12.5160 O.2   130  ILE130     -0.2867
     42  CB        35.7570   15.9890  -14.3140 C.3   130  ILE130      0.0252
     43  CG1       34.7810   17.1700  -14.3410 C.3   130  ILE130      0.0019
     44  CG2       35.0790   14.7370  -14.8140 C.3   130  ILE130      0.0019
     45  CD1       34.0820   17.3560  -15.6980 C.3   130  ILE130      0.0001
     46  N         36.4380   10.9140  -10.7630 N.3   134  VAL134     -0.1245
     47  CA        36.1640    9.6120  -11.3860 C.3   134  VAL134      0.1561
     48  C         37.3550    8.6460  -11.4180 C.2   134  VAL134      0.2260
     49  O         37.1970    7.4730  -11.7750 O.2   134  VAL134     -0.2867
     50  CB        35.6880    9.7800  -12.8330 C.3   134  VAL134      0.0252
     51  CG1       34.4990   10.6760  -12.8860 C.3   134  VAL134      0.0019
     52  CG2       36.7870   10.3240  -13.6810 C.3   134  VAL134      0.0019
     53  N         35.0750    2.7320  -19.0280 N.3   175  ILE175     -0.1231
     54  CA        34.0380    3.3740  -19.8310 C.3   175  ILE175      0.1692
     55  C         33.9570    4.8810  -19.5380 C.2   175  ILE175      0.2591
     56  O         33.8860    5.7230  -20.4420 O.2   175  ILE175     -0.2718
     57  CB        32.6910    2.7260  -19.5460 C.3   175  ILE175      0.0266
     58  CG1       32.7180    1.2830  -20.0560 C.3   175  ILE175      0.0019
     59  CG2       31.5560    3.5430  -20.1720 C.3   175  ILE175      0.0020
     60  CD1       31.4950    0.4930  -19.7060 C.3   175  ILE175      0.0001
     61  N         33.9700    5.1920  -18.2480 N.am  176  ILE176     -0.1980
     62  CA        33.9410    6.5630  -17.7690 C.3   176  ILE176      0.1595
     63  C         35.1420    7.3210  -18.2780 C.2   176  ILE176      0.2287
     64  O         34.9900    8.3110  -18.9830 O.2   176  ILE176     -0.2864
     65  CB        33.9790    6.6170  -16.2380 C.3   176  ILE176      0.0276
     66  CG1       32.7520    5.9500  -15.6530 C.3   176  ILE176      0.0022
     67  CG2       34.0690    8.0540  -15.7580 C.3   176  ILE176      0.0022
     68  CD1       32.8040    5.8660  -14.1650 C.3   176  ILE176      0.0001
     69  N         33.9120    6.8160  -23.1010 N.3   180  ILE180     -0.1231
     70  CA        32.9470    7.8990  -23.2410 C.3   180  ILE180      0.1678
     71  C         33.6190    9.1180  -23.8620 C.2   180  ILE180      0.2434
     72  O         33.2270    9.5310  -24.9360 O.2   180  ILE180     -0.2733
     73  CB        32.2410    8.2350  -21.8950 C.3   180  ILE180      0.0265
     74  CG1       31.2890    7.1160  -21.5110 C.3   180  ILE180      0.0019
     75  CG2       31.4560    9.5330  -21.9850 C.3   180  ILE180      0.0020
     76  CD1       30.4810    7.4270  -20.2650 C.3   180  ILE180      0.0001
     77  N         34.6490    9.6750  -23.2010 N.am  181  PRO181     -0.2729
     78  CA        35.2910   10.8290  -23.7860 C.3   181  PRO181      0.1401
     79  C         35.8580   10.5060  -25.1810 C.2   181  PRO181      0.2269
     80  O         35.8860   11.3550  -26.0620 O.2   181  PRO181     -0.2865
     81  CB        36.4200   11.1430  -22.7890 C.3   181  PRO181      0.0296
     82  CG        36.0130   10.5530  -21.5240 C.3   181  PRO181      0.0237
     83  CD        35.2580    9.3230  -21.9040 C.3   181  PRO181      0.0939
     84  N         32.9250   10.6140  -27.6540 N.3   184  ILE184     -0.1245
     85  CA        32.5740   12.0210  -27.7370 C.3   184  ILE184      0.1561
     86  C         33.5830   12.7760  -28.5920 C.2   184  ILE184      0.2260
     87  O         33.2000   13.4510  -29.5290 O.2   184  ILE184     -0.2867
     88  CB        32.4860   12.6730  -26.3480 C.3   184  ILE184      0.0252
     89  CG1       31.2990   12.0760  -25.5700 C.3   184  ILE184      0.0019
     90  CG2       32.3280   14.1630  -26.4950 C.3   184  ILE184      0.0019
     91  CD1       31.0560   12.6500  -24.1570 C.3   184  ILE184      0.0001
@<TRIPOS>BOND
     1    26    25    2
     2    87    86    2
     3    25    24    1
     4    23    24    1
     5    24    27    1
     6    86    85    1
     7    85    84    1
     8    85    88    1
     9    27    29    1
    10    27    28    1
    11    28    30    1
    12    13    12    2
    13    90    88    1
    14    19    18    2
    15    88    89    1
    16    80    79    2
    17    12    11    1
    18    12    16   am
    19    11    10    1
    20    11    14    1
    21    18    17    1
    22    89    91    1
    23    15    14    1
    24    79    78    1
    25    72    71    2
    26    16    17    1
    27    17    20    1
    28    71    70    1
    29    71    77   am
    30    78    77    1
    31    78    81    1
    32    21    20    1
    33    20    22    1
    34    70    69    1
    35    70    73    1
    36    77    83    1
    37    81    82    1
    38     4     3    2
    39     3     2    1
    40    75    73    1
    41    83    82    1
    42    73    74    1
    43     1     2    1
    44     2     5    1
    45    74    76    1
    46    56    55    2
    47    59    57    1
    48     5     6    1
    49    58    60    1
    50    58    57    1
    51    54    57    1
    52    54    55    1
    53    54    53    1
    54    55    61   am
    55     6     7    1
    56    64    63    2
    57    37    35    1
    58    63    62    1
    59    61    62    1
    60    36    35    1
    61     7     8   ar
    62     7     9   ar
    63    62    65    1
    64    35    32    1
    65    65    67    1
    66    65    66    1
    67    32    31    1
    68    32    33    1
    69    45    43    1
    70    66    68    1
    71    34    33    2
    72    44    42    1
    73    43    42    1
    74    42    39    1
    75    52    50    1
    76    39    40    1
    77    39    38    1
    78    40    41    2
    79    51    50    1
    80    50    47    1
    81    49    48    2
    82    48    47    1
    83    47    46    1
