@<TRIPOS>MOLECULE
tmp/2yd0A00.pdb
 110 109 0 0 0
SMALL
GASTEIGER

@<TRIPOS>ATOM
      1  N         14.8570   98.0670   14.5590 N.3    23  HIS23      -0.1226
      2  CA        16.2250   98.5500   14.4860 C.3    23  HIS23       0.1752
      3  C         16.8240   98.3490   15.8730 C.2    23  HIS23       0.2596
      4  O         16.3700   98.9680   16.8470 O.2    23  HIS23      -0.2718
      5  CB        16.2060   99.9990   14.0760 C.3    23  HIS23       0.0759
      6  CG        17.5350  100.6970   14.1310 C.ar   23  HIS23       0.0818
      7  ND1       17.6630  102.0410   13.8480 N.ar   23  HIS23      -0.2268
      8  CD2       18.7800  100.2620   14.4440 C.ar   23  HIS23       0.1154
      9  CE1       18.9240  102.4080   14.0000 C.ar   23  HIS23       0.1986
     10  NE2       19.6260  101.3440   14.3500 N.ar   23  HIS23      -0.2212
     11  N         17.7940   97.4250   15.9630 N.am   24  ALA24      -0.1966
     12  CA        18.4140   97.0350   17.2370 C.3    24  ALA24       0.1728
     13  C         19.8290   97.5270   17.2840 C.2    24  ALA24       0.2616
     14  O         20.5350   97.5740   16.2450 O.2    24  ALA24      -0.2715
     15  CB        18.3770   95.5040   17.4460 C.3    24  ALA24       0.0334
     16  N         20.2290   97.9340   18.4890 N.am   25  ASN25      -0.1958
     17  CA        21.5880   98.3100   18.7400 C.3    25  ASN25       0.1819
     18  C         22.2040   97.3510   19.7460 C.2    25  ASN25       0.2621
     19  O         21.8550   97.3160   20.9480 O.2    25  ASN25      -0.2715
     20  CB        21.7340   99.7610   19.1850 C.3    25  ASN25       0.1195
     21  CG        23.1450  100.2260   19.0390 C.2    25  ASN25       0.2630
     22  OD1       24.0630   99.6930   19.6780 O.2    25  ASN25      -0.2716
     23  ND2       23.3440  101.1820   18.1630 N.am   25  ASN25      -0.0877
     24  N         23.1370   96.5680   19.2210 N.am   26  LEU26      -0.1963
     25  CA        23.7540   95.5080   19.9590 C.3    26  LEU26       0.1728
     26  C         24.8670   96.0350   20.8400 C.2    26  LEU26       0.2617
     27  O         25.3900   95.2700   21.6390 O.2    26  LEU26      -0.2715
     28  CB        24.2600   94.4320   19.0070 C.3    26  LEU26       0.0311
     29  CG        23.2750   93.2740   18.7660 C.3    26  LEU26       0.0022
     30  CD1       21.8950   93.7600   18.3930 C.3    26  LEU26       0.0001
     31  CD2       23.7890   92.3510   17.6910 C.3    26  LEU26       0.0001
     32  N         25.2170   97.3220   20.7280 N.am   27  THR27      -0.1937
     33  CA        26.2280   97.9110   21.6010 C.3    27  THR27       0.2028
     34  C         25.5770   98.6610   22.7630 C.2    27  THR27       0.2642
     35  O         26.1000   98.6680   23.8550 O.2    27  THR27      -0.2714
     36  CB        27.1590   98.8620   20.8140 C.3    27  THR27       0.1808
     37  OG1       27.8300   98.1140   19.8050 O.3    27  THR27      -0.2208
     38  CG2       28.2100   99.5190   21.7080 C.3    27  THR27       0.0379
     39  N         24.4420   99.3080   22.5270 N.am   28  THR28      -0.1950
     40  CA        23.7290  100.0280   23.6030 C.3    28  THR28       0.1897
     41  C         22.5760   99.1970   24.1530 C.2    28  THR28       0.2313
     42  O         21.9430   99.6050   25.0740 O.2    28  THR28      -0.2863
     43  CB        23.1800  101.3990   23.1110 C.3    28  THR28       0.1794
     44  OG1       22.0840  101.2100   22.1830 O.3    28  THR28      -0.2208
     45  CG2       24.2900  102.1780   22.4510 C.3    28  THR28       0.0378
     46  N         14.5090  100.1970   18.5380 N.3    32  TRP32      -0.1241
     47  CA        13.4170  101.0370   18.1020 C.3    32  TRP32       0.1605
     48  C         12.5950  100.2770   17.0850 C.2    32  TRP32       0.2264
     49  O         13.1350   99.5600   16.2390 O.2    32  TRP32      -0.2867
     50  CB        13.9570  102.3100   17.4720 C.3    32  TRP32       0.0550
     51  CG        14.7770  103.0770   18.4110 C.ar   32  TRP32       0.0003
     52  CD1       14.3550  104.0840   19.2320 C.ar   32  TRP32       0.0946
     53  CD2       16.1680  102.8770   18.6940 C.ar   32  TRP32       0.0152
     54  NE1       15.4050  104.5460   19.9920 N.ar   32  TRP32      -0.2442
     55  CE2       16.5310  103.8210   19.6860 C.ar   32  TRP32       0.0810
     56  CE3       17.1550  102.0060   18.1900 C.ar   32  TRP32       0.0012
     57  CZ2       17.8490  103.9110   20.1960 C.ar   32  TRP32       0.0191
     58  CZ3       18.4610  102.0960   18.6900 C.ar   32  TRP32       0.0001
     59  CH2       18.7950  103.0450   19.6810 C.ar   32  TRP32       0.0015
     60  N         20.3510   96.9600   10.6460 N.3   160  ARG160     -0.1231
     61  CA        21.5000   96.4370   11.3370 C.3   160  ARG160      0.1694
     62  C         22.7930   96.9980   10.7550 C.2   160  ARG160      0.2591
     63  O         22.7700   97.6740    9.7370 O.2   160  ARG160     -0.2718
     64  CB        21.5050   94.9290   11.1590 C.3   160  ARG160      0.0321
     65  CG        21.3790   94.5140    9.6980 C.3   160  ARG160      0.0489
     66  CD        22.3030   93.4220    9.2710 C.3   160  ARG160      0.2205
     67  NE        22.0540   93.0830    7.8740 N.pl3 160  ARG160     -0.0865
     68  CZ        22.9200   93.2060    6.8660 C.cat 160  ARG160      0.5346
     69  NH1       24.1790   93.6260    7.0330 N.pl3 160  ARG160      0.1354
     70  NH2       22.5300   92.8630    5.6580 N.pl3 160  ARG160      0.1354
     71  N         23.9260   96.6730   11.3710 N.am  161  GLU161     -0.1979
     72  CA        25.2320   97.1360   10.8810 C.3   161  GLU161      0.1602
     73  C         25.7780   96.1210    9.8980 C.2   161  GLU161      0.2287
     74  O         25.3550   94.9830    9.9010 O.2   161  GLU161     -0.2864
     75  CB        26.2310   97.2540   12.0100 C.3   161  GLU161      0.0415
     76  CG        25.6650   97.7460   13.3050 C.3   161  GLU161      0.1163
     77  CD        26.7390   98.0940   14.2980 C.2   161  GLU161      0.3649
     78  OE1       27.9170   98.0780   13.8810 O.co2 161  GLU161     -0.2457
     79  OE2       26.4060   98.3990   15.4720 O.co2 161  GLU161     -0.2457
     80  N         26.9710   92.5390   10.8290 N.3   164  HIS164     -0.1241
     81  CA        26.0090   91.5740   11.2810 C.3   164  HIS164      0.1621
     82  C         25.2230   90.9710   10.1310 C.2   164  HIS164      0.2264
     83  O         25.1800   91.4920    9.0230 O.2   164  HIS164     -0.2867
     84  CB        25.0260   92.1940   12.2580 C.3   164  HIS164      0.0745
     85  CG        25.6280   92.5800   13.5750 C.ar  164  HIS164      0.0817
     86  ND1       25.4000   93.8070   14.1680 N.ar  164  HIS164     -0.2268
     87  CD2       26.4290   91.8940   14.4220 C.ar  164  HIS164      0.1154
     88  CE1       26.0560   93.8640   15.3120 C.ar  164  HIS164      0.1986
     89  NE2       26.6940   92.7210   15.4850 N.ar  164  HIS164     -0.2212
     90  N         24.8520  105.6200    6.1950 N.3   180  GLU180     -0.1231
     91  CA        26.2190  105.2260    6.5010 C.3   180  GLU180      0.1699
     92  C         26.1560  104.3070    7.7380 C.2   180  GLU180      0.2593
     93  O         25.6510  104.6970    8.8010 O.2   180  GLU180     -0.2718
     94  CB        27.0830  106.4850    6.7820 C.3   180  GLU180      0.0402
     95  CG        28.3870  106.6620    5.9550 C.3   180  GLU180      0.1161
     96  CD        29.3840  105.4940    6.1220 C.2   180  GLU180      0.3649
     97  OE1       29.0220  104.4560    6.7260 O.co2 180  GLU180     -0.2457
     98  OE2       30.5350  105.6070    5.6390 O.co2 180  GLU180     -0.2457
     99  N         26.6320  103.0760    7.5660 N.am  181  GLY181     -0.1942
    100  CA        26.7650  102.1060    8.6510 C.3   181  GLY181      0.2014
    101  C         25.4870  101.4160    9.0330 C.2   181  GLY181      0.2638
    102  O         25.3940  100.8490   10.1360 O.2   181  GLY181     -0.2714
    103  N         24.4920  101.4620    8.1470 N.am  182  LEU182     -0.1977
    104  CA        23.1660  100.9260    8.4660 C.3   182  LEU182      0.1596
    105  C         22.4920  100.3870    7.2190 C.2   182  LEU182      0.2287
    106  O         22.3270  101.1090    6.2480 O.2   182  LEU182     -0.2864
    107  CB        22.2940  102.0000    9.0810 C.3   182  LEU182      0.0297
    108  CG        21.0830  101.4720    9.8230 C.3   182  LEU182      0.0022
    109  CD1       21.5360  100.5270   10.9290 C.3   182  LEU182      0.0001
    110  CD2       20.2640  102.6010   10.4000 C.3   182  LEU182      0.0001
@<TRIPOS>BOND
     1    98    96   ar
     2    70    68    1
     3    95    96    1
     4    95    94    1
     5    96    97   ar
     6    90    91    1
     7   106   105    2
     8    91    94    1
     9    91    92    1
    10    68    69    1
    11    68    67    2
    12   105   104    1
    13    99    92   am
    14    99   100    1
    15    92    93    2
    16    67    66    1
    17   103   104    1
    18   103   101   am
    19   104   107    1
    20   100   101    1
    21    83    82    2
    22   101   102    2
    23   107   108    1
    24    66    65    1
    25    65    64    1
    26    63    62    2
    27   108   110    1
    28   108   109    1
    29    73    74    2
    30    73    72    1
    31    82    81    1
    32    60    61    1
    33    62    61    1
    34    62    71   am
    35    80    81    1
    36    72    71    1
    37    72    75    1
    38    64    61    1
    39    81    84    1
    40    75    76    1
    41    84    85    1
    42    76    77    1
    43    85    86   ar
    44    85    87   ar
    45     7     9   ar
    46     7     6   ar
    47    78    77   ar
    48     9    10   ar
    49     5     6    1
    50     5     2    1
    51     6     8   ar
    52    86    88   ar
    53    77    79   ar
    54    10     8   ar
    55    87    89   ar
    56     2     1    1
    57     2     3    1
    58    88    89   ar
    59     3    11   am
    60     3     4    2
    61    11    12    1
    62    49    48    2
    63    14    13    2
    64    48    47    1
    65    12    13    1
    66    12    15    1
    67    13    16   am
    68    50    47    1
    69    50    51    1
    70    31    29    1
    71    47    46    1
    72    23    21   am
    73    56    58   ar
    74    56    53   ar
    75    30    29    1
    76    51    53   ar
    77    51    52   ar
    78    16    17    1
    79    58    59   ar
    80    53    55   ar
    81    17    20    1
    82    17    18    1
    83    29    28    1
    84    28    25    1
    85    21    20    1
    86    21    22    2
    87    24    18   am
    88    24    25    1
    89    52    54   ar
    90    59    57   ar
    91    55    54   ar
    92    55    57   ar
    93    18    19    2
    94    37    36    1
    95    25    26    1
    96    32    26   am
    97    32    33    1
    98    36    33    1
    99    36    38    1
   100    26    27    2
   101    33    34    1
   102    44    43    1
   103    45    43    1
   104    39    34   am
   105    39    40    1
   106    34    35    2
   107    43    40    1
   108    40    41    1
   109    41    42    2
