@<TRIPOS>MOLECULE
tmp/2yd0A03.pdb
 168 160 0 0 0
SMALL
GASTEIGER

@<TRIPOS>ATOM
      1  N         12.2190   84.9710   21.4070 N.3   132  GLN132     -0.1245
      2  CA        11.3830   83.8260   21.8080 C.3   132  GLN132      0.1566
      3  C         10.1020   84.3660   22.3540 C.2   132  GLN132      0.2260
      4  O         10.0960   84.9700   23.4370 O.2   132  GLN132     -0.2867
      5  CB        12.1140   82.9790   22.8600 C.3   132  GLN132      0.0367
      6  CG        11.2860   82.0300   23.7190 C.3   132  GLN132      0.0905
      7  CD        10.6360   80.9670   22.9440 C.2   132  GLN132      0.2608
      8  OE1       11.2550   80.3740   22.0370 O.2   132  GLN132     -0.2717
      9  NE2        9.3720   80.6750   23.2820 N.am  132  GLN132     -0.0878
     10  N          6.7040   82.5370   22.2120 N.3   134  GLU134     -0.1231
     11  CA         5.6710   81.6070   22.7060 C.3   134  GLU134      0.1684
     12  C          5.7030   81.4840   24.2200 C.2   134  GLU134      0.2434
     13  O          6.7370   81.2090   24.7810 O.2   134  GLU134     -0.2733
     14  CB         5.7970   80.2100   22.1060 C.3   134  GLU134      0.0402
     15  CG         4.5440   79.3790   22.3520 C.3   134  GLU134      0.1161
     16  CD         4.5700   77.9930   21.7640 C.2   134  GLU134      0.3649
     17  OE1        5.6420   77.4200   21.5710 O.co2 134  GLU134     -0.2457
     18  OE2        3.4870   77.4500   21.5380 O.co2 134  GLU134     -0.2457
     19  N          4.5650   81.7020   24.8900 N.am  135  PRO135     -0.2729
     20  CA         3.2270   82.0660   24.3960 C.3   135  PRO135      0.1401
     21  C          2.8960   83.5740   24.2370 C.2   135  PRO135      0.2269
     22  O          2.1910   83.9280   23.2910 O.2   135  PRO135     -0.2865
     23  CB         2.3200   81.4520   25.4680 C.3   135  PRO135      0.0296
     24  CG         3.1150   81.5320   26.6890 C.3   135  PRO135      0.0237
     25  CD         4.5080   81.2550   26.2930 C.3   135  PRO135      0.0939
     26  N         14.0490   77.0780   26.9520 N.3   267  SER267     -0.1202
     27  CA        13.5580   75.7340   26.6100 C.3   267  SER267      0.2020
     28  C         14.6150   74.9070   25.9150 C.2   267  SER267      0.2619
     29  O         15.7690   75.2520   25.9420 O.2   267  SER267     -0.2717
     30  CB        12.3240   75.8540   25.7610 C.3   267  SER267      0.2103
     31  OG        11.2900   76.1460   26.6620 O.3   267  SER267     -0.2182
     32  N         14.2170   73.8110   25.3160 N.am  268  GLY268     -0.1942
     33  CA        15.1090   73.0560   24.4840 C.3   268  GLY268      0.2014
     34  C         15.0890   73.5420   23.0540 C.2   268  GLY268      0.2639
     35  O         16.1400   73.5400   22.4020 O.2   268  GLY268     -0.2714
     36  N         13.9170   73.9590   22.5550 N.am  269  ALA269     -0.1963
     37  CA        13.8230   74.4840   21.1770 C.3   269  ALA269      0.1728
     38  C         12.4750   75.0670   20.8640 C.2   269  ALA269      0.2616
     39  O         11.5210   74.9040   21.6300 O.2   269  ALA269     -0.2715
     40  CB        14.1410   73.4130   20.1740 C.3   269  ALA269      0.0334
     41  N         12.3630   75.7360   19.7240 N.am  270  MET270     -0.1963
     42  CA        11.1030   76.4280   19.4240 C.3   270  MET270      0.1736
     43  C         10.8060   76.3630   17.9390 C.2   270  MET270      0.2616
     44  O         11.7050   76.4190   17.1090 O.2   270  MET270     -0.2715
     45  CB        11.1460   77.8820   19.9470 C.3   270  MET270      0.0427
     46  CG         9.9480   78.7930   19.5500 C.3   270  MET270      0.0599
     47  SD         8.4470   78.2340   20.3630 S.3   270  MET270     -0.1393
     48  CE         7.1810   78.5560   19.0760 C.3   270  MET270      0.0692
     49  N          9.5270   76.2930   17.6110 N.am  271  GLU271     -0.1977
     50  CA         9.1260   75.9660   16.2530 C.3   271  GLU271      0.1602
     51  C          8.8940   77.1240   15.3190 C.2   271  GLU271      0.2287
     52  O          8.2700   76.9190   14.2880 O.2   271  GLU271     -0.2864
     53  CB         7.8500   75.0960   16.2560 C.3   271  GLU271      0.0415
     54  CG         6.5620   75.7940   16.7110 C.3   271  GLU271      0.1163
     55  CD         6.2470   75.5300   18.1760 C.2   271  GLU271      0.3649
     56  OE1        7.2250   75.3630   18.9450 O.co2 271  GLU271     -0.2457
     57  OE2        5.0560   75.5340   18.5750 O.co2 271  GLU271     -0.2457
     58  N         15.2650   63.6540   17.8910 N.3   300  MET300     -0.1230
     59  CA        13.8960   63.8240   18.4020 C.3   300  MET300      0.1702
     60  C         13.4580   65.2880   18.4370 C.2   300  MET300      0.2593
     61  O         12.3250   65.5920   18.0780 O.2   300  MET300     -0.2718
     62  CB        13.7770   63.2540   19.8260 C.3   300  MET300      0.0401
     63  CG        14.0680   61.7670   19.9310 C.3   300  MET300      0.0596
     64  SD        13.0600   60.7360   18.8190 S.3   300  MET300     -0.1393
     65  CE        11.8690   60.1650   20.0830 C.3   300  MET300      0.0692
     66  N         14.3400   66.1720   18.9090 N.am  301  THR301     -0.1953
     67  CA        14.0400   67.5950   18.9840 C.3   301  THR301      0.1897
     68  C         13.7910   68.1560   17.5920 C.2   301  THR301      0.2313
     69  O         12.8080   68.8690   17.3940 O.2   301  THR301     -0.2863
     70  CB        15.1800   68.4300   19.6500 C.3   301  THR301      0.1794
     71  OG1       15.5350   67.8470   20.8870 O.3   301  THR301     -0.2208
     72  CG2       14.7380   69.8490   19.9000 C.3   301  THR301      0.0378
     73  N         10.6480   66.9990   16.4070 N.3   304  HIS304     -0.1226
     74  CA         9.5440   67.6040   17.1500 C.3   304  HIS304      0.1752
     75  C          9.2310   68.9650   16.5350 C.2   304  HIS304      0.2595
     76  O          8.0850   69.2640   16.2370 O.2   304  HIS304     -0.2718
     77  CB         9.9240   67.7200   18.6180 C.3   304  HIS304      0.0759
     78  CG         8.8860   68.3650   19.4830 C.ar  304  HIS304      0.0818
     79  ND1        8.0800   67.6470   20.3330 N.ar  304  HIS304     -0.2268
     80  CD2        8.5570   69.6650   19.6650 C.ar  304  HIS304      0.1154
     81  CE1        7.2920   68.4780   20.9900 C.ar  304  HIS304      0.1986
     82  NE2        7.5460   69.7090   20.5880 N.ar  304  HIS304     -0.2212
     83  N         10.2580   69.7810   16.3240 N.am  305  GLU305     -0.1979
     84  CA        10.0510   71.1300   15.8580 C.3   305  GLU305      0.1602
     85  C          9.5430   71.1740   14.4180 C.2   305  GLU305      0.2287
     86  O          8.7410   72.0700   14.0420 O.2   305  GLU305     -0.2864
     87  CB        11.3730   71.9040   15.9500 C.3   305  GLU305      0.0415
     88  CG        11.9010   72.0660   17.3660 C.3   305  GLU305      0.1163
     89  CD        10.8480   72.5820   18.2990 C.2   305  GLU305      0.3649
     90  OE1       10.0610   73.4330   17.8200 O.co2 305  GLU305     -0.2457
     91  OE2       10.7770   72.1400   19.4850 O.co2 305  GLU305     -0.2457
     92  N          6.0100   70.4750   14.2780 N.3   308  HIS308     -0.1241
     93  CA         5.1610   71.6410   14.5430 C.3   308  HIS308      0.1621
     94  C          4.8420   72.4430   13.3020 C.2   308  HIS308      0.2264
     95  O          3.8700   73.1700   13.3010 O.2   308  HIS308     -0.2867
     96  CB         5.7550   72.6140   15.5360 C.3   308  HIS308      0.0745
     97  CG         5.5290   72.2640   16.9760 C.ar  308  HIS308      0.0817
     98  ND1        4.2800   72.1050   17.5280 N.ar  308  HIS308     -0.2268
     99  CD2        6.4040   72.0860   17.9840 C.ar  308  HIS308      0.1154
    100  CE1        4.3970   71.8330   18.8110 C.ar  308  HIS308      0.1986
    101  NE2        5.6770   71.8080   19.1150 N.ar  308  HIS308     -0.2212
    102  N          1.2160   70.4700   21.0940 N.3   327  GLU327     -0.1245
    103  CA         2.3280   69.8540   21.7840 C.3   327  GLU327      0.1567
    104  C          2.2450   68.3530   21.9150 C.2   327  GLU327      0.2260
    105  O          3.2420   67.6770   21.7290 O.2   327  GLU327     -0.2867
    106  CB         2.4810   70.4900   23.1590 C.3   327  GLU327      0.0388
    107  CG         2.9150   71.9600   23.0970 C.3   327  GLU327      0.1160
    108  CD         4.2000   72.1650   22.3100 C.2   327  GLU327      0.3649
    109  OE1        4.8700   71.1720   22.0310 O.co2 327  GLU327     -0.2457
    110  OE2        4.5540   73.2970   21.9510 O.co2 327  GLU327     -0.2457
    111  N          4.8620   65.8710   19.9760 N.3   331  LYS331     -0.1245
    112  CA         5.6630   64.9490   20.7880 C.3   331  LYS331      0.1561
    113  C          5.4710   63.5430   20.2400 C.2   331  LYS331      0.2260
    114  O          6.4390   62.8000   20.0810 O.2   331  LYS331     -0.2867
    115  CB         5.2800   65.0670   22.2690 C.3   331  LYS331      0.0271
    116  CG         5.7670   63.9290   23.1980 C.3   331  LYS331      0.0035
    117  CD         7.2430   63.8800   23.4350 C.3   331  LYS331      0.0206
    118  CE         7.8770   65.2310   23.7850 C.3   331  LYS331      0.1093
    119  NZ         9.3580   65.1890   23.6500 N.3   331  LYS331     -0.1314
    120  N          7.3450   62.8350   16.7750 N.3   334  GLU334     -0.1245
    121  CA         8.7390   62.4570   17.0140 C.3   334  GLU334      0.1567
    122  C          8.8600   60.9430   16.8280 C.2   334  GLU334      0.2260
    123  O          9.7590   60.4840   16.1470 O.2   334  GLU334     -0.2867
    124  CB         9.2020   62.7600   18.4520 C.3   334  GLU334      0.0388
    125  CG         9.5150   64.1860   18.8390 C.3   334  GLU334      0.1160
    126  CD         9.7650   64.3150   20.3620 C.2   334  GLU334      0.3649
    127  OE1       10.4980   63.4850   20.9060 O.co2 334  GLU334     -0.2457
    128  OE2        9.2450   65.2380   21.0360 O.co2 334  GLU334     -0.2457
    129  N          1.5730   79.5640   30.4740 N.3   381  ARG381     -0.1245
    130  CA         2.8760   78.9160   30.5350 C.3   381  ARG381      0.1563
    131  C          2.8370   77.5600   31.2160 C.2   381  ARG381      0.2260
    132  O          3.5990   76.6740   30.8470 O.2   381  ARG381     -0.2867
    133  CB         3.8420   79.7750   31.3080 C.3   381  ARG381      0.0307
    134  CG         4.6320   80.8030   30.5030 C.3   381  ARG381      0.0489
    135  CD         5.2440   81.7990   31.5090 C.3   381  ARG381      0.2205
    136  NE         4.9640   83.1440   31.0540 N.pl3 381  ARG381     -0.0865
    137  CZ         4.7010   84.2040   31.8110 C.cat 381  ARG381      0.5346
    138  NH1        4.6770   84.1600   33.1530 N.pl3 381  ARG381      0.1354
    139  NH2        4.4960   85.3600   31.1820 N.pl3 381  ARG381      0.1354
    140  N          2.4880   74.2670   29.3470 N.3   384  PHE384     -0.1241
    141  CA         3.6200   73.6030   28.7140 C.3   384  PHE384      0.1605
    142  C          4.2390   72.6110   29.6650 C.2   384  PHE384      0.2264
    143  O          5.3520   72.8100   30.1040 O.2   384  PHE384     -0.2867
    144  CB         4.6660   74.6060   28.2110 C.3   384  PHE384      0.0534
    145  CG         4.1840   75.4430   27.0670 C.ar  384  PHE384     -0.0203
    146  CD1        3.3150   76.5130   27.2870 C.ar  384  PHE384     -0.0042
    147  CD2        4.5600   75.1570   25.7870 C.ar  384  PHE384     -0.0042
    148  CE1        2.8490   77.2880   26.2460 C.ar  384  PHE384     -0.0003
    149  CE2        4.0850   75.9400   24.7290 C.ar  384  PHE384     -0.0003
    150  CZ         3.2210   77.0060   24.9730 C.ar  384  PHE384     -0.0000
    151  N          2.1610   67.6390   26.7570 N.3   389  TYR389     -0.1241
    152  CA         3.1350   66.8730   25.9750 C.3   389  TYR389      0.1605
    153  C          2.9110   65.3590   26.0390 C.2   389  TYR389      0.2264
    154  O          2.5290   64.7380   25.0510 O.2   389  TYR389     -0.2867
    155  CB         4.5730   67.1700   26.4420 C.3   389  TYR389      0.0534
    156  CG         5.0820   68.5210   26.0000 C.ar  389  TYR389     -0.0201
    157  CD1        4.6740   69.6740   26.6360 C.ar  389  TYR389     -0.0009
    158  CD2        5.9650   68.6500   24.9420 C.ar  389  TYR389     -0.0009
    159  CE1        5.1130   70.9280   26.2280 C.ar  389  TYR389      0.0417
    160  CE2        6.4260   69.9030   24.5370 C.ar  389  TYR389      0.0417
    161  CZ         5.9820   71.0460   25.1950 C.ar  389  TYR389      0.1957
    162  OH         6.4070   72.3110   24.8470 O.3   389  TYR389     -0.2866
    163  N          8.2770   75.8960   33.0110 N.3   787  SER787     -0.1217
    164  CA         8.8660   74.6350   33.4510 C.3   787  SER787      0.1889
    165  C         10.0780   74.8460   34.3330 C.2   787  SER787      0.2288
    166  O         10.2590   74.1400   35.2990 O.2   787  SER787     -0.2866
    167  CB         9.3510   73.8330   32.2620 C.3   787  SER787      0.2089
    168  OG         8.3420   73.6430   31.3080 O.3   787  SER787     -0.2183
@<TRIPOS>BOND
     1    95    94    2
     2    94    93    1
     3    86    85    2
     4    92    93    1
     5    52    51    2
     6    85    84    1
     7    93    96    1
     8    51    50    1
     9    96    97    1
    10    84    87    1
    11    84    83    1
    12    87    88    1
    13   123   122    2
    14    76    75    2
    15    50    53    1
    16    50    49    1
    17    53    54    1
    18    83    75   am
    19    73    74    1
    20    75    74    1
    21    54    55    1
    22   120   121    1
    23   122   121    1
    24    97    98   ar
    25    97    99   ar
    26   121   124    1
    27    44    43    2
    28    74    77    1
    29    88    89    1
    30    69    68    2
    31    98   100   ar
    32    68    67    1
    33    49    43   am
    34    90    89   ar
    35    58    59    1
    36    43    42    1
    37    99   101   ar
    38    61    60    2
    39    55    57   ar
    40    55    56   ar
    41    89    91   ar
    42    59    60    1
    43    59    62    1
    44    60    66   am
    45   124   125    1
    46    77    78    1
    47   100   101   ar
    48    64    63    1
    49    64    65    1
    50   125   126    1
    51    66    67    1
    52    67    70    1
    53    48    47    1
    54    42    41    1
    55    42    45    1
    56    78    80   ar
    57    78    79   ar
    58    46    45    1
    59    46    47    1
    60    70    72    1
    61    70    71    1
    62    80    82   ar
    63    41    38   am
    64    62    63    1
    65   111   112    1
    66   114   113    2
    67    40    37    1
    68   113   112    1
    69    79    81   ar
    70   126   127   ar
    71   126   128   ar
    72    82    81   ar
    73   112   115    1
    74    38    37    1
    75    38    39    2
    76   102   103    1
    77    37    36    1
    78     1     2    1
    79    18    16   ar
    80    17    16   ar
    81   105   104    2
    82    16    15    1
    83   103   104    1
    84   103   106    1
    85     2     3    1
    86     2     5    1
    87   110   108   ar
    88   109   108   ar
    89     8     7    2
    90    14    15    1
    91    14    11    1
    92    10    11    1
    93   115   116    1
    94   108   107    1
    95     3     4    2
    96    35    34    2
    97    36    34   am
    98    11    12    1
    99     5     6    1
   100     7     9   am
   101     7     6    1
   102    34    33    1
   103   107   106    1
   104   116   117    1
   105    22    21    2
   106   117   118    1
   107   119   118    1
   108    12    13    2
   109    12    19   am
   110    21    20    1
   111    20    19    1
   112    20    23    1
   113    33    32    1
   114   160   158   ar
   115   160   161   ar
   116   149   150   ar
   117   149   147   ar
   118   162   161    1
   119    19    25    1
   120   158   156   ar
   121   150   148   ar
   122   154   153    2
   123   161   159   ar
   124    32    28   am
   125    23    24    1
   126    30    27    1
   127    30    31    1
   128   147   145   ar
   129    28    29    2
   130    28    27    1
   131   152   153    1
   132   152   155    1
   133   152   151    1
   134   156   155    1
   135   156   157   ar
   136   159   157   ar
   137   148   146   ar
   138    25    24    1
   139    27    26    1
   140   145   146   ar
   141   145   144    1
   142   144   141    1
   143   141   140    1
   144   141   142    1
   145   142   143    2
   146   129   130    1
   147   134   133    1
   148   134   135    1
   149   130   131    1
   150   130   133    1
   151   132   131    2
   152   136   135    1
   153   136   137    2
   154   139   137    1
   155   168   167    1
   156   137   138    1
   157   167   164    1
   158   163   164    1
   159   164   165    1
   160   165   166    2
