@<TRIPOS>MOLECULE
tmp/2yd9A02.pdb
 78 74 0 0 0
SMALL
GASTEIGER

@<TRIPOS>ATOM
      1  N        -40.2380  -30.8680   -5.9740 N.3   102  ASP102     -0.1239
      2  CA       -40.8530  -31.1110   -4.6640 C.3   102  ASP102      0.1674
      3  C        -41.7810  -29.9660   -4.2560 C.2   102  ASP102      0.2266
      4  O        -42.8940  -30.1920   -3.7930 O.2   102  ASP102     -0.2867
      5  CB       -39.7740  -31.3010   -3.5920 C.3   102  ASP102      0.1410
      6  CG       -38.8390  -32.4580   -3.9000 C.2   102  ASP102      0.3668
      7  OD1      -39.3460  -33.5730   -4.1510 O.co2 102  ASP102     -0.2456
      8  OD2      -37.6040  -32.2430   -3.9010 O.co2 102  ASP102     -0.2456
      9  N        -38.3120  -22.7400   -5.1350 N.3   120  CYS120     -0.1221
     10  CA       -38.2530  -23.9630   -5.9350 C.3   120  CYS120      0.1808
     11  C        -37.3180  -25.0010   -5.2980 C.2   120  CYS120      0.2601
     12  O        -36.1140  -24.7920   -5.2240 O.2   120  CYS120     -0.2717
     13  CB       -37.8550  -23.6610   -7.3920 C.3   120  CYS120      0.0970
     14  SG       -37.3070  -25.0940   -8.2990 S.3   120  CYS120     -0.0800
     15  N        -37.8990  -26.1080   -4.8350 N.am  121  ALA121     -0.1965
     16  CA       -37.1470  -27.2260   -4.2690 C.3   121  ALA121      0.1728
     17  C        -37.3060  -28.4430   -5.1800 C.2   121  ALA121      0.2616
     18  O        -38.4320  -28.8380   -5.5010 O.2   121  ALA121     -0.2715
     19  CB       -37.6380  -27.5440   -2.8450 C.3   121  ALA121      0.0334
     20  N        -36.1800  -29.0230   -5.5980 N.am  122  ALA122     -0.1963
     21  CA       -36.1720  -30.1560   -6.5310 C.3   122  ALA122      0.1728
     22  C        -35.1790  -31.2350   -6.1100 C.2   122  ALA122      0.2617
     23  O        -34.0790  -30.9400   -5.6670 O.2   122  ALA122     -0.2715
     24  CB       -35.8440  -29.6830   -7.9340 C.3   122  ALA122      0.0334
     25  N        -35.5770  -32.4920   -6.2630 N.am  123  SER123     -0.1936
     26  CA       -34.7020  -33.6220   -5.9760 C.3   123  SER123      0.2055
     27  C        -34.3370  -34.3470   -7.2620 C.2   123  SER123      0.2643
     28  O        -34.9590  -34.1430   -8.3010 O.2   123  SER123     -0.2714
     29  CB       -35.3950  -34.5780   -5.0090 C.3   123  SER123      0.2130
     30  OG       -36.7180  -34.8270   -5.4340 O.3   123  SER123     -0.2179
     31  N        -33.3190  -35.1950   -7.1710 N.am  124  GLY124     -0.1954
     32  CA       -32.8260  -35.9720   -8.3060 C.3   124  GLY124      0.1869
     33  C        -31.4960  -36.5960   -7.9500 C.2   124  GLY124      0.2309
     34  O        -30.9690  -36.3500   -6.8670 O.2   124  GLY124     -0.2863
     35  N        -28.0840  -34.4040   -7.7300 N.3   127  ASP127     -0.1225
     36  CA       -28.9280  -33.2780   -7.3790 C.3   127  ASP127      0.1790
     37  C        -28.9760  -32.3490   -8.5770 C.2   127  ASP127      0.2439
     38  O        -27.9400  -32.0640   -9.1740 O.2   127  ASP127     -0.2733
     39  CB       -28.3810  -32.5480   -6.1490 C.3   127  ASP127      0.1423
     40  CG       -28.5380  -33.3550   -4.8700 C.2   127  ASP127      0.3668
     41  OD1      -29.1520  -34.4430   -4.9120 O.co2 127  ASP127     -0.2456
     42  OD2      -28.0500  -32.8990   -3.8160 O.co2 127  ASP127     -0.2456
     43  N        -30.1790  -31.8990   -8.9560 N.am  128  PRO128     -0.2729
     44  CA       -30.3100  -31.0950  -10.1680 C.3   128  PRO128      0.1401
     45  C        -29.8550  -29.6550   -9.9960 C.2   128  PRO128      0.2269
     46  O        -29.8490  -29.1290   -8.8810 O.2   128  PRO128     -0.2865
     47  CB       -31.8070  -31.1580  -10.4660 C.3   128  PRO128      0.0296
     48  CG       -32.4370  -31.3750   -9.1480 C.3   128  PRO128      0.0237
     49  CD       -31.4850  -32.1910   -8.3420 C.3   128  PRO128      0.0939
     50  N        -30.6870  -25.8740  -10.6980 N.3   130  ILE130     -0.1245
     51  CA       -31.8490  -25.0310  -11.0020 C.3   130  ILE130      0.1561
     52  C        -31.4710  -23.8590  -11.9120 C.2   130  ILE130      0.2260
     53  O        -30.5840  -23.0790  -11.5850 O.2   130  ILE130     -0.2867
     54  CB       -32.5300  -24.4890   -9.7220 C.3   130  ILE130      0.0252
     55  CG1      -33.4690  -25.5330   -9.1160 C.3   130  ILE130      0.0019
     56  CG2      -33.3630  -23.2660  -10.0330 C.3   130  ILE130      0.0019
     57  CD1      -32.8210  -26.8540   -8.7830 C.3   130  ILE130      0.0001
     58  N        -28.9040  -20.6120   -2.5180 N.3   152  ARG152     -0.1231
     59  CA       -28.3980  -21.9930   -2.5120 C.3   152  ARG152      0.1694
     60  C        -29.5290  -23.0060   -2.6550 C.2   152  ARG152      0.2593
     61  O        -29.3140  -24.1140   -3.1230 O.2   152  ARG152     -0.2718
     62  CB       -27.6660  -22.3080   -1.2030 C.3   152  ARG152      0.0321
     63  CG       -26.4230  -21.4950   -0.9010 C.3   152  ARG152      0.0489
     64  CD       -26.2370  -21.3730    0.6150 C.3   152  ARG152      0.2205
     65  NE       -26.1320  -22.6780    1.2660 N.pl3 152  ARG152     -0.0865
     66  CZ       -26.3670  -22.9200    2.5580 C.cat 152  ARG152      0.5346
     67  NH1      -26.7400  -21.9510    3.3880 N.pl3 152  ARG152      0.1354
     68  NH2      -26.2170  -24.1540    3.0350 N.pl3 152  ARG152      0.1354
     69  N        -30.7290  -22.6260   -2.2280 N.am  153  SER153     -0.1938
     70  CA       -31.8750  -23.5220   -2.2310 C.3   153  SER153      0.2055
     71  C        -32.4840  -23.7040   -3.6180 C.2   153  SER153      0.2643
     72  O        -33.2410  -24.6480   -3.8380 O.2   153  SER153     -0.2714
     73  CB       -32.9450  -23.0060   -1.2610 C.3   153  SER153      0.2130
     74  OG       -33.4700  -21.7610   -1.6870 O.3   153  SER153     -0.2179
     75  N        -32.1440  -22.8130   -4.5450 N.am  154  GLY154     -0.1954
     76  CA       -32.7330  -22.8060   -5.8810 C.3   154  GLY154      0.1869
     77  C        -33.6470  -21.6080   -6.0430 C.2   154  GLY154      0.2309
     78  O        -33.9610  -21.2050   -7.1610 O.2   154  GLY154     -0.2863
@<TRIPOS>BOND
     1    52    53    2
     2    52    51    1
     3    51    50    1
     4    51    54    1
     5    47    44    1
     6    47    48    1
     7    44    45    1
     8    44    43    1
     9    56    54    1
    10    45    46    2
    11    54    55    1
    12    38    37    2
    13    48    49    1
    14    55    57    1
    15    43    37   am
    16    43    49    1
    17    37    36    1
    18    32    33    1
    19    32    31    1
    20    28    27    2
    21    14    13    1
    22    33    34    2
    23    24    21    1
    24    35    36    1
    25    13    10    1
    26    36    39    1
    27    27    31   am
    28    27    26    1
    29    78    77    2
    30    21    22    1
    31    21    20    1
    32    25    22   am
    33    25    26    1
    34    39    40    1
    35    22    23    2
    36    77    76    1
    37    26    29    1
    38     1     2    1
    39    10    11    1
    40    10     9    1
    41    76    75    1
    42    20    17   am
    43    18    17    2
    44    30    29    1
    45    11    12    2
    46    11    15   am
    47    17    16    1
    48    41    40   ar
    49    40    42   ar
    50    15    16    1
    51     2     3    1
    52     2     5    1
    53    75    71   am
    54    16    19    1
    55     3     4    2
    56     7     6   ar
    57     8     6   ar
    58     6     5    1
    59    72    71    2
    60    71    70    1
    61    61    60    2
    62    60    59    1
    63    60    69   am
    64    58    59    1
    65    59    62    1
    66    70    69    1
    67    70    73    1
    68    74    73    1
    69    62    63    1
    70    63    64    1
    71    64    65    1
    72    65    66    2
    73    66    68    1
    74    66    67    1
