@<TRIPOS>MOLECULE
tmp/2ydbA00.pdb
 111 108 0 0 0
SMALL
GASTEIGER

@<TRIPOS>ATOM
      1  N        -11.0320   11.0030  -31.7840 N.3     5  LEU5       -0.1231
      2  CA       -10.8930    9.6540  -31.2820 C.3     5  LEU5        0.1693
      3  C        -11.2470    9.6920  -29.8050 C.2     5  LEU5        0.2592
      4  O        -11.8750    8.7760  -29.2720 O.2     5  LEU5       -0.2718
      5  CB        -9.4490    9.1910  -31.4630 C.3     5  LEU5        0.0284
      6  CG        -9.0550    7.8000  -30.9770 C.3     5  LEU5        0.0019
      7  CD1       -9.7070    6.7350  -31.8670 C.3     5  LEU5        0.0001
      8  CD2       -7.5230    7.6500  -30.9640 C.3     5  LEU5        0.0001
      9  N        -10.8240   10.7620  -29.1410 N.am    6  TYR6       -0.1976
     10  CA       -11.1780   10.9850  -27.7430 C.3     6  TYR6        0.1639
     11  C        -10.9680   12.4400  -27.3200 C.2     6  TYR6        0.2290
     12  O        -10.1710   13.1540  -27.9340 O.2     6  TYR6       -0.2864
     13  CB       -10.4390   10.0260  -26.8200 C.3     6  TYR6        0.0560
     14  CG        -8.9210   10.1210  -26.8260 C.ar    6  TYR6       -0.0198
     15  CD1       -8.2580   11.1160  -26.1130 C.ar    6  TYR6       -0.0009
     16  CD2       -8.1570    9.1790  -27.4930 C.ar    6  TYR6       -0.0009
     17  CE1       -6.8760   11.1830  -26.0990 C.ar    6  TYR6        0.0417
     18  CE2       -6.7790    9.2330  -27.4830 C.ar    6  TYR6        0.0417
     19  CZ        -6.1430   10.2350  -26.7900 C.ar    6  TYR6        0.1957
     20  OH        -4.7690   10.2720  -26.7860 O.3     6  TYR6       -0.2866
     21  N         -1.5840   12.7520  -21.4730 N.3    65  HIS65      -0.1241
     22  CA        -2.9600   13.2400  -21.4730 C.3    65  HIS65       0.1621
     23  C         -3.8100   12.5360  -20.4340 C.2    65  HIS65       0.2264
     24  O         -3.4680   11.4360  -19.9720 O.2    65  HIS65      -0.2867
     25  CB        -3.6040   13.0980  -22.8540 C.3    65  HIS65       0.0745
     26  CG        -3.8960   11.6820  -23.2480 C.ar   65  HIS65       0.0817
     27  ND1       -3.0460   10.9380  -24.0380 N.ar   65  HIS65      -0.2268
     28  CD2       -4.9490   10.8740  -22.9660 C.ar   65  HIS65       0.1154
     29  CE1       -3.5550    9.7310  -24.2150 C.ar   65  HIS65       0.1986
     30  NE2       -4.7120    9.6680  -23.5810 N.ar   65  HIS65      -0.2212
     31  N         -7.6980   11.3960  -20.3820 N.3    67  THR67      -0.1218
     32  CA        -8.8700   11.2310  -21.2410 C.3    67  THR67       0.1862
     33  C        -10.1510   11.4970  -20.4590 C.2    67  THR67       0.2287
     34  O        -10.2670   11.0980  -19.2940 O.2    67  THR67      -0.2866
     35  CB        -8.9580    9.7890  -21.8330 C.3    67  THR67       0.1770
     36  OG1       -7.7980    9.5190  -22.6250 O.3    67  THR67      -0.2211
     37  CG2      -10.1930    9.6560  -22.7260 C.3    67  THR67       0.0375
     38  N        -13.7090    8.6610  -24.4900 N.3    70  PHE70      -0.1241
     39  CA       -13.2680    7.9930  -25.7190 C.3    70  PHE70       0.1605
     40  C        -14.4460    8.0390  -26.6810 C.2    70  PHE70       0.2264
     41  O        -15.5470    7.6090  -26.3210 O.2    70  PHE70      -0.2867
     42  CB       -12.8580    6.5340  -25.4270 C.3    70  PHE70       0.0534
     43  CG       -12.3300    5.7900  -26.6330 C.ar   70  PHE70      -0.0203
     44  CD1      -11.0480    6.0400  -27.1140 C.ar   70  PHE70      -0.0042
     45  CD2      -13.1050    4.8380  -27.2780 C.ar   70  PHE70      -0.0042
     46  CE1      -10.5540    5.3590  -28.2320 C.ar   70  PHE70      -0.0003
     47  CE2      -12.6170    4.1470  -28.4000 C.ar   70  PHE70      -0.0003
     48  CZ       -11.3480    4.4080  -28.8740 C.ar   70  PHE70      -0.0000
     49  N        -11.9440    7.4090  -12.1660 N.3   142  ARG142     -0.1245
     50  CA       -11.1970    6.7040  -13.2050 C.3   142  ARG142      0.1563
     51  C        -10.1250    7.5950  -13.8450 C.2   142  ARG142      0.2260
     52  O         -9.2210    7.1090  -14.5240 O.2   142  ARG142     -0.2867
     53  CB       -12.1670    6.1950  -14.2700 C.3   142  ARG142      0.0307
     54  CG       -11.5510    5.3740  -15.3680 C.3   142  ARG142      0.0489
     55  CD       -12.6560    4.7490  -16.2010 C.3   142  ARG142      0.2205
     56  NE       -12.1490    4.0750  -17.3890 N.pl3 142  ARG142     -0.0865
     57  CZ       -12.8000    3.1100  -18.0350 C.cat 142  ARG142      0.5346
     58  NH1      -13.9840    2.6990  -17.5950 N.pl3 142  ARG142      0.1354
     59  NH2      -12.2660    2.5530  -19.1160 N.pl3 142  ARG142      0.1354
     60  N         -7.0670    9.4810  -14.9340 N.3   144  HIS144     -0.1241
     61  CA        -5.6660    9.1040  -14.7650 C.3   144  HIS144      0.1621
     62  C         -4.8160    9.6010  -15.9310 C.2   144  HIS144      0.2264
     63  O         -5.3370   10.0090  -16.9650 O.2   144  HIS144     -0.2867
     64  CB        -5.5630    7.5820  -14.7340 C.3   144  HIS144      0.0745
     65  CG        -5.9430    6.9440  -16.0320 C.ar  144  HIS144      0.0817
     66  ND1       -7.2460    6.6330  -16.3530 N.ar  144  HIS144     -0.2268
     67  CD2       -5.1980    6.5940  -17.1080 C.ar  144  HIS144      0.1154
     68  CE1       -7.2860    6.1080  -17.5660 C.ar  144  HIS144      0.1986
     69  NE2       -6.0560    6.0640  -18.0410 N.ar  144  HIS144     -0.2212
     70  N         -1.8110    7.8420  -18.2300 N.3   146  THR146     -0.1218
     71  CA        -1.0680    6.6100  -18.4720 C.3   146  THR146      0.1862
     72  C          0.4270    6.8960  -18.6110 C.2   146  THR146      0.2287
     73  O          0.8330    7.8180  -19.3200 O.2   146  THR146     -0.2866
     74  CB        -1.6130    5.8920  -19.7100 C.3   146  THR146      0.1770
     75  OG1       -2.9210    5.3950  -19.4080 O.3   146  THR146     -0.2211
     76  CG2       -0.7160    4.7330  -20.1200 C.3   146  THR146      0.0375
     77  N         -3.5220   -3.1970  -23.4870 N.3   154  GLN154     -0.1231
     78  CA        -3.9550   -1.9270  -24.0880 C.3   154  GLN154      0.1683
     79  C         -4.0910   -0.8450  -23.0150 C.2   154  GLN154      0.2434
     80  O         -4.6300   -1.1030  -21.9390 O.2   154  GLN154     -0.2733
     81  CB        -5.2700   -2.0830  -24.8570 C.3   154  GLN154      0.0380
     82  CG        -5.3910   -3.3880  -25.6200 C.3   154  GLN154      0.0905
     83  CD        -5.8070   -4.5270  -24.7230 C.2   154  GLN154      0.2608
     84  OE1       -6.2690   -4.3070  -23.6040 O.2   154  GLN154     -0.2717
     85  NE2       -5.6430   -5.7570  -25.2040 N.am  154  GLN154     -0.0878
     86  N         -3.6130    0.3770  -23.3110 N.am  155  PRO155     -0.2718
     87  CA        -3.5230    1.4610  -22.3200 C.3   155  PRO155      0.1535
     88  C         -4.8550    1.8710  -21.6710 C.2   155  PRO155      0.2598
     89  O         -4.8480    2.6800  -20.7400 O.2   155  PRO155     -0.2715
     90  CB        -2.9160    2.6220  -23.1180 C.3   155  PRO155      0.0310
     91  CG        -3.1910    2.3080  -24.5390 C.3   155  PRO155      0.0237
     92  CD        -3.1830    0.8130  -24.6490 C.3   155  PRO155      0.0939
     93  N         -5.9660    1.3120  -22.1440 N.am  156  VAL156     -0.1978
     94  CA        -7.2690    1.5400  -21.5230 C.3   156  VAL156      0.1596
     95  C         -7.3680    0.7840  -20.1940 C.2   156  VAL156      0.2287
     96  O         -8.0800    1.1950  -19.2720 O.2   156  VAL156     -0.2864
     97  CB        -8.4280    1.1430  -22.4610 C.3   156  VAL156      0.0276
     98  CG1       -8.2760   -0.2990  -22.9170 C.3   156  VAL156      0.0022
     99  CG2       -9.7710    1.3690  -21.7800 C.3   156  VAL156      0.0022
    100  N         -8.3980   14.7210  -29.6510 N.3   211  TYR211     -0.1241
    101  CA        -7.3270   14.0400  -30.3950 C.3   211  TYR211      0.1605
    102  C         -7.9080   13.1820  -31.5210 C.2   211  TYR211      0.2264
    103  O         -8.8120   12.3940  -31.2790 O.2   211  TYR211     -0.2867
    104  CB        -6.5470   13.1310  -29.4480 C.3   211  TYR211      0.0534
    105  CG        -5.4860   12.2750  -30.1220 C.ar  211  TYR211     -0.0201
    106  CD1       -4.2580   12.8190  -30.4860 C.ar  211  TYR211     -0.0009
    107  CD2       -5.7110   10.9240  -30.3830 C.ar  211  TYR211     -0.0009
    108  CE1       -3.2850   12.0510  -31.0960 C.ar  211  TYR211      0.0417
    109  CE2       -4.7330   10.1350  -30.9870 C.ar  211  TYR211      0.0417
    110  CZ        -3.5240   10.7060  -31.3380 C.ar  211  TYR211      0.1957
    111  OH        -2.5510    9.9480  -31.9360 O.3   211  TYR211     -0.2866
@<TRIPOS>BOND
     1   111   110    1
     2     7     6    1
     3     1     2    1
     4   102   103    2
     5   102   101    1
     6     5     2    1
     7     5     6    1
     8   110   108   ar
     9   110   109   ar
    10     2     3    1
    11   108   106   ar
    12   109   107   ar
    13     6     8    1
    14   106   105   ar
    15   101   100    1
    16   101   104    1
    17   107   105   ar
    18   105   104    1
    19     3     4    2
    20     3     9   am
    21     9    10    1
    22    48    47   ar
    23    48    46   ar
    24    47    45   ar
    25    46    44   ar
    26    12    11    2
    27    10    11    1
    28    10    13    1
    29    16    18   ar
    30    16    14   ar
    31    18    19   ar
    32    45    43   ar
    33    44    43   ar
    34    14    13    1
    35    14    15   ar
    36    19    20    1
    37    19    17   ar
    38    40    41    2
    39    40    39    1
    40    43    42    1
    41    15    17   ar
    42    39    42    1
    43    39    38    1
    44    82    81    1
    45    82    83    1
    46    85    83   am
    47    81    78    1
    48    83    84    2
    49    92    91    1
    50    92    86    1
    51    91    90    1
    52    29    27   ar
    53    29    30   ar
    54    78    77    1
    55    78    79    1
    56    27    26   ar
    57    30    28   ar
    58    86    79   am
    59    86    87    1
    60    26    28   ar
    61    26    25    1
    62    90    87    1
    63    79    80    2
    64    98    97    1
    65    25    22    1
    66    37    35    1
    67    36    35    1
    68    97    99    1
    69    97    94    1
    70    87    88    1
    71    93    88   am
    72    93    94    1
    73    35    32    1
    74    88    89    2
    75    94    95    1
    76    22    21    1
    77    22    23    1
    78    32    33    1
    79    32    31    1
    80    33    34    2
    81    23    24    2
    82    95    96    2
    83    76    74    1
    84    74    75    1
    85    74    71    1
    86    73    72    2
    87    59    57    1
    88    72    71    1
    89    71    70    1
    90    69    68   ar
    91    69    67   ar
    92    57    58    1
    93    57    56    2
    94    68    66   ar
    95    56    55    1
    96    67    65   ar
    97    63    62    2
    98    66    65   ar
    99    55    54    1
   100    65    64    1
   101    62    61    1
   102    54    53    1
   103    60    61    1
   104    61    64    1
   105    52    51    2
   106    53    50    1
   107    51    50    1
   108    50    49    1
