@<TRIPOS>MOLECULE
tmp/2ydcA00.pdb
 106 101 0 0 0
SMALL
GASTEIGER

@<TRIPOS>ATOM
      1  N        -11.1970   11.1620  -31.7460 N.3     6  LEU6       -0.1231
      2  CA       -11.0350    9.7920  -31.2860 C.3     6  LEU6        0.1693
      3  C        -11.3810    9.7820  -29.8020 C.2     6  LEU6        0.2592
      4  O        -12.0660    8.8830  -29.3150 O.2     6  LEU6       -0.2718
      5  CB        -9.5970    9.3130  -31.4990 C.3     6  LEU6        0.0284
      6  CG        -9.2580    7.9170  -30.9740 C.3     6  LEU6        0.0019
      7  CD1       -9.9970    6.8500  -31.7760 C.3     6  LEU6        0.0001
      8  CD2       -7.7530    7.6790  -31.0160 C.3     6  LEU6        0.0001
      9  N        -10.9060   10.8030  -29.0930 N.am    7  TYR7       -0.1976
     10  CA       -11.2800   11.0260  -27.7000 C.3     7  TYR7        0.1639
     11  C        -11.0280   12.4690  -27.2650 C.2     7  TYR7        0.2290
     12  O        -10.1630   13.1500  -27.8160 O.2     7  TYR7       -0.2864
     13  CB       -10.5560   10.0560  -26.7630 C.3     7  TYR7        0.0560
     14  CG        -9.0380   10.1660  -26.7630 C.ar    7  TYR7       -0.0198
     15  CD1       -8.3890   11.1570  -26.0350 C.ar    7  TYR7       -0.0009
     16  CD2       -8.2590    9.2580  -27.4670 C.ar    7  TYR7       -0.0009
     17  CE1       -7.0050   11.2550  -26.0270 C.ar    7  TYR7        0.0417
     18  CE2       -6.8710    9.3460  -27.4640 C.ar    7  TYR7        0.0417
     19  CZ        -6.2520   10.3500  -26.7410 C.ar    7  TYR7        0.1957
     20  OH        -4.8780   10.4510  -26.7270 O.3     7  TYR7       -0.2866
     21  N         -1.5840   12.9490  -21.4320 N.3    69  HIS69      -0.1241
     22  CA        -2.9800   13.3830  -21.4000 C.3    69  HIS69       0.1621
     23  C         -3.8270   12.6460  -20.3670 C.2    69  HIS69       0.2264
     24  O         -3.4830   11.5500  -19.9200 O.2    69  HIS69      -0.2867
     25  CB        -3.6190   13.2380  -22.7850 C.3    69  HIS69       0.0745
     26  CG        -3.9090   11.8190  -23.1720 C.ar   69  HIS69       0.0817
     27  ND1       -3.0220   11.0460  -23.8870 N.ar   69  HIS69      -0.2268
     28  CD2       -4.9910   11.0360  -22.9440 C.ar   69  HIS69       0.1154
     29  CE1       -3.5400    9.8440  -24.0790 C.ar   69  HIS69       0.1986
     30  NE2       -4.7370    9.8150  -23.5140 N.ar   69  HIS69      -0.2212
     31  N         -7.6760   11.4130  -20.3580 N.3    71  THR71      -0.1218
     32  CA        -8.8810   11.2390  -21.1600 C.3    71  THR71       0.1862
     33  C        -10.1540   11.4960  -20.3630 C.2    71  THR71       0.2287
     34  O        -10.2500   11.1260  -19.1920 O.2    71  THR71      -0.2866
     35  CB        -8.9560    9.8170  -21.7470 C.3    71  THR71       0.1770
     36  OG1       -7.7840    9.5660  -22.5290 O.3    71  THR71      -0.2211
     37  CG2      -10.2030    9.6490  -22.6160 C.3    71  THR71       0.0375
     38  N        -13.8750    8.7040  -24.4780 N.3    74  PHE74      -0.1241
     39  CA       -13.4610    8.0380  -25.7060 C.3    74  PHE74       0.1605
     40  C        -14.6440    8.0160  -26.6690 C.2    74  PHE74       0.2264
     41  O        -15.6940    7.4500  -26.3610 O.2    74  PHE74      -0.2867
     42  CB       -12.9720    6.6110  -25.4200 C.3    74  PHE74       0.0534
     43  CG       -12.4450    5.9000  -26.6350 C.ar   74  PHE74      -0.0203
     44  CD1      -11.1510    6.1220  -27.0770 C.ar   74  PHE74      -0.0042
     45  CD2      -13.2440    5.0140  -27.3400 C.ar   74  PHE74      -0.0042
     46  CE1      -10.6660    5.4810  -28.2010 C.ar   74  PHE74      -0.0003
     47  CE2      -12.7620    4.3630  -28.4650 C.ar   74  PHE74      -0.0003
     48  CZ       -11.4720    4.5970  -28.8940 C.ar   74  PHE74      -0.0000
     49  N        -24.3830    3.7080  -18.0710 N.3   134  LYS134     -0.1245
     50  CA       -23.4760    2.6070  -17.7780 C.3   134  LYS134      0.1561
     51  C        -22.7930    2.8430  -16.4360 C.2   134  LYS134      0.2260
     52  O        -21.6220    3.2240  -16.3900 O.2   134  LYS134     -0.2867
     53  CB       -22.4260    2.4540  -18.8810 C.3   134  LYS134      0.0271
     54  CG       -21.4310    1.3290  -18.6290 C.3   134  LYS134      0.0035
     55  CD       -20.2340    1.4130  -19.5600 C.3   134  LYS134      0.0206
     56  CE       -19.1400    0.4440  -19.1370 C.3   134  LYS134      0.1093
     57  NZ       -17.9130    0.5820  -19.9700 N.3   134  LYS134     -0.1314
     58  N        -11.8630    7.4320  -12.1510 N.3   146  ARG146     -0.1245
     59  CA       -11.0320    6.7710  -13.1550 C.3   146  ARG146      0.1563
     60  C        -10.0090    7.7230  -13.7720 C.2   146  ARG146      0.2260
     61  O         -9.0490    7.2830  -14.4030 O.2   146  ARG146     -0.2867
     62  CB       -11.9000    6.1480  -14.2590 C.3   146  ARG146      0.0307
     63  CG       -11.1240    5.2700  -15.2350 C.3   146  ARG146      0.0489
     64  CD       -11.9290    4.9250  -16.4840 C.3   146  ARG146      0.2205
     65  NE       -12.9200    3.8810  -16.2480 N.pl3 146  ARG146     -0.0865
     66  CZ       -13.4430    3.1200  -17.2050 C.cat 146  ARG146      0.5346
     67  NH1      -13.0640    3.2830  -18.4650 N.pl3 146  ARG146      0.1354
     68  NH2      -14.3410    2.1910  -16.9020 N.pl3 146  ARG146      0.1354
     69  N         -7.0550    9.6430  -14.8930 N.3   148  HIS148     -0.1241
     70  CA        -5.6620    9.2490  -14.7370 C.3   148  HIS148      0.1621
     71  C         -4.8160    9.7480  -15.8970 C.2   148  HIS148      0.2264
     72  O         -5.3380   10.1930  -16.9180 O.2   148  HIS148     -0.2867
     73  CB        -5.5700    7.7250  -14.6970 C.3   148  HIS148      0.0745
     74  CG        -5.9330    7.0790  -15.9960 C.ar  148  HIS148      0.0817
     75  ND1       -7.2140    6.6730  -16.2930 N.ar  148  HIS148     -0.2268
     76  CD2       -5.1890    6.8150  -17.0970 C.ar  148  HIS148      0.1154
     77  CE1       -7.2430    6.1640  -17.5140 C.ar  148  HIS148      0.1986
     78  NE2       -6.0240    6.2380  -18.0210 N.ar  148  HIS148     -0.2212
     79  N         -1.7430    7.9760  -18.1500 N.3   150  THR150     -0.1218
     80  CA        -1.0010    6.7470  -18.3990 C.3   150  THR150      0.1862
     81  C          0.4780    7.0470  -18.5850 C.2   150  THR150      0.2287
     82  O          0.8560    7.9230  -19.3640 O.2   150  THR150     -0.2866
     83  CB        -1.5460    5.9890  -19.6270 C.3   150  THR150      0.1770
     84  OG1       -2.9010    5.5900  -19.3790 O.3   150  THR150     -0.2211
     85  CG2       -0.7050    4.7520  -19.9080 C.3   150  THR150      0.0375
     86  N         -4.5940   -0.1600  -23.9860 N.3   159  PRO159     -0.2102
     87  CA        -4.4520    1.1860  -23.4130 C.3   159  PRO159      0.1504
     88  C         -5.4640    1.5130  -22.3090 C.2   159  PRO159      0.2575
     89  O         -5.1490    2.2620  -21.3820 O.2   159  PRO159     -0.2718
     90  CB        -4.6740    2.1010  -24.6230 C.3   159  PRO159      0.0282
     91  CG        -5.4970    1.2820  -25.5700 C.3   159  PRO159      0.0208
     92  CD        -4.9860   -0.1160  -25.4060 C.3   159  PRO159      0.0893
     93  N         -6.6640    0.9540  -22.4080 N.am  160  VAL160     -0.1980
     94  CA        -7.7320    1.2790  -21.4720 C.3   160  VAL160      0.1595
     95  C         -7.5270    0.6290  -20.1010 C.2   160  VAL160      0.2287
     96  O         -8.2470    0.9310  -19.1450 O.2   160  VAL160     -0.2864
     97  CB        -9.1060    0.8640  -22.0320 C.3   160  VAL160      0.0276
     98  CG1       -9.3300   -0.6350  -21.8420 C.3   160  VAL160      0.0022
     99  CG2      -10.2100    1.6680  -21.3710 C.3   160  VAL160      0.0022
    100  N         -5.2250    0.9650  -17.8580 N.3   162  THR162     -0.1218
    101  CA        -4.7510    1.8390  -16.7900 C.3   162  THR162      0.1862
    102  C         -5.9030    2.3490  -15.9330 C.2   162  THR162      0.2287
    103  O         -5.8400    2.3140  -14.7020 O.2   162  THR162     -0.2866
    104  CB        -3.9480    3.0350  -17.3440 C.3   162  THR162      0.1770
    105  OG1       -2.9460    2.5610  -18.2510 O.3   162  THR162     -0.2211
    106  CG2       -3.2790    3.7940  -16.2100 C.3   162  THR162      0.0375
@<TRIPOS>BOND
     1     7     6    1
     2     1     2    1
     3     5     2    1
     4     5     6    1
     5     2     3    1
     6     8     6    1
     7     3     4    2
     8     3     9   am
     9     9    10    1
    10    48    47   ar
    11    48    46   ar
    12    47    45   ar
    13    46    44   ar
    14    12    11    2
    15    10    11    1
    16    10    13    1
    17    16    18   ar
    18    16    14   ar
    19    18    19   ar
    20    45    43   ar
    21    44    43   ar
    22    13    14    1
    23    14    15   ar
    24    19    20    1
    25    19    17   ar
    26    40    41    2
    27    40    39    1
    28    43    42    1
    29    15    17   ar
    30    39    42    1
    31    39    38    1
    32    91    92    1
    33    91    90    1
    34    92    86    1
    35    90    87    1
    36    29    27   ar
    37    29    30   ar
    38    86    87    1
    39    27    26   ar
    40    30    28   ar
    41    87    88    1
    42    26    28   ar
    43    26    25    1
    44    25    22    1
    45    37    35    1
    46    36    35    1
    47    93    88   am
    48    93    94    1
    49    88    89    2
    50    97    98    1
    51    97    94    1
    52    97    99    1
    53    35    32    1
    54    94    95    1
    55    21    22    1
    56    22    23    1
    57    32    33    1
    58    32    31    1
    59    23    24    2
    60    33    34    2
    61    95    96    2
    62    57    56    1
    63    85    83    1
    64    83    84    1
    65    83    80    1
    66    55    56    1
    67    55    54    1
    68    82    81    2
    69    53    54    1
    70    53    50    1
    71    81    80    1
    72    67    66    1
    73    80    79    1
    74   105   104    1
    75    49    50    1
    76    78    77   ar
    77    78    76   ar
    78   100   101    1
    79    50    51    1
    80    77    75   ar
    81   104   101    1
    82   104   106    1
    83    66    68    1
    84    66    65    2
    85    76    74   ar
    86    72    71    2
    87   101   102    1
    88    64    65    1
    89    64    63    1
    90    51    52    2
    91    75    74   ar
    92    74    73    1
    93   102   103    2
    94    71    70    1
    95    63    62    1
    96    69    70    1
    97    70    73    1
    98    61    60    2
    99    62    59    1
   100    60    59    1
   101    59    58    1
