@<TRIPOS>MOLECULE
tmp/2yddA00.pdb
 102 99 0 0 0
SMALL
GASTEIGER

@<TRIPOS>ATOM
      1  N        -10.9560   10.7970  -31.7900 N.3     5  LEU5       -0.1231
      2  CA       -10.7590    9.4700  -31.2450 C.3     5  LEU5        0.1693
      3  C        -11.1590    9.5190  -29.7890 C.2     5  LEU5        0.2592
      4  O        -11.8640    8.6460  -29.3190 O.2     5  LEU5       -0.2718
      5  CB        -9.3060    9.0170  -31.3860 C.3     5  LEU5        0.0284
      6  CG        -8.9720    7.5870  -30.9570 C.3     5  LEU5        0.0019
      7  CD1       -9.7090    6.5090  -31.7820 C.3     5  LEU5        0.0001
      8  CD2       -7.4510    7.3680  -31.0100 C.3     5  LEU5        0.0001
      9  N        -10.7160   10.5520  -29.0850 N.am    6  TYR6       -0.1976
     10  CA       -11.0960   10.7610  -27.6910 C.3     6  TYR6        0.1639
     11  C        -10.8660   12.2040  -27.2820 C.2     6  TYR6        0.2290
     12  O        -10.0460   12.9200  -27.8840 O.2     6  TYR6       -0.2864
     13  CB       -10.3790    9.7940  -26.7380 C.3     6  TYR6        0.0560
     14  CG        -8.8680    9.8810  -26.7230 C.ar    6  TYR6       -0.0198
     15  CD1       -8.2130   10.8420  -25.9700 C.ar    6  TYR6       -0.0009
     16  CD2       -8.1020    8.9850  -27.4380 C.ar    6  TYR6       -0.0009
     17  CE1       -6.8150   10.9210  -25.9470 C.ar    6  TYR6        0.0417
     18  CE2       -6.7100    9.0350  -27.4120 C.ar    6  TYR6        0.0417
     19  CZ        -6.0770   10.0060  -26.6660 C.ar    6  TYR6        0.1957
     20  OH        -4.7010   10.0710  -26.6490 O.3     6  TYR6       -0.2866
     21  N         -1.4480   12.5150  -21.5170 N.3    62  HIS62      -0.1241
     22  CA        -2.7960   13.0560  -21.4970 C.3    62  HIS62       0.1621
     23  C         -3.6640   12.3650  -20.4660 C.2    62  HIS62       0.2264
     24  O         -3.3820   11.2160  -20.0680 O.2    62  HIS62      -0.2867
     25  CB        -3.4500   12.9230  -22.8740 C.3    62  HIS62       0.0745
     26  CG        -3.7840   11.5160  -23.2360 C.ar   62  HIS62       0.0817
     27  ND1       -2.9280   10.7130  -23.9580 N.ar   62  HIS62      -0.2268
     28  CD2       -4.8630   10.7500  -22.9360 C.ar   62  HIS62       0.1154
     29  CE1       -3.4660    9.5130  -24.0920 C.ar   62  HIS62       0.1986
     30  NE2       -4.6440    9.5110  -23.4900 N.ar   62  HIS62      -0.2212
     31  N         -7.5190   11.2070  -20.2930 N.3    64  THR64      -0.1218
     32  CA        -8.6950   10.9940  -21.1380 C.3    64  THR64       0.1862
     33  C         -9.9850   11.2510  -20.3770 C.2    64  THR64       0.2287
     34  O        -10.1160   10.8320  -19.2140 O.2    64  THR64      -0.2866
     35  CB        -8.6950    9.5740  -21.7300 C.3    64  THR64       0.1770
     36  OG1       -7.5160    9.4000  -22.5290 O.3    64  THR64      -0.2211
     37  CG2       -9.9040    9.3410  -22.6170 C.3    64  THR64       0.0375
     38  N        -13.6510    8.4970  -24.5060 N.3    67  PHE67      -0.1241
     39  CA       -13.2120    7.8190  -25.7060 C.3    67  PHE67       0.1605
     40  C        -14.3920    7.7870  -26.6730 C.2    67  PHE67       0.2264
     41  O        -15.4650    7.2910  -26.3370 O.2    67  PHE67      -0.2867
     42  CB       -12.7040    6.4050  -25.3760 C.3    67  PHE67       0.0534
     43  CG       -12.2130    5.6430  -26.5800 C.ar   67  PHE67      -0.0203
     44  CD1      -10.8990    5.7810  -27.0190 C.ar   67  PHE67      -0.0042
     45  CD2      -13.0680    4.8110  -27.2890 C.ar   67  PHE67      -0.0042
     46  CE1      -10.4500    5.1040  -28.1270 C.ar   67  PHE67      -0.0003
     47  CE2      -12.6180    4.1160  -28.3950 C.ar   67  PHE67      -0.0003
     48  CZ       -11.3030    4.2660  -28.8130 C.ar   67  PHE67      -0.0000
     49  N        -11.9560    7.1450  -12.0630 N.3   139  ARG139     -0.1245
     50  CA       -11.1900    6.5230  -13.1520 C.3   139  ARG139      0.1563
     51  C        -10.1090    7.4300  -13.7370 C.2   139  ARG139      0.2260
     52  O         -9.2180    6.9480  -14.4370 O.2   139  ARG139     -0.2867
     53  CB       -12.1420    6.0940  -14.2610 C.3   139  ARG139      0.0307
     54  CG       -11.5900    5.1120  -15.2640 C.3   139  ARG139      0.0489
     55  CD       -12.7520    4.4670  -15.9660 C.3   139  ARG139      0.2205
     56  NE       -12.3320    3.6130  -17.0670 N.pl3 139  ARG139     -0.0865
     57  CZ       -13.1620    3.0970  -17.9710 C.cat 139  ARG139      0.5346
     58  NH1      -14.4660    3.3580  -17.9200 N.pl3 139  ARG139      0.1354
     59  NH2      -12.6820    2.3320  -18.9410 N.pl3 139  ARG139      0.1354
     60  N         -7.0650    9.2100  -14.7710 N.3   141  HIS141     -0.1241
     61  CA        -5.6520    8.8310  -14.6460 C.3   141  HIS141      0.1621
     62  C         -4.8260    9.3630  -15.8320 C.2   141  HIS141      0.2264
     63  O         -5.3830    9.7970  -16.8520 O.2   141  HIS141     -0.2867
     64  CB        -5.5440    7.3010  -14.6040 C.3   141  HIS141      0.0745
     65  CG        -5.8600    6.6710  -15.9210 C.ar  141  HIS141      0.0817
     66  ND1       -7.1420    6.5870  -16.4080 N.ar  141  HIS141     -0.2268
     67  CD2       -5.0530    6.1920  -16.8990 C.ar  141  HIS141      0.1154
     68  CE1       -7.1220    6.0370  -17.6080 C.ar  141  HIS141      0.1986
     69  NE2       -5.8660    5.7790  -17.9270 N.ar  141  HIS141     -0.2212
     70  N         -1.7910    7.5440  -18.0620 N.3   143  THR143     -0.1218
     71  CA        -1.0400    6.3280  -18.3240 C.3   143  THR143      0.1862
     72  C          0.4440    6.6180  -18.5370 C.2   143  THR143      0.2287
     73  O          0.8150    7.5200  -19.2960 O.2   143  THR143     -0.2866
     74  CB        -1.5790    5.6610  -19.5640 C.3   143  THR143      0.1770
     75  OG1       -2.9670    5.3700  -19.3530 O.3   143  THR143     -0.2211
     76  CG2       -0.8190    4.3580  -19.8630 C.3   143  THR143      0.0375
     77  N         -3.7210    0.3710  -23.3730 N.3   152  PRO152     -0.2102
     78  CA        -3.6580    1.4480  -22.3680 C.3   152  PRO152      0.1504
     79  C         -4.9950    1.6910  -21.6330 C.2   152  PRO152      0.2575
     80  O         -4.9850    2.2960  -20.5670 O.2   152  PRO152     -0.2718
     81  CB        -3.1980    2.6810  -23.1750 C.3   152  PRO152      0.0282
     82  CG        -2.7920    2.1670  -24.5420 C.3   152  PRO152      0.0208
     83  CD        -3.6020    0.9020  -24.7470 C.3   152  PRO152      0.0893
     84  N         -6.1020    1.2030  -22.2010 N.am  153  VAL153     -0.1980
     85  CA        -7.4030    1.0500  -21.5210 C.3   153  VAL153      0.1595
     86  C         -7.3440    0.4360  -20.1050 C.2   153  VAL153      0.2287
     87  O         -8.1350    0.7900  -19.2150 O.2   153  VAL153     -0.2864
     88  CB        -8.3360    0.0710  -22.2920 C.3   153  VAL153      0.0276
     89  CG1       -9.7850    0.4020  -21.9980 C.3   153  VAL153      0.0022
     90  CG2       -8.0690    0.0790  -23.8000 C.3   153  VAL153      0.0022
     91  N         -8.4170   14.3980  -29.7340 N.3   208  TYR208     -0.1241
     92  CA        -7.2930   13.7480  -30.4020 C.3   208  TYR208      0.1605
     93  C         -7.8330   12.8810  -31.5320 C.2   208  TYR208      0.2264
     94  O         -8.7250   12.0790  -31.3030 O.2   208  TYR208     -0.2867
     95  CB        -6.4800   12.9100  -29.4120 C.3   208  TYR208      0.0534
     96  CG        -5.4280   12.0300  -30.0660 C.ar  208  TYR208     -0.0201
     97  CD1       -4.1830   12.5570  -30.4620 C.ar  208  TYR208     -0.0009
     98  CD2       -5.6760   10.6850  -30.3080 C.ar  208  TYR208     -0.0009
     99  CE1       -3.2360   11.7670  -31.0660 C.ar  208  TYR208      0.0417
    100  CE2       -4.7170    9.8760  -30.9120 C.ar  208  TYR208      0.0417
    101  CZ        -3.5050   10.4160  -31.2850 C.ar  208  TYR208      0.1957
    102  OH        -2.5610    9.6100  -31.8890 O.3   208  TYR208     -0.2866
@<TRIPOS>BOND
     1   102   101    1
     2     1     2    1
     3     7     6    1
     4    93    94    2
     5    93    92    1
     6     5     2    1
     7     5     6    1
     8   101    99   ar
     9   101   100   ar
    10     2     3    1
    11    99    97   ar
    12     8     6    1
    13   100    98   ar
    14    97    96   ar
    15    92    91    1
    16    92    95    1
    17    98    96   ar
    18    96    95    1
    19     3     4    2
    20     3     9   am
    21     9    10    1
    22    48    47   ar
    23    48    46   ar
    24    47    45   ar
    25    46    44   ar
    26    12    11    2
    27    10    11    1
    28    10    13    1
    29    16    18   ar
    30    16    14   ar
    31    18    19   ar
    32    45    43   ar
    33    44    43   ar
    34    13    14    1
    35    14    15   ar
    36    40    41    2
    37    40    39    1
    38    19    20    1
    39    19    17   ar
    40    43    42    1
    41    15    17   ar
    42    39    42    1
    43    39    38    1
    44    83    82    1
    45    83    77    1
    46    82    81    1
    47    29    27   ar
    48    29    30   ar
    49    27    26   ar
    50    90    88    1
    51    30    28   ar
    52    77    78    1
    53    26    28   ar
    54    26    25    1
    55    81    78    1
    56    25    22    1
    57    37    35    1
    58    36    35    1
    59    78    79    1
    60    88    89    1
    61    88    85    1
    62    84    79   am
    63    84    85    1
    64    35    32    1
    65    79    80    2
    66    85    86    1
    67    21    22    1
    68    22    23    1
    69    32    33    1
    70    32    31    1
    71    23    24    2
    72    33    34    2
    73    86    87    2
    74    76    74    1
    75    74    75    1
    76    74    71    1
    77    73    72    2
    78    59    57    1
    79    72    71    1
    80    71    70    1
    81    57    58    1
    82    57    56    2
    83    69    68   ar
    84    69    67   ar
    85    68    66   ar
    86    56    55    1
    87    67    65   ar
    88    63    62    2
    89    66    65   ar
    90    55    54    1
    91    65    64    1
    92    62    61    1
    93    54    53    1
    94    60    61    1
    95    61    64    1
    96    52    51    2
    97    53    50    1
    98    51    50    1
    99    50    49    1
