@<TRIPOS>MOLECULE
tmp/2ydeA00.pdb
 130 122 0 0 0
SMALL
GASTEIGER

@<TRIPOS>ATOM
      1  N        -20.9570   31.8080    0.2680 N.3   145  TYR145     -0.1241
      2  CA       -21.0940   30.9000   -0.8510 C.3   145  TYR145      0.1605
      3  C        -22.1020   29.8530   -0.4360 C.2   145  TYR145      0.2264
      4  O        -21.8070   28.9970    0.4040 O.2   145  TYR145     -0.2867
      5  CB       -19.7530   30.2240   -1.1740 C.3   145  TYR145      0.0534
      6  CG       -19.6090   29.7510   -2.6090 C.ar  145  TYR145     -0.0201
      7  CD1      -20.7310   29.5390   -3.4190 C.ar  145  TYR145     -0.0009
      8  CD2      -18.3520   29.5100   -3.1580 C.ar  145  TYR145     -0.0009
      9  CE1      -20.6050   29.0990   -4.7390 C.ar  145  TYR145      0.0417
     10  CE2      -18.2110   29.0700   -4.4810 C.ar  145  TYR145      0.0417
     11  CZ       -19.3430   28.8680   -5.2650 C.ar  145  TYR145      0.1957
     12  OH       -19.2150   28.4530   -6.5730 O.3   145  TYR145     -0.2866
     13  N        -24.0990   26.5680   -0.9420 N.3   147  GLN147     -0.1245
     14  CA       -23.8770   25.3190   -1.6440 C.3   147  GLN147      0.1566
     15  C        -24.7680   24.3130   -0.9650 C.2   147  GLN147      0.2260
     16  O        -24.4770   23.8550    0.1370 O.2   147  GLN147     -0.2867
     17  CB       -22.4020   24.9080   -1.5470 C.3   147  GLN147      0.0367
     18  CG       -21.4710   25.9200   -2.2030 C.3   147  GLN147      0.0905
     19  CD       -19.9910   25.6140   -2.0210 C.2   147  GLN147      0.2608
     20  OE1      -19.1370   26.4550   -2.3130 O.2   147  GLN147     -0.2717
     21  NE2      -19.6810   24.4130   -1.5490 N.am  147  GLN147     -0.0878
     22  N        -26.1570   19.7200   -7.0250 N.3   186  LEU186     -0.1245
     23  CA       -25.7390   20.7590   -6.1090 C.3   186  LEU186      0.1561
     24  C        -26.0340   22.1420   -6.6820 C.2   186  LEU186      0.2260
     25  O        -25.7030   22.4390   -7.8380 O.2   186  LEU186     -0.2867
     26  CB       -24.2460   20.6430   -5.8140 C.3   186  LEU186      0.0270
     27  CG       -23.7790   21.6790   -4.7860 C.3   186  LEU186      0.0019
     28  CD1      -24.3360   21.2940   -3.4090 C.3   186  LEU186      0.0001
     29  CD2      -22.2570   21.7680   -4.7640 C.3   186  LEU186      0.0001
     30  N        -25.2770   26.0590   -6.4770 N.3   188  LEU188     -0.1245
     31  CA       -24.2420   26.9460   -5.9660 C.3   188  LEU188      0.1561
     32  C        -24.5380   28.4030   -6.2960 C.2   188  LEU188      0.2260
     33  O        -24.8160   28.7450   -7.4470 O.2   188  LEU188     -0.2867
     34  CB       -22.8760   26.5490   -6.5450 C.3   188  LEU188      0.0270
     35  CG       -22.3860   25.1040   -6.3660 C.3   188  LEU188      0.0019
     36  CD1      -22.3330   24.4050   -7.7260 C.3   188  LEU188      0.0001
     37  CD2      -21.0060   25.1020   -5.7150 C.3   188  LEU188      0.0001
     38  N        -13.2160   28.5480   -5.7120 N.3   196  THR196     -0.1218
     39  CA       -13.2290   27.1920   -5.1940 C.3   196  THR196      0.1862
     40  C        -11.8510   26.6620   -5.6350 C.2   196  THR196      0.2287
     41  O        -11.5770   26.5200   -6.8340 O.2   196  THR196     -0.2866
     42  CB       -14.3650   26.3430   -5.8060 C.3   196  THR196      0.1770
     43  OG1      -15.6400   26.8640   -5.4050 O.3   196  THR196     -0.2211
     44  CG2      -14.2350   24.8990   -5.3390 C.3   196  THR196      0.0375
     45  N         -9.3080   20.9460   -6.8940 N.3   199  HIS199     -0.1241
     46  CA        -9.6040   19.6950   -6.2220 C.3   199  HIS199      0.1621
     47  C        -10.1730   18.7890   -7.2780 C.2   199  HIS199      0.2264
     48  O        -10.4500   19.2310   -8.3910 O.2   199  HIS199     -0.2867
     49  CB       -10.6770   19.8930   -5.1510 C.3   199  HIS199      0.0745
     50  CG       -12.0090   20.2880   -5.7180 C.ar  199  HIS199      0.0817
     51  ND1      -12.2990   21.5820   -6.0950 N.ar  199  HIS199     -0.2268
     52  CD2      -13.0780   19.5400   -6.0890 C.ar  199  HIS199      0.1154
     53  CE1      -13.4850   21.6140   -6.6760 C.ar  199  HIS199      0.1986
     54  NE2      -13.9770   20.3870   -6.6890 N.ar  199  HIS199     -0.2212
     55  N        -12.9760   15.2750   -7.9370 N.3   201  ASP201     -0.1239
     56  CA       -14.1170   14.5280   -7.4170 C.3   201  ASP201      0.1674
     57  C        -14.1030   13.1420   -8.0050 C.2   201  ASP201      0.2266
     58  O        -13.5340   12.9220   -9.0700 O.2   201  ASP201     -0.2867
     59  CB       -15.4330   15.1920   -7.8100 C.3   201  ASP201      0.1410
     60  CG       -15.5860   16.5630   -7.2250 C.2   201  ASP201      0.3668
     61  OD1      -15.5020   16.6620   -5.9890 O.co2 201  ASP201     -0.2456
     62  OD2      -15.7960   17.5520   -7.9780 O.co2 201  ASP201     -0.2456
     63  N        -19.2770   14.6790  -13.7550 N.3   205  ASN205     -0.1240
     64  CA       -20.0190   15.9050  -13.4840 C.3   205  ASN205      0.1653
     65  C        -20.4190   16.7030  -14.7240 C.2   205  ASN205      0.2266
     66  O        -19.5990   16.9350  -15.6250 O.2   205  ASN205     -0.2867
     67  CB       -19.1690   16.7850  -12.5390 C.3   205  ASN205      0.1155
     68  CG       -19.8370   18.0980  -12.1730 C.2   205  ASN205      0.2627
     69  OD1      -20.8990   18.4220  -12.6720 O.2   205  ASN205     -0.2716
     70  ND2      -19.2010   18.8690  -11.2880 N.am  205  ASN205     -0.0877
     71  N        -21.6680   20.2320  -15.3170 N.3   207  PHE207     -0.1241
     72  CA       -21.7080   21.5200  -14.6390 C.3   207  PHE207      0.1605
     73  C        -22.4970   22.5400  -15.4690 C.2   207  PHE207      0.2264
     74  O        -21.9930   23.0830  -16.4480 O.2   207  PHE207     -0.2867
     75  CB       -20.2380   21.9330  -14.4110 C.3   207  PHE207      0.0534
     76  CG       -20.0430   23.2020  -13.6210 C.ar  207  PHE207     -0.0203
     77  CD1      -19.9170   23.1590  -12.2360 C.ar  207  PHE207     -0.0042
     78  CD2      -19.9120   24.4290  -14.2700 C.ar  207  PHE207     -0.0042
     79  CE1      -19.6600   24.3210  -11.5020 C.ar  207  PHE207     -0.0003
     80  CE2      -19.6550   25.6050  -13.5500 C.ar  207  PHE207     -0.0003
     81  CZ       -19.5300   25.5510  -12.1660 C.ar  207  PHE207     -0.0000
     82  N        -18.4290   32.0460  -14.8110 N.3   214  LYS214     -0.1245
     83  CA       -17.4310   31.3540  -14.0170 C.3   214  LYS214      0.1561
     84  C        -16.2730   30.8970  -14.8820 C.2   214  LYS214      0.2260
     85  O        -16.4790   30.3510  -15.9790 O.2   214  LYS214     -0.2867
     86  CB       -18.0470   30.1460  -13.3210 C.3   214  LYS214      0.0271
     87  CG       -18.6940   30.4840  -12.0030 C.3   214  LYS214      0.0035
     88  CD       -19.2910   29.2530  -11.3770 C.3   214  LYS214      0.0206
     89  CE       -19.6020   29.4650   -9.9180 C.3   214  LYS214      0.1093
     90  NZ       -20.1600   28.1910   -9.3760 N.3   214  LYS214     -0.1314
     91  N        -10.1980   20.7160  -10.8560 N.3   279  HIS279     -0.1241
     92  CA       -10.8500   21.9090  -11.3460 C.3   279  HIS279      0.1621
     93  C        -10.8300   22.9690  -10.2810 C.2   279  HIS279      0.2264
     94  O        -11.0390   22.7030   -9.1050 O.2   279  HIS279     -0.2867
     95  CB       -12.2900   21.6500  -11.8210 C.3   279  HIS279      0.0745
     96  CG       -13.0830   20.7740  -10.9110 C.ar  279  HIS279      0.0817
     97  ND1      -12.9150   19.4070  -10.8630 N.ar  279  HIS279     -0.2268
     98  CD2      -14.0620   21.0660  -10.0220 C.ar  279  HIS279      0.1154
     99  CE1      -13.7540   18.8940   -9.9820 C.ar  279  HIS279      0.1986
    100  NE2      -14.4620   19.8780   -9.4590 N.ar  279  HIS279     -0.2212
    101  N        -12.4360   26.7710   -9.6950 N.3   281  ILE281     -0.1245
    102  CA       -13.5620   27.5250  -10.2350 C.3   281  ILE281      0.1561
    103  C        -13.7130   28.8750   -9.5670 C.2   281  ILE281      0.2260
    104  O        -13.7320   28.9710   -8.3490 O.2   281  ILE281     -0.2867
    105  CB       -14.8530   26.6680  -10.1330 C.3   281  ILE281      0.0252
    106  CG1      -14.6640   25.4420  -11.0440 C.3   281  ILE281      0.0019
    107  CG2      -16.1030   27.4880  -10.5110 C.3   281  ILE281      0.0019
    108  CD1      -15.7210   24.3970  -10.9640 C.3   281  ILE281      0.0001
    109  N        -25.1040   21.4830  -10.5910 N.3   294  ASN294     -0.1240
    110  CA       -24.3410   20.4070  -11.2050 C.3   294  ASN294      0.1653
    111  C        -25.1270   19.1290  -11.1770 C.2   294  ASN294      0.2266
    112  O        -26.1610   19.0380  -10.5270 O.2   294  ASN294     -0.2867
    113  CB       -22.9620   20.1990  -10.5380 C.3   294  ASN294      0.1155
    114  CG       -23.0500   19.5620   -9.1430 C.2   294  ASN294      0.2627
    115  OD1      -24.0410   18.9230   -8.7960 O.2   294  ASN294     -0.2716
    116  ND2      -21.9900   19.7260   -8.3490 N.am  294  ASN294     -0.0877
    117  N        -24.1440   15.2400  -10.5010 N.3   296  TRP296     -0.1241
    118  CA       -23.1100   14.2690  -10.1510 C.3   296  TRP296      0.1605
    119  C        -23.6120   12.8600  -10.3790 C.2   296  TRP296      0.2264
    120  O        -24.6680   12.4870   -9.8770 O.2   296  TRP296     -0.2867
    121  CB       -22.6830   14.4250   -8.6860 C.3   296  TRP296      0.0550
    122  CG       -21.5280   15.3580   -8.4940 C.ar  296  TRP296      0.0003
    123  CD1      -20.4210   15.4420   -9.2780 C.ar  296  TRP296      0.0946
    124  CD2      -21.3410   16.3080   -7.4350 C.ar  296  TRP296      0.0152
    125  NE1      -19.5490   16.3800   -8.7800 N.ar  296  TRP296     -0.2442
    126  CE2      -20.0880   16.9250   -7.6480 C.ar  296  TRP296      0.0810
    127  CE3      -22.1100   16.7000   -6.3260 C.ar  296  TRP296      0.0012
    128  CZ2      -19.5820   17.9070   -6.7990 C.ar  296  TRP296      0.0191
    129  CZ3      -21.6040   17.6880   -5.4770 C.ar  296  TRP296      0.0001
    130  CH2      -20.3520   18.2760   -5.7210 C.ar  296  TRP296      0.0015
@<TRIPOS>BOND
     1    74    73    2
     2    85    84    2
     3    66    65    2
     4    73    72    1
     5    71    72    1
     6    84    83    1
     7    82    83    1
     8    65    64    1
     9    72    75    1
    10    75    76    1
    11    78    76   ar
    12    78    80   ar
    13    83    86    1
    14    63    64    1
    15    76    77   ar
    16    80    81   ar
    17    64    67    1
    18    86    87    1
    19    69    68    2
    20    67    68    1
    21    77    79   ar
    22    68    70   am
    23    81    79   ar
    24    87    88    1
    25    95    92    1
    26    95    96    1
    27    88    89    1
    28    92    91    1
    29    92    93    1
    30   110   111    1
    31   110   109    1
    32   110   113    1
    33   111   112    2
    34   106   108    1
    35   106   105    1
    36    96    97   ar
    37    96    98   ar
    38    97    99   ar
    39   113   114    1
    40   107   105    1
    41   117   118    1
    42   119   118    1
    43   119   120    2
    44    93    94    2
    45   102   105    1
    46   102   101    1
    47   102   103    1
    48   118   121    1
    49    98   100   ar
    50    99   100   ar
    51    89    90    1
    52   103   104    2
    53   123   125   ar
    54   123   122   ar
    55   114   115    2
    56   114   116   am
    57    58    57    2
    58   125   126   ar
    59   121   122    1
    60   122   124   ar
    61    48    47    2
    62    57    56    1
    63    62    60   ar
    64    55    56    1
    65    25    24    2
    66    59    56    1
    67    59    60    1
    68    36    35    1
    69   126   124   ar
    70   126   128   ar
    71    33    32    2
    72   124   127   ar
    73    47    46    1
    74    60    61   ar
    75    22    23    1
    76    45    46    1
    77    41    40    2
    78   128   130   ar
    79    54    53   ar
    80    54    52   ar
    81    24    23    1
    82    53    51   ar
    83    12    11    1
    84    34    35    1
    85    34    31    1
    86    30    31    1
    87    35    37    1
    88   127   129   ar
    89    32    31    1
    90    46    49    1
    91    23    26    1
    92    51    50   ar
    93    52    50   ar
    94    26    27    1
    95    42    43    1
    96    42    44    1
    97    42    39    1
    98   130   129   ar
    99    50    49    1
   100    38    39    1
   101    40    39    1
   102    11     9   ar
   103    11    10   ar
   104    27    29    1
   105    27    28    1
   106     9     7   ar
   107    10     8   ar
   108     7     6   ar
   109     8     6   ar
   110     6     5    1
   111    20    19    2
   112    18    19    1
   113    18    17    1
   114    19    21   am
   115    14    17    1
   116    14    15    1
   117    14    13    1
   118     5     2    1
   119    15    16    2
   120     2     3    1
   121     2     1    1
   122     3     4    2
