@<TRIPOS>MOLECULE
tmp/2ydfA00.pdb
 196 186 0 0 0
SMALL
GASTEIGER

@<TRIPOS>ATOM
      1  N         -2.8180   -2.0990    8.2890 N.3   137  TYR137     -0.1241
      2  CA        -2.5080   -3.2850    9.0770 C.3   137  TYR137      0.1605
      3  C         -2.5300   -2.9130   10.5550 C.2   137  TYR137      0.2264
      4  O         -1.5340   -2.4400   11.0950 O.2   137  TYR137     -0.2867
      5  CB        -1.1260   -3.8150    8.6900 C.3   137  TYR137      0.0534
      6  CG        -0.8620   -5.2570    9.0730 C.ar  137  TYR137     -0.0201
      7  CD1       -1.9040   -6.1270    9.3710 C.ar  137  TYR137     -0.0009
      8  CD2        0.4340   -5.7470    9.1400 C.ar  137  TYR137     -0.0009
      9  CE1       -1.6580   -7.4470    9.7200 C.ar  137  TYR137      0.0417
     10  CE2        0.6880   -7.0610    9.4890 C.ar  137  TYR137      0.0417
     11  CZ        -0.3590   -7.9050    9.7790 C.ar  137  TYR137      0.1957
     12  OH        -0.1010   -9.2100   10.1240 O.3   137  TYR137     -0.2866
     13  N          0.1300   -3.4210   13.2390 N.3   140  GLU140     -0.1245
     14  CA         1.3110   -2.6420   12.8920 C.3   140  GLU140      0.1567
     15  C          1.1290   -1.1840   13.2830 C.2   140  GLU140      0.2260
     16  O          2.0810   -0.5090   13.6700 O.2   140  GLU140     -0.2867
     17  CB         1.6030   -2.7550   11.3950 C.3   140  GLU140      0.0388
     18  CG         2.4580   -3.9560   11.0330 C.3   140  GLU140      0.1160
     19  CD         3.8950   -3.7740   11.4620 C.2   140  GLU140      0.3649
     20  OE1        4.3930   -2.6320   11.3690 O.co2 140  GLU140     -0.2457
     21  OE2        4.5230   -4.7610   11.9020 O.co2 140  GLU140     -0.2457
     22  N          1.5280   -1.4480    1.1480 N.3   182  LYS182     -0.1231
     23  CA         1.8440   -2.8730    1.1120 C.3   182  LYS182      0.1693
     24  C          0.6480   -3.6960    1.5640 C.2   182  LYS182      0.2591
     25  O          0.3470   -4.7400    0.9860 O.2   182  LYS182     -0.2718
     26  CB         3.0540   -3.1970    1.9910 C.3   182  LYS182      0.0285
     27  CG         4.4020   -2.9140    1.3800 C.3   182  LYS182      0.0035
     28  CD         5.5450   -3.1840    2.3570 C.3   182  LYS182      0.0206
     29  CE         5.3860   -2.3500    3.6180 C.3   182  LYS182      0.1093
     30  NZ         6.6550   -2.2960    4.3810 N.3   182  LYS182     -0.1314
     31  N         -0.0280   -3.2180    2.6030 N.am  183  GLN183     -0.1979
     32  CA        -1.1820   -3.9210    3.1400 C.3   183  GLN183      0.1601
     33  C         -2.3550   -3.8430    2.1730 C.2   183  GLN183      0.2287
     34  O         -3.0180   -4.8460    1.9150 O.2   183  GLN183     -0.2864
     35  CB        -1.5840   -3.3500    4.5020 C.3   183  GLN183      0.0394
     36  CG        -2.6490   -4.1660    5.2230 C.3   183  GLN183      0.0908
     37  CD        -2.1810   -5.5760    5.5550 C.2   183  GLN183      0.2608
     38  OE1       -0.9890   -5.8820    5.4740 O.2   183  GLN183     -0.2717
     39  NE2       -3.1190   -6.4390    5.9310 N.am  183  GLN183     -0.0878
     40  N         -2.2890   -6.5690   -0.1610 N.3   186  LYS186     -0.1245
     41  CA        -2.7210   -7.8300    0.4370 C.3   186  LYS186      0.1561
     42  C         -4.2380   -7.9670    0.4570 C.2   186  LYS186      0.2260
     43  O         -4.7760   -9.0520    0.2480 O.2   186  LYS186     -0.2867
     44  CB        -2.1810   -7.9770    1.8610 C.3   186  LYS186      0.0271
     45  CG        -0.6710   -8.1010    1.9620 C.3   186  LYS186      0.0035
     46  CD        -0.2970   -9.0370    3.1010 C.3   186  LYS186      0.0206
     47  CE         0.9490   -8.5550    3.8270 C.3   186  LYS186      0.1093
     48  NZ         2.1120   -8.3560    2.9180 N.3   186  LYS186     -0.1314
     49  N         -3.4810  -15.0570   -3.1360 N.3   198  PHE198     -0.1241
     50  CA        -2.6990  -14.5960   -1.9970 C.3   198  PHE198      0.1605
     51  C         -1.7510  -15.6860   -1.5100 C.2   198  PHE198      0.2264
     52  O         -0.5800  -15.4250   -1.2410 O.2   198  PHE198     -0.2867
     53  CB        -3.6120  -14.1350   -0.8590 C.3   198  PHE198      0.0534
     54  CG        -2.8680  -13.6200    0.3390 C.ar  198  PHE198     -0.0203
     55  CD1       -2.4840  -14.4770    1.3590 C.ar  198  PHE198     -0.0042
     56  CD2       -2.5470  -12.2750    0.4440 C.ar  198  PHE198     -0.0042
     57  CE1       -1.7960  -14.0030    2.4570 C.ar  198  PHE198     -0.0003
     58  CE2       -1.8600  -11.7930    1.5400 C.ar  198  PHE198     -0.0003
     59  CZ        -1.4830  -12.6570    2.5480 C.ar  198  PHE198     -0.0000
     60  N          1.1510  -16.0880   -3.6930 N.3   201  TRP201     -0.1227
     61  CA         2.0000  -14.9310   -3.4700 C.3   201  TRP201      0.1737
     62  C          2.8010  -15.0900   -2.1860 C.2   201  TRP201      0.2595
     63  O          4.0000  -14.8140   -2.1500 O.2   201  TRP201     -0.2718
     64  CB         1.1660  -13.6510   -3.4120 C.3   201  TRP201      0.0564
     65  CG         2.0030  -12.4150   -3.3530 C.ar  201  TRP201      0.0003
     66  CD1        2.4440  -11.6760   -4.4110 C.ar  201  TRP201      0.0946
     67  CD2        2.5070  -11.7830   -2.1780 C.ar  201  TRP201      0.0152
     68  NE1        3.1920  -10.6140   -3.9680 N.ar  201  TRP201     -0.2442
     69  CE2        3.2500  -10.6510   -2.5930 C.ar  201  TRP201      0.0810
     70  CE3        2.4140  -12.0400   -0.8070 C.ar  201  TRP201      0.0012
     71  CZ2        3.8830   -9.7970   -1.7020 C.ar  201  TRP201      0.0191
     72  CZ3        3.0420  -11.1930    0.0810 C.ar  201  TRP201      0.0001
     73  CH2        3.7690  -10.0840   -0.3700 C.ar  201  TRP201      0.0015
     74  N          2.1330  -15.5320   -1.1280 N.am  202  ALA202     -0.1980
     75  CA         2.7880  -15.7090    0.1630 C.3   202  ALA202      0.1597
     76  C          3.8770  -16.7710    0.0940 C.2   202  ALA202      0.2287
     77  O          4.9480  -16.6080    0.6750 O.2   202  ALA202     -0.2864
     78  CB         1.7690  -16.0570    1.2340 C.3   202  ALA202      0.0319
     79  N          7.0330  -15.3280   -1.6440 N.3   205  ARG205     -0.1231
     80  CA         7.6890  -14.3660   -0.7650 C.3   205  ARG205      0.1694
     81  C          8.4090  -15.0610    0.3910 C.2   205  ARG205      0.2591
     82  O          9.5650  -14.7620    0.6850 O.2   205  ARG205     -0.2718
     83  CB         6.6660  -13.3730   -0.2150 C.3   205  ARG205      0.0321
     84  CG         7.2770  -12.2550    0.6100 C.3   205  ARG205      0.0489
     85  CD         7.9170  -11.2060   -0.2860 C.3   205  ARG205      0.2205
     86  NE         8.8900  -10.3940    0.4370 N.pl3 205  ARG205     -0.0865
     87  CZ        10.1990  -10.6270    0.4350 C.cat 205  ARG205      0.5346
     88  NH1       10.6920  -11.6440   -0.2610 N.pl3 205  ARG205      0.1354
     89  NH2       11.0170   -9.8410    1.1240 N.pl3 205  ARG205      0.1354
     90  N          7.7190  -15.9910    1.0430 N.am  206  LEU206     -0.1980
     91  CA         8.2860  -16.6900    2.1880 C.3   206  LEU206      0.1596
     92  C          9.4080  -17.6400    1.7880 C.2   206  LEU206      0.2287
     93  O         10.3840  -17.7980    2.5200 O.2   206  LEU206     -0.2864
     94  CB         7.2030  -17.4400    2.9660 C.3   206  LEU206      0.0297
     95  CG         6.2200  -16.5450    3.7190 C.3   206  LEU206      0.0022
     96  CD1        5.5230  -17.3220    4.8210 C.3   206  LEU206      0.0001
     97  CD2        6.9650  -15.3670    4.3000 C.3   206  LEU206      0.0001
     98  N         12.4380  -15.5850    1.4300 N.3   209  ARG209     -0.1231
     99  CA        12.8880  -15.0880    2.7180 C.3   209  ARG209      0.1694
    100  C         13.4990  -16.1990    3.5610 C.2   209  ARG209      0.2592
    101  O         14.5050  -15.9950    4.2400 O.2   209  ARG209     -0.2718
    102  CB        11.7160  -14.4550    3.4670 C.3   209  ARG209      0.0321
    103  CG        12.1310  -13.5200    4.5780 C.3   209  ARG209      0.0489
    104  CD        11.9800  -12.0680    4.1600 C.3   209  ARG209      0.2205
    105  NE        10.5820  -11.6550    4.1490 N.pl3 209  ARG209     -0.0865
    106  CZ        10.1740  -10.4000    4.2950 C.cat 209  ARG209      0.5346
    107  NH1       11.0610   -9.4290    4.4670 N.pl3 209  ARG209      0.1354
    108  NH2        8.8800  -10.1140    4.2740 N.pl3 209  ARG209      0.1354
    109  N         12.8840  -17.3750    3.5040 N.am  210  PHE210     -0.1976
    110  CA        13.2760  -18.5030    4.3400 C.3   210  PHE210      0.1639
    111  C         13.6980  -19.7060    3.5050 C.2   210  PHE210      0.2290
    112  O         13.1350  -20.7910    3.6490 O.2   210  PHE210     -0.2864
    113  CB        12.1100  -18.9110    5.2380 C.3   210  PHE210      0.0560
    114  CG        11.5660  -17.7890    6.0790 C.ar  210  PHE210     -0.0200
    115  CD1       12.3960  -16.7860    6.5440 C.ar  210  PHE210     -0.0042
    116  CD2       10.2200  -17.7430    6.4040 C.ar  210  PHE210     -0.0042
    117  CE1       11.8940  -15.7600    7.3170 C.ar  210  PHE210     -0.0003
    118  CE2        9.7070  -16.7170    7.1790 C.ar  210  PHE210     -0.0003
    119  CZ        10.5450  -15.7250    7.6370 C.ar  210  PHE210     -0.0000
    120  N          3.1200  -21.6900    7.5600 N.3   221  LEU221     -0.1245
    121  CA         3.2090  -20.2480    7.7630 C.3   221  LEU221      0.1561
    122  C          2.2290  -19.5050    6.8650 C.2   221  LEU221      0.2260
    123  O          1.5030  -18.6220    7.3180 O.2   221  LEU221     -0.2867
    124  CB         4.6330  -19.7510    7.5140 C.3   221  LEU221      0.0270
    125  CG         5.6570  -20.1490    8.5780 C.3   221  LEU221      0.0019
    126  CD1        6.9890  -19.4690    8.3200 C.3   221  LEU221      0.0001
    127  CD2        5.1360  -19.7950    9.9600 C.3   221  LEU221      0.0001
    128  N         -0.7250  -16.8670    8.0530 N.3   225  LEU225     -0.1245
    129  CA        -0.7180  -15.4950    7.5480 C.3   225  LEU225      0.1561
    130  C         -2.0040  -15.1490    6.8080 C.2   225  LEU225      0.2260
    131  O         -2.5290  -14.0430    6.9370 O.2   225  LEU225     -0.2867
    132  CB         0.4820  -15.2610    6.6290 C.3   225  LEU225      0.0270
    133  CG         1.8030  -14.8880    7.3020 C.3   225  LEU225      0.0019
    134  CD1        2.9650  -15.0860    6.3460 C.3   225  LEU225      0.0001
    135  CD2        1.7500  -13.4550    7.8100 C.3   225  LEU225      0.0001
    136  N         -4.4210  -11.9810    7.7850 N.3   229  HIS229     -0.1241
    137  CA        -4.7340  -10.9140    6.8420 C.3   229  HIS229      0.1621
    138  C         -6.1710  -10.9690    6.3370 C.2   229  HIS229      0.2264
    139  O         -6.7530   -9.9450    5.9970 O.2   229  HIS229     -0.2867
    140  CB        -3.7280  -10.9030    5.6880 C.3   229  HIS229      0.0745
    141  CG        -2.3380  -10.5470    6.1180 C.ar  229  HIS229      0.0817
    142  ND1       -1.9400   -9.2440    6.3290 N.ar  229  HIS229     -0.2268
    143  CD2       -1.2690  -11.3190    6.4050 C.ar  229  HIS229      0.1154
    144  CE1       -0.6760   -9.2300    6.7130 C.ar  229  HIS229      0.1986
    145  NE2       -0.2440  -10.4810    6.7670 N.ar  229  HIS229     -0.2212
    146  N         -2.0890  -12.7130   15.0450 N.3   244  ARG244     -0.1245
    147  CA        -0.7680  -12.2640   14.6230 C.3   244  ARG244      0.1563
    148  C          0.2480  -12.4780   15.7310 C.2   244  ARG244      0.2260
    149  O          1.3780  -12.8920   15.4780 O.2   244  ARG244     -0.2867
    150  CB        -0.7730  -10.7950   14.2060 C.3   244  ARG244      0.0307
    151  CG         0.4750  -10.4350   13.4280 C.3   244  ARG244      0.0489
    152  CD         0.7090   -8.9370   13.3120 C.3   244  ARG244      0.2205
    153  NE         1.9140   -8.6870   12.5310 N.pl3 244  ARG244     -0.0865
    154  CZ         2.5510   -7.5240   12.4670 C.cat 244  ARG244      0.5346
    155  NH1        2.1050   -6.4760   13.1460 N.pl3 244  ARG244      0.1354
    156  NH2        3.6430   -7.4140   11.7220 N.pl3 244  ARG244      0.1354
    157  N          1.1300  -16.1340   15.9000 N.3   247  LEU247     -0.1231
    158  CA         2.0450  -16.4950   14.8180 C.3   247  LEU247      0.1693
    159  C          3.4840  -16.0690   15.0990 C.2   247  LEU247      0.2591
    160  O          4.4200  -16.8460   14.8990 O.2   247  LEU247     -0.2718
    161  CB         1.5820  -15.8890   13.4910 C.3   247  LEU247      0.0284
    162  CG         2.5040  -16.1460   12.2940 C.3   247  LEU247      0.0019
    163  CD1        2.5210  -17.6220   11.9180 C.3   247  LEU247      0.0001
    164  CD2        2.0890  -15.2940   11.1080 C.3   247  LEU247      0.0001
    165  N          3.6560  -14.8320   15.5580 N.am  248  ALA248     -0.1980
    166  CA         4.9850  -14.3040   15.8530 C.3   248  ALA248      0.1597
    167  C          5.6590  -15.1210   16.9510 C.2   248  ALA248      0.2287
    168  O          6.8720  -15.3320   16.9310 O.2   248  ALA248     -0.2864
    169  CB         4.9010  -12.8350   16.2480 C.3   248  ALA248      0.0319
    170  N          6.8060  -18.3740   15.3960 N.3   251  ILE251     -0.1245
    171  CA         7.9660  -18.1910   14.5340 C.3   251  ILE251      0.1561
    172  C          9.2690  -18.1050   15.3280 C.2   251  ILE251      0.2260
    173  O         10.2790  -18.6890   14.9390 O.2   251  ILE251     -0.2867
    174  CB         7.8060  -16.9520   13.6300 C.3   251  ILE251      0.0252
    175  CG1        6.6240  -17.1500   12.6780 C.3   251  ILE251      0.0019
    176  CG2        9.0800  -16.6940   12.8470 C.3   251  ILE251      0.0019
    177  CD1        6.4510  -16.0460   11.6630 C.3   251  ILE251      0.0001
    178  N          7.0260   -8.4760   16.2440 N.3   274  SER274     -0.1217
    179  CA         6.2230   -8.6810   15.0450 C.3   274  SER274      0.1889
    180  C          6.7610   -7.8570   13.8820 C.2   274  SER274      0.2288
    181  O          6.9950   -8.3800   12.7940 O.2   274  SER274     -0.2866
    182  CB         4.7580   -8.3220   15.3090 C.3   274  SER274      0.2089
    183  OG         4.1880   -9.1730   16.2890 O.3   274  SER274     -0.2183
    184  N         10.1130   -9.2030   12.3370 N.3   277  ILE277     -0.1231
    185  CA        10.0040  -10.3780   11.4830 C.3   277  ILE277      0.1692
    186  C          9.5380  -10.0200   10.0760 C.2   277  ILE277      0.2591
    187  O         10.1340  -10.4380    9.0850 O.2   277  ILE277     -0.2718
    188  CB         9.0250  -11.4060   12.0830 C.3   277  ILE277      0.0266
    189  CG1        9.5090  -11.8710   13.4600 C.3   277  ILE277      0.0019
    190  CG2        8.8520  -12.5880   11.1440 C.3   277  ILE277      0.0020
    191  CD1        8.5170  -12.7510   14.1980 C.3   277  ILE277      0.0001
    192  N          8.4720   -9.2330    9.9980 N.am  278  ALA278     -0.1980
    193  CA         7.8950   -8.8470    8.7160 C.3   278  ALA278      0.1597
    194  C          8.8930   -8.1090    7.8250 C.2   278  ALA278      0.2287
    195  O          8.6690   -7.9570    6.6240 O.2   278  ALA278     -0.2864
    196  CB         6.6450   -8.0010    8.9320 C.3   278  ALA278      0.0319
@<TRIPOS>BOND
     1    66    68   ar
     2    66    65   ar
     3    68    69   ar
     4    60    61    1
     5    61    64    1
     6    61    62    1
     7    64    65    1
     8    65    67   ar
     9    49    50    1
    10    69    67   ar
    11    69    71   ar
    12    62    63    2
    13    62    74   am
    14    67    70   ar
    15    50    51    1
    16    50    53    1
    17    71    73   ar
    18    79    80    1
    19    51    52    2
    20    74    75    1
    21    53    54    1
    22    70    72   ar
    23    80    83    1
    24    80    81    1
    25    73    72   ar
    26    85    86    1
    27    85    84    1
    28    88    87    1
    29    83    84    1
    30    40    41    1
    31    76    75    1
    32    76    77    2
    33    75    78    1
    34    43    42    2
    35    54    56   ar
    36    54    55   ar
    37    81    82    2
    38    81    90   am
    39    87    86    2
    40    87    89    1
    41    41    42    1
    42    41    44    1
    43    56    58   ar
    44    25    24    2
    45    90    91    1
    46    23    22    1
    47    23    24    1
    48    23    26    1
    49    55    57   ar
    50    27    26    1
    51    27    28    1
    52    98    99    1
    53    58    59   ar
    54    24    31   am
    55    92    91    1
    56    92    93    2
    57    44    45    1
    58    34    33    2
    59    45    46    1
    60    33    32    1
    61    91    94    1
    62    28    29    1
    63    57    59   ar
    64    31    32    1
    65    99   102    1
    66    99   100    1
    67    48    47    1
    68    94    95    1
    69    46    47    1
    70    32    35    1
    71   102   103    1
    72   109   100   am
    73   109   110    1
    74   111   112    2
    75   111   110    1
    76   100   101    2
    77    29    30    1
    78    95    97    1
    79    95    96    1
    80   105   104    1
    81   105   106    2
    82   104   103    1
    83   108   106    1
    84   106   107    1
    85   110   113    1
    86    35    36    1
    87    36    37    1
    88   113   114    1
    89    38    37    2
    90    37    39   am
    91   140   141    1
    92   140   137    1
    93   139   138    2
    94   114   116   ar
    95   114   115   ar
    96   141   142   ar
    97   141   143   ar
    98   142   144   ar
    99   138   137    1
   100   134   133    1
   101   116   118   ar
   102   143   145   ar
   103   115   117   ar
   104   195   194    2
   105   132   133    1
   106   132   129    1
   107   144   145   ar
   108   130   131    2
   109   130   129    1
   110   137   136    1
   111   122   123    2
   112   122   121    1
   113   118   119   ar
   114   133   135    1
   115   117   119   ar
   116   124   121    1
   117   124   125    1
   118   129   128    1
   119   120   121    1
   120   194   193    1
   121     1     2    1
   122   126   125    1
   123   125   127    1
   124     5     6    1
   125     5     2    1
   126   193   196    1
   127   193   192    1
   128     6     8   ar
   129     6     7   ar
   130     2     3    1
   131   187   186    2
   132     8    10   ar
   133     7     9   ar
   134    10    11   ar
   135     9    11   ar
   136    11    12    1
   137   192   186   am
   138   186   185    1
   139     3     4    2
   140    18    17    1
   141    18    19    1
   142   164   162    1
   143   190   188    1
   144    20    19   ar
   145    17    14    1
   146    19    21   ar
   147   185   188    1
   148   185   184    1
   149   177   175    1
   150   156   154    1
   151   163   162    1
   152   188   189    1
   153   162   161    1
   154   154   153    2
   155   154   155    1
   156   153   152    1
   157   175   174    1
   158   181   180    2
   159   176   174    1
   160    14    13    1
   161    14    15    1
   162    15    16    2
   163   152   151    1
   164   151   150    1
   165   189   191    1
   166   161   158    1
   167   174   171    1
   168   180   179    1
   169   150   147    1
   170   171   172    1
   171   171   170    1
   172   147   146    1
   173   147   148    1
   174   158   159    1
   175   158   157    1
   176   160   159    2
   177   173   172    2
   178   179   182    1
   179   179   178    1
   180   159   165   am
   181   182   183    1
   182   149   148    2
   183   165   166    1
   184   166   169    1
   185   166   167    1
   186   168   167    2
