@<TRIPOS>MOLECULE
tmp/2ydfA03.pdb
 107 97 0 0 0
SMALL
GASTEIGER

@<TRIPOS>ATOM
      1  N         18.1480    5.8280  -17.4740 N.3   381  LEU381     -0.1245
      2  CA        17.3780    7.0310  -17.7500 C.3   381  LEU381      0.1561
      3  C         17.3150    7.8810  -16.4860 C.2   381  LEU381      0.2260
      4  O         17.7380    9.0370  -16.4800 O.2   381  LEU381     -0.2867
      5  CB        15.9640    6.6740  -18.2070 C.3   381  LEU381      0.0270
      6  CG        15.1280    7.8390  -18.7430 C.3   381  LEU381      0.0019
      7  CD1       15.7350    8.3770  -20.0320 C.3   381  LEU381      0.0001
      8  CD2       13.6730    7.4460  -18.9590 C.3   381  LEU381      0.0001
      9  N         18.6140   12.0070  -15.4760 N.3   385  LEU385     -0.1245
     10  CA        17.6450   13.0890  -15.3220 C.3   385  LEU385      0.1561
     11  C         17.4410   13.4990  -13.8700 C.2   385  LEU385      0.2260
     12  O         17.2770   14.6820  -13.5680 O.2   385  LEU385     -0.2867
     13  CB        16.2990   12.6840  -15.9230 C.3   385  LEU385      0.0270
     14  CG        16.3120   12.1990  -17.3720 C.3   385  LEU385      0.0019
     15  CD1       15.4900   10.9340  -17.4910 C.3   385  LEU385      0.0001
     16  CD2       15.7910   13.2730  -18.3150 C.3   385  LEU385      0.0001
     17  N         12.8370   15.3470  -13.0340 N.3   389  LYS389     -0.1245
     18  CA        12.6440   15.2300  -14.4740 C.3   389  LYS389      0.1561
     19  C         12.1010   13.8510  -14.8280 C.2   389  LYS389      0.2260
     20  O         11.2850   13.7090  -15.7400 O.2   389  LYS389     -0.2867
     21  CB        13.9550   15.4820  -15.2180 C.3   389  LYS389      0.0271
     22  CG        14.4990   16.8900  -15.0130 C.3   389  LYS389      0.0035
     23  CD        13.6720   17.8920  -15.8070 C.3   389  LYS389      0.0206
     24  CE        14.3200   19.2690  -15.6810 C.3   389  LYS389      0.1093
     25  NZ        13.2880   20.3440  -15.7330 N.3   389  LYS389     -0.1314
     26  N          8.4610   13.6480  -14.3630 N.3   392  ASN392     -0.1225
     27  CA         7.7890   14.3310  -15.4610 C.3   392  ASN392      0.1785
     28  C          7.5950   13.4090  -16.6530 C.2   392  ASN392      0.2597
     29  O          6.5160   13.3550  -17.2370 O.2   392  ASN392     -0.2718
     30  CB         8.5650   15.5820  -15.8750 C.3   392  ASN392      0.1169
     31  CG         8.5810   16.6420  -14.7880 C.2   392  ASN392      0.2627
     32  OD1        7.6720   16.7130  -13.9600 O.2   392  ASN392     -0.2716
     33  ND2        9.6160   17.4780  -14.7900 N.am  392  ASN392     -0.0877
     34  N          8.6480   12.6840  -17.0110 N.am  393  ALA393     -0.1979
     35  CA         8.5720   11.7360  -18.1160 C.3   393  ALA393      0.1597
     36  C          7.4290   10.7540  -17.8950 C.2   393  ALA393      0.2287
     37  O          6.5910   10.5570  -18.7720 O.2   393  ALA393     -0.2864
     38  CB         9.8830   10.9920  -18.2640 C.3   393  ALA393      0.0319
     39  N          3.9710   12.2960  -18.3750 N.3   396  VAL396     -0.1231
     40  CA         3.5770   12.4170  -19.7710 C.3   396  VAL396      0.1692
     41  C          3.2370   11.0560  -20.3640 C.2   396  VAL396      0.2591
     42  O          2.2580   10.9150  -21.0950 O.2   396  VAL396     -0.2718
     43  CB         4.6850   13.0810  -20.6140 C.3   396  VAL396      0.0266
     44  CG1        4.2390   13.2210  -22.0580 C.3   396  VAL396      0.0020
     45  CG2        5.0510   14.4360  -20.0340 C.3   396  VAL396      0.0020
     46  N          4.0480   10.0540  -20.0430 N.am  397  ARG397     -0.1980
     47  CA         3.8360    8.7060  -20.5560 C.3   397  ARG397      0.1597
     48  C          2.5040    8.1220  -20.1150 C.2   397  ARG397      0.2287
     49  O          1.7080    7.6800  -20.9420 O.2   397  ARG397     -0.2864
     50  CB         4.9720    7.7810  -20.1270 C.3   397  ARG397      0.0334
     51  CG         5.9100    7.4010  -21.2500 C.3   397  ARG397      0.0492
     52  CD         7.1510    6.7240  -20.7170 C.3   397  ARG397      0.2205
     53  NE         6.8580    5.4940  -19.9890 N.pl3 397  ARG397     -0.0865
     54  CZ         7.7360    4.8570  -19.2220 C.cat 397  ARG397      0.5346
     55  NH1        8.9630    5.3360  -19.0710 N.pl3 397  ARG397      0.1354
     56  NH2        7.3870    3.7420  -18.5990 N.pl3 397  ARG397      0.1354
     57  N         -0.5870    9.7370  -21.4080 N.3   400  LYS400     -0.1245
     58  CA        -0.8380    9.3130  -22.7800 C.3   400  LYS400      0.1561
     59  C         -1.5210    7.9490  -22.8070 C.2   400  LYS400      0.2260
     60  O         -2.4230    7.7170  -23.6110 O.2   400  LYS400     -0.2867
     61  CB         0.4610    9.2700  -23.5870 C.3   400  LYS400      0.0271
     62  CG         1.0240   10.6400  -23.9370 C.3   400  LYS400      0.0035
     63  CD         2.1800   10.5250  -24.9260 C.3   400  LYS400      0.0206
     64  CE         2.5690   11.8820  -25.4850 C.3   400  LYS400      0.1093
     65  NZ         3.5160   11.7530  -26.6230 N.3   400  LYS400     -0.1314
     66  N          1.1750   20.0400  -16.2470 N.3   516  LEU516     -0.1245
     67  CA         1.7120   19.2260  -17.3340 C.3   516  LEU516      0.1561
     68  C          0.7070   18.1670  -17.7770 C.2   516  LEU516      0.2260
     69  O          0.5400   17.9120  -18.9670 O.2   516  LEU516     -0.2867
     70  CB         3.0290   18.5680  -16.9130 C.3   516  LEU516      0.0270
     71  CG         3.7370   17.7110  -17.9630 C.3   516  LEU516      0.0019
     72  CD1        3.8570   18.4620  -19.2790 C.3   516  LEU516      0.0001
     73  CD2        5.1090   17.2660  -17.4640 C.3   516  LEU516      0.0001
     74  N          7.2930   15.0450  -26.8110 N.3   528  LYS528     -0.1245
     75  CA         8.0600   15.2200  -25.5810 C.3   528  LYS528      0.1561
     76  C          8.9060   16.4890  -25.5960 C.2   528  LYS528      0.2260
     77  O          9.1680   17.0830  -24.5500 O.2   528  LYS528     -0.2867
     78  CB         8.9530   14.0010  -25.3370 C.3   528  LYS528      0.0271
     79  CG         8.1210   12.6950  -25.2420 C.3   528  LYS528      0.0035
     80  CD         7.3920   12.6240  -23.9280 C.3   528  LYS528      0.0206
     81  CE         7.5000   11.3180  -23.1780 C.3   528  LYS528      0.1093
     82  NZ         6.7590   10.2000  -23.8060 N.3   528  LYS528     -0.1314
     83  N          6.6180   19.7640  -25.3960 N.3   531  LEU531     -0.1231
     84  CA         6.1540   19.8620  -24.0160 C.3   531  LEU531      0.1693
     85  C          7.2130   20.4840  -23.1100 C.2   531  LEU531      0.2591
     86  O          6.9280   21.4190  -22.3630 O.2   531  LEU531     -0.2718
     87  CB         5.7300   18.4920  -23.4800 C.3   531  LEU531      0.0284
     88  CG         4.3330   18.0000  -23.8630 C.3   531  LEU531      0.0019
     89  CD1        4.3930   16.9380  -24.9480 C.3   531  LEU531      0.0001
     90  CD2        3.6180   17.4600  -22.6390 C.3   531  LEU531      0.0001
     91  N          8.4320   19.9620  -23.1790 N.am  532  LYS532     -0.1980
     92  CA         9.5390   20.5160  -22.4090 C.3   532  LYS532      0.1596
     93  C          9.7780   21.9680  -22.8030 C.2   532  LYS532      0.2287
     94  O         10.2000   22.7840  -21.9840 O.2   532  LYS532     -0.2864
     95  CB        10.8110   19.6970  -22.6280 C.3   532  LYS532      0.0298
     96  CG        10.8210   18.3040  -21.9780 C.3   532  LYS532      0.0038
     97  CD        10.5020   18.3940  -20.4810 C.3   532  LYS532      0.0206
     98  CE        10.5990   17.0240  -19.7960 C.3   532  LYS532      0.1093
     99  NZ         9.9460   17.0300  -18.4500 N.3   532  LYS532     -0.1314
    100  N          7.2180   23.6620  -20.8040 N.3   535  MET535     -0.1245
    101  CA         7.4300   23.3390  -19.3990 C.3   535  MET535      0.1570
    102  C          8.4850   24.2690  -18.8170 C.2   535  MET535      0.2261
    103  O          8.3330   24.7850  -17.7100 O.2   535  MET535     -0.2867
    104  CB         7.8640   21.8810  -19.2410 C.3   535  MET535      0.0387
    105  CG         8.1830   21.3400  -17.8760 C.3   535  MET535      0.0595
    106  SD         6.5080   21.1720  -17.1040 S.3   535  MET535     -0.1393
    107  CE         7.0270   21.3410  -15.3790 C.3   535  MET535      0.0692
@<TRIPOS>BOND
     1    74    75    1
     2    65    64    1
     3    76    75    1
     4    76    77    2
     5    75    78    1
     6    64    63    1
     7    83    84    1
     8    78    79    1
     9    79    80    1
    10    89    88    1
    11    63    62    1
    12    84    87    1
    13    84    85    1
    14    62    61    1
    15    80    81    1
    16    88    87    1
    17    88    90    1
    18    82    81    1
    19    60    59    2
    20    61    58    1
    21    91    85   am
    22    91    92    1
    23    85    86    2
    24    59    58    1
    25    93    92    1
    26    93    94    2
    27    58    57    1
    28    95    92    1
    29    95    96    1
    30    44    43    1
    31    96    97    1
    32    51    52    1
    33    51    50    1
    34    42    41    2
    35    49    48    2
    36   100   101    1
    37    52    53    1
    38    43    45    1
    39    43    40    1
    40    47    50    1
    41    47    48    1
    42    47    46    1
    43    97    98    1
    44    41    46   am
    45    41    40    1
    46     7     6    1
    47    53    54    2
    48    98    99    1
    49    40    39    1
    50   101   104    1
    51   101   102    1
    52    72    71    1
    53   104   105    1
    54    54    55    1
    55    54    56    1
    56    69    68    2
    57     8     6    1
    58   102   103    2
    59    37    36    2
    60     6     5    1
    61    16    14    1
    62    38    35    1
    63     5     2    1
    64    35    36    1
    65    35    34    1
    66    71    73    1
    67    71    70    1
    68   105   106    1
    69    68    67    1
    70     2     1    1
    71     2     3    1
    72    15    14    1
    73    14    13    1
    74    67    70    1
    75    67    66    1
    76    29    28    2
    77   106   107    1
    78    34    28   am
    79    28    27    1
    80     3     4    2
    81    13    10    1
    82    30    27    1
    83    30    31    1
    84    23    24    1
    85    23    22    1
    86    20    19    2
    87    25    24    1
    88     9    10    1
    89    27    26    1
    90    10    11    1
    91    21    22    1
    92    21    18    1
    93    19    18    1
    94    33    31   am
    95    31    32    2
    96    18    17    1
    97    11    12    2
