@<TRIPOS>MOLECULE
tmp/2ydfA02.pdb
 134 128 0 0 0
SMALL
GASTEIGER

@<TRIPOS>ATOM
      1  N         -6.4600   17.7960    4.5710 N.3   101  ARG101     -0.1231
      2  CA        -5.0630   17.4210    4.7570 C.3   101  ARG101      0.1694
      3  C         -4.6200   17.6880    6.1930 C.2   101  ARG101      0.2591
      4  O         -4.8990   18.7500    6.7510 O.2   101  ARG101     -0.2718
      5  CB        -4.1650   18.1830    3.7790 C.3   101  ARG101      0.0321
      6  CG        -3.5310   17.3740    2.6340 C.3   101  ARG101      0.0489
      7  CD        -4.5180   16.5780    1.7800 C.3   101  ARG101      0.2205
      8  NE        -5.0430   15.4240    2.5070 N.pl3 101  ARG101     -0.0865
      9  CZ        -5.9920   14.6010    2.0640 C.cat 101  ARG101      0.5346
     10  NH1       -6.5310   14.7730    0.8590 N.pl3 101  ARG101      0.1354
     11  NH2       -6.3950   13.5920    2.8310 N.pl3 101  ARG101      0.1354
     12  N         -3.9350   16.7170    6.7880 N.am  102  LEU102     -0.1980
     13  CA        -3.4980   16.8280    8.1740 C.3   102  LEU102      0.1596
     14  C         -2.2850   17.7380    8.3140 C.2   102  LEU102      0.2287
     15  O         -1.1620   17.3530    7.9890 O.2   102  LEU102     -0.2864
     16  CB        -3.1920   15.4470    8.7560 C.3   102  LEU102      0.0297
     17  CG        -2.8100   15.3600   10.2260 C.3   102  LEU102      0.0022
     18  CD1       -4.0130   15.6270   11.1210 C.3   102  LEU102      0.0001
     19  CD2       -2.2110   13.9920   10.5440 C.3   102  LEU102      0.0001
     20  N          0.2770   19.8800   10.7980 N.3   104  ARG104     -0.1245
     21  CA         0.7790   19.7960   12.1630 C.3   104  ARG104      0.1563
     22  C          1.4190   21.1000   12.6270 C.2   104  ARG104      0.2260
     23  O          2.4090   21.5480   12.0590 O.2   104  ARG104     -0.2867
     24  CB         1.7260   18.6100   12.3520 C.3   104  ARG104      0.0307
     25  CG         2.9600   18.5980   11.4600 C.3   104  ARG104      0.0489
     26  CD         3.6630   17.2550   11.5860 C.3   104  ARG104      0.2205
     27  NE         4.9360   17.1840   10.8750 N.pl3 104  ARG104     -0.0865
     28  CZ         5.6260   16.0590   10.7100 C.cat 104  ARG104      0.5346
     29  NH1        5.1590   14.9150   11.1930 N.pl3 104  ARG104      0.1354
     30  NH2        6.7790   16.0710   10.0560 N.pl3 104  ARG104      0.1354
     31  N         -3.9770   10.4060   17.2970 N.3   125  TYR125     -0.1241
     32  CA        -3.0940    9.9270   16.2430 C.3   125  TYR125      0.1605
     33  C         -3.7190    8.7500   15.5010 C.2   125  TYR125      0.2264
     34  O         -4.0210    8.8490   14.3160 O.2   125  TYR125     -0.2867
     35  CB        -1.7460    9.5210   16.8360 C.3   125  TYR125      0.0534
     36  CG        -0.8280    8.8170   15.8660 C.ar  125  TYR125     -0.0201
     37  CD1       -0.0460    9.5370   14.9730 C.ar  125  TYR125     -0.0009
     38  CD2       -0.7340    7.4320   15.8500 C.ar  125  TYR125     -0.0009
     39  CE1        0.8000    8.8970   14.0830 C.ar  125  TYR125      0.0417
     40  CE2        0.1090    6.7820   14.9660 C.ar  125  TYR125      0.0417
     41  CZ         0.8740    7.5190   14.0840 C.ar  125  TYR125      0.1957
     42  OH         1.7150    6.8760   13.2030 O.3   125  TYR125     -0.2866
     43  N         -5.1200    8.5610   11.5370 N.3   129  ILE129     -0.1245
     44  CA        -4.4580    7.6190   10.6460 C.3   129  ILE129      0.1561
     45  C         -5.4450    6.5810   10.1300 C.2   129  ILE129      0.2260
     46  O         -5.6300    6.4280    8.9240 O.2   129  ILE129     -0.2867
     47  CB        -3.3190    6.8740   11.3650 C.3   129  ILE129      0.0252
     48  CG1       -2.2720    7.8590   11.8870 C.3   129  ILE129      0.0019
     49  CG2       -2.6800    5.8480   10.4320 C.3   129  ILE129      0.0019
     50  CD1       -1.0580    7.9740   10.9980 C.3   129  ILE129      0.0001
     51  N         -7.9230    7.6280    7.4670 N.3   132  ARG132     -0.1231
     52  CA        -7.4100    7.9940    6.1540 C.3   132  ARG132      0.1694
     53  C         -6.7810    6.7840    5.4760 C.2   132  ARG132      0.2592
     54  O         -6.4400    6.8230    4.2950 O.2   132  ARG132     -0.2718
     55  CB        -6.4060    9.1440    6.2630 C.3   132  ARG132      0.0321
     56  CG        -7.0630   10.4810    6.5610 C.3   132  ARG132      0.0489
     57  CD        -6.0730   11.6280    6.5090 C.3   132  ARG132      0.2205
     58  NE        -6.7340   12.9140    6.7170 N.pl3 132  ARG132     -0.0865
     59  CZ        -6.9320   13.4700    7.9080 C.cat 132  ARG132      0.5346
     60  NH1       -6.5180   12.8550    9.0070 N.pl3 132  ARG132      0.1354
     61  NH2       -7.5450   14.6410    8.0030 N.pl3 132  ARG132      0.1354
     62  N         -6.6370    5.7080    6.2410 N.am  133  HIS133     -0.1976
     63  CA        -6.1660    4.4350    5.7140 C.3   133  HIS133      0.1656
     64  C         -6.9990    3.3080    6.3070 C.2   133  HIS133      0.2291
     65  O         -6.5690    2.6330    7.2420 O.2   133  HIS133     -0.2864
     66  CB        -4.6820    4.2270    6.0190 C.3   133  HIS133      0.0771
     67  CG        -3.7940    5.2950    5.4610 C.ar  133  HIS133      0.0820
     68  ND1       -3.7190    5.5730    4.1100 N.ar  133  HIS133     -0.2267
     69  CD2       -2.9390    6.1520    6.0660 C.ar  133  HIS133      0.1154
     70  CE1       -2.8590    6.5540    3.9130 C.ar  133  HIS133      0.1986
     71  NE2       -2.3700    6.9240    5.0820 N.ar  133  HIS133     -0.2212
     72  N         -5.3920   -0.1370    6.9050 N.3   136  PHE136     -0.1241
     73  CA        -4.1060   -0.1700    7.5840 C.3   136  PHE136      0.1605
     74  C         -3.9630   -1.4390    8.4200 C.2   136  PHE136      0.2264
     75  O         -4.8700   -1.8110    9.1620 O.2   136  PHE136     -0.2867
     76  CB        -3.9430    1.0640    8.4720 C.3   136  PHE136      0.0534
     77  CG        -2.5120    1.4650    8.6970 C.ar  136  PHE136     -0.0203
     78  CD1       -1.6860    0.7180    9.5220 C.ar  136  PHE136     -0.0042
     79  CD2       -1.9960    2.5980    8.0890 C.ar  136  PHE136     -0.0042
     80  CE1       -0.3730    1.0920    9.7300 C.ar  136  PHE136     -0.0003
     81  CE2       -0.6860    2.9740    8.2960 C.ar  136  PHE136     -0.0003
     82  CZ         0.1250    2.2220    9.1150 C.ar  136  PHE136     -0.0000
     83  N          5.7190    6.7240   17.8410 N.3   148  TYR148     -0.1241
     84  CA         5.2020    8.0850   17.8220 C.3   148  TYR148      0.1605
     85  C          5.3290    8.6940   19.2150 C.2   148  TYR148      0.2264
     86  O          5.7810    9.8300   19.3760 O.2   148  TYR148     -0.2867
     87  CB         3.7410    8.0770   17.3680 C.3   148  TYR148      0.0534
     88  CG         3.1640    9.4380   17.0420 C.ar  148  TYR148     -0.0201
     89  CD1        3.6010   10.1540   15.9330 C.ar  148  TYR148     -0.0009
     90  CD2        2.1610    9.9950   17.8270 C.ar  148  TYR148     -0.0009
     91  CE1        3.0680   11.3930   15.6260 C.ar  148  TYR148      0.0417
     92  CE2        1.6210   11.2330   17.5280 C.ar  148  TYR148      0.0417
     93  CZ         2.0780   11.9270   16.4260 C.ar  148  TYR148      0.1957
     94  OH         1.5450   13.1600   16.1210 O.3   148  TYR148     -0.2866
     95  N          9.5200   12.4380   12.5710 N.3   169  LEU169     -0.1245
     96  CA         8.1170   12.4250   12.1740 C.3   169  LEU169      0.1561
     97  C          7.9370   12.3100   10.6640 C.2   169  LEU169      0.2260
     98  O          7.0170   11.6440   10.1890 O.2   169  LEU169     -0.2867
     99  CB         7.3970   13.6650   12.7060 C.3   169  LEU169      0.0270
    100  CG         7.1410   13.6750   14.2120 C.3   169  LEU169      0.0019
    101  CD1        6.4530   14.9630   14.6220 C.3   169  LEU169      0.0001
    102  CD2        6.3130   12.4670   14.6110 C.3   169  LEU169      0.0001
    103  N          8.5460    8.8040    9.9320 N.3   172  LEU172     -0.1231
    104  CA         7.4120    7.9730   10.3210 C.3   172  LEU172      0.1693
    105  C          6.2960    8.0660    9.2910 C.2   172  LEU172      0.2591
    106  O          5.6880    7.0610    8.9310 O.2   172  LEU172     -0.2718
    107  CB         6.8900    8.3630   11.7060 C.3   172  LEU172      0.0284
    108  CG         7.5940    7.7300   12.9070 C.3   172  LEU172      0.0019
    109  CD1        6.8630    8.0640   14.1970 C.3   172  LEU172      0.0001
    110  CD2        7.6890    6.2250   12.7280 C.3   172  LEU172      0.0001
    111  N          6.0310    9.2810    8.8220 N.am  173  ARG173     -0.1980
    112  CA         5.0210    9.5020    7.7940 C.3   173  ARG173      0.1597
    113  C          5.2660    8.6000    6.5870 C.2   173  ARG173      0.2287
    114  O          4.3860    7.8460    6.1770 O.2   173  ARG173     -0.2864
    115  CB         5.0100   10.9690    7.3640 C.3   173  ARG173      0.0334
    116  CG         3.9420   11.3030    6.3250 C.3   173  ARG173      0.0492
    117  CD         4.2060   12.7490    5.8200 C.3   173  ARG173      0.2205
    118  NE         5.4500   12.6990    5.0380 N.pl3 173  ARG173     -0.0865
    119  CZ         5.3760   12.7090    3.6920 C.cat 173  ARG173      0.5346
    120  NH1        4.1900   12.8240    3.1380 N.pl3 173  ARG173      0.1354
    121  NH2        6.4790   12.6090    2.9860 N.pl3 173  ARG173      0.1354
    122  N          5.0590    4.9610    7.1740 N.3   176  GLY176     -0.1210
    123  CA         3.6600    4.6630    7.4110 C.3   176  GLY176      0.1956
    124  C          2.8690    4.5150    6.1270 C.2   176  GLY176      0.2611
    125  O          2.0490    3.6100    5.9880 O.2   176  GLY176     -0.2717
    126  N          3.1180    5.4150    5.1840 N.am  177  LYS177     -0.1979
    127  CA         2.4560    5.3740    3.8860 C.3   177  LYS177      0.1596
    128  C          2.8740    4.1390    3.0940 C.2   177  LYS177      0.2287
    129  O          2.0610    3.5390    2.3880 O.2   177  LYS177     -0.2864
    130  CB         2.7600    6.6460    3.0890 C.3   177  LYS177      0.0298
    131  CG         2.2690    7.9250    3.7900 C.3   177  LYS177      0.0038
    132  CD         2.5080    9.1100    2.8760 C.3   177  LYS177      0.0206
    133  CE         1.4360   10.1770    3.0180 C.3   177  LYS177      0.1093
    134  NZ         1.6670   11.2390    1.9980 N.3   177  LYS177     -0.1314
@<TRIPOS>BOND
     1    10     9    1
     2     7     8    1
     3     7     6    1
     4   134   133    1
     5     9     8    2
     6     9    11    1
     7   129   128    2
     8     6     5    1
     9   132   133    1
    10   132   131    1
    11   121   119    1
    12   130   131    1
    13   130   127    1
    14   128   127    1
    15   120   119    1
    16   119   118    2
    17     5     2    1
    18   127   126    1
    19    70    68   ar
    20    70    71   ar
    21    68    67   ar
    22    54    53    2
    23     1     2    1
    24     2     3    1
    25   118   117    1
    26    71    69   ar
    27   126   124   am
    28    67    66    1
    29    67    69   ar
    30    53    52    1
    31    53    62   am
    32    63    66    1
    33    63    62    1
    34    63    64    1
    35   117   116    1
    36   125   124    2
    37   124   123    1
    38    52    55    1
    39    52    51    1
    40   114   113    2
    41     3     4    2
    42     3    12   am
    43    55    56    1
    44    64    65    2
    45   116   115    1
    46    57    56    1
    47    57    58    1
    48   113   112    1
    49    58    59    2
    50    12    13    1
    51    72    73    1
    52   122   123    1
    53   115   112    1
    54    73    74    1
    55    73    76    1
    56   112   111    1
    57    59    61    1
    58    59    60    1
    59    15    14    2
    60    79    81   ar
    61    79    77   ar
    62    13    14    1
    63    13    16    1
    64    81    82   ar
    65    74    75    2
    66    76    77    1
    67    77    78   ar
    68    16    17    1
    69   111   105   am
    70    46    45    2
    71   106   105    2
    72    82    80   ar
    73   105   104    1
    74    78    80   ar
    75   103   104    1
    76    30    28    1
    77    45    44    1
    78    98    97    2
    79    17    19    1
    80    17    18    1
    81   104   107    1
    82    49    47    1
    83    44    47    1
    84    44    43    1
    85    97    96    1
    86    28    27    2
    87    28    29    1
    88    20    21    1
    89    27    26    1
    90    50    48    1
    91    47    48    1
    92    25    26    1
    93    25    24    1
    94   107   108    1
    95    23    22    2
    96    21    24    1
    97    21    22    1
    98    96    95    1
    99    96    99    1
   100    99   100    1
   101   110   108    1
   102   108   109    1
   103    42    41    1
   104    39    41   ar
   105    39    37   ar
   106    41    40   ar
   107   100   102    1
   108   100   101    1
   109    34    33    2
   110    40    38   ar
   111    37    36   ar
   112    33    32    1
   113    91    89   ar
   114    91    93   ar
   115    38    36   ar
   116    36    35    1
   117    89    88   ar
   118    94    93    1
   119    32    35    1
   120    32    31    1
   121    93    92   ar
   122    88    87    1
   123    88    90   ar
   124    87    84    1
   125    92    90   ar
   126    84    83    1
   127    84    85    1
   128    85    86    2
