@<TRIPOS>MOLECULE
tmp/2ydfA01.pdb
 158 148 0 0 0
SMALL
GASTEIGER

@<TRIPOS>ATOM
      1  N         11.6400   -7.9230  -17.6760 N.3   371  PRO371     -0.2116
      2  CA        11.8350   -7.0730  -16.4980 C.3   371  PRO371      0.1372
      3  C         13.2600   -6.5420  -16.4230 C.2   371  PRO371      0.2244
      4  O         13.4590   -5.3540  -16.1860 O.2   371  PRO371     -0.2868
      5  CB        11.5860   -8.0300  -15.3300 C.3   371  PRO371      0.0268
      6  CG        10.7640   -9.1230  -15.8950 C.3   371  PRO371      0.0207
      7  CD        11.2230   -9.2840  -17.3070 C.3   371  PRO371      0.0892
      8  N         13.8700   -3.6400  -19.0240 N.3   374  LEU374     -0.1231
      9  CA        13.1180   -2.4540  -18.6440 C.3   374  LEU374      0.1693
     10  C         13.7280   -1.7980  -17.4120 C.2   374  LEU374      0.2591
     11  O         13.8740   -0.5780  -17.3630 O.2   374  LEU374     -0.2718
     12  CB        11.6530   -2.7990  -18.4010 C.3   374  LEU374      0.0284
     13  CG        10.8810   -3.1550  -19.6680 C.3   374  LEU374      0.0019
     14  CD1        9.4580   -3.5640  -19.3310 C.3   374  LEU374      0.0001
     15  CD2       10.8980   -1.9800  -20.6280 C.3   374  LEU374      0.0001
     16  N         14.0850   -2.6100  -16.4210 N.am  375  ILE375     -0.1980
     17  CA        14.7750   -2.1010  -15.2410 C.3   375  ILE375      0.1595
     18  C         16.0400   -1.3670  -15.6570 C.2   375  ILE375      0.2287
     19  O         16.2170   -0.1870  -15.3590 O.2   375  ILE375     -0.2864
     20  CB        15.1760   -3.2330  -14.2790 C.3   375  ILE375      0.0276
     21  CG1       13.9370   -3.8990  -13.6860 C.3   375  ILE375      0.0022
     22  CG2       16.0610   -2.6930  -13.1740 C.3   375  ILE375      0.0022
     23  CD1       13.0470   -2.9530  -12.9440 C.3   375  ILE375      0.0001
     24  N         15.2480    1.9740  -17.5550 N.3   378  ASN378     -0.1225
     25  CA        14.6820    3.0270  -16.7230 C.3   378  ASN378      0.1785
     26  C         15.6010    3.5340  -15.6070 C.2   378  ASN378      0.2597
     27  O         15.4560    4.6650  -15.1410 O.2   378  ASN378     -0.2718
     28  CB        13.3290    2.5920  -16.1580 C.3   378  ASN378      0.1169
     29  CG        12.2700    2.4540  -17.2370 C.2   378  ASN378      0.2627
     30  OD1       12.2000    1.4370  -17.9320 O.2   378  ASN378     -0.2716
     31  ND2       11.4450    3.4850  -17.3910 N.am  378  ASN378     -0.0877
     32  N         16.5480    2.7060  -15.1830 N.am  379  CYS379     -0.1970
     33  CA        17.5230    3.1400  -14.1900 C.3   379  CYS379      0.1712
     34  C         18.5260    4.1080  -14.8050 C.2   379  CYS379      0.2296
     35  O         18.7770    5.1800  -14.2560 O.2   379  CYS379     -0.2864
     36  CB        18.2450    1.9460  -13.5540 C.3   379  CYS379      0.0983
     37  SG        17.4460    1.3190  -12.0630 S.3   379  CYS379     -0.0798
     38  N         12.5540   12.8410  -14.0930 N.3   390  PHE390     -0.1241
     39  CA        12.1160   11.4690  -14.3140 C.3   390  PHE390      0.1605
     40  C         10.6210   11.3150  -14.0450 C.2   390  PHE390      0.2264
     41  O          9.9200   10.6290  -14.7890 O.2   390  PHE390     -0.2867
     42  CB        12.9190   10.5070  -13.4360 C.3   390  PHE390      0.0534
     43  CG        12.5770    9.0610  -13.6490 C.ar  390  PHE390     -0.0203
     44  CD1       12.8400    8.4460  -14.8620 C.ar  390  PHE390     -0.0042
     45  CD2       12.0100    8.3120  -12.6300 C.ar  390  PHE390     -0.0042
     46  CE1       12.5320    7.1150  -15.0640 C.ar  390  PHE390     -0.0003
     47  CE2       11.7000    6.9790  -12.8230 C.ar  390  PHE390     -0.0003
     48  CZ        11.9620    6.3790  -14.0450 C.ar  390  PHE390     -0.0000
     49  N          7.3970   10.1440  -16.7150 N.3   394  LEU394     -0.1245
     50  CA         6.3290    9.2110  -16.3760 C.3   394  LEU394      0.1561
     51  C          4.9590    9.8840  -16.4190 C.2   394  LEU394      0.2260
     52  O          3.9870    9.2820  -16.8690 O.2   394  LEU394     -0.2867
     53  CB         6.5720    8.5750  -15.0040 C.3   394  LEU394      0.0270
     54  CG         7.8910    7.8110  -14.8690 C.3   394  LEU394      0.0019
     55  CD1        8.0060    7.1710  -13.4950 C.3   394  LEU394      0.0001
     56  CD2        8.0090    6.7660  -15.9580 C.3   394  LEU394      0.0001
     57  N          4.0480   10.0540  -20.0430 N.3   397  ARG397     -0.1231
     58  CA         3.8360    8.7060  -20.5560 C.3   397  ARG397      0.1694
     59  C          2.5040    8.1220  -20.1150 C.2   397  ARG397      0.2592
     60  O          1.7080    7.6800  -20.9420 O.2   397  ARG397     -0.2718
     61  CB         4.9720    7.7810  -20.1270 C.3   397  ARG397      0.0321
     62  CG         5.9100    7.4010  -21.2500 C.3   397  ARG397      0.0489
     63  CD         7.1510    6.7240  -20.7170 C.3   397  ARG397      0.2205
     64  NE         6.8580    5.4940  -19.9890 N.pl3 397  ARG397     -0.0865
     65  CZ         7.7360    4.8570  -19.2220 C.cat 397  ARG397      0.5346
     66  NH1        8.9630    5.3360  -19.0710 N.pl3 397  ARG397      0.1354
     67  NH2        7.3870    3.7420  -18.5990 N.pl3 397  ARG397      0.1354
     68  N          2.2620    8.1170  -18.8110 N.am  398  TYR398     -0.1976
     69  CA         1.0530    7.5000  -18.2850 C.3   398  TYR398      0.1639
     70  C         -0.2030    8.3040  -18.5950 C.2   398  TYR398      0.2290
     71  O         -1.2840    7.7400  -18.7270 O.2   398  TYR398     -0.2864
     72  CB         1.1880    7.2060  -16.7920 C.3   398  TYR398      0.0560
     73  CG         1.7980    5.8500  -16.5230 C.ar  398  TYR398     -0.0198
     74  CD1        3.1570    5.6320  -16.6950 C.ar  398  TYR398     -0.0009
     75  CD2        1.0130    4.7830  -16.1140 C.ar  398  TYR398     -0.0009
     76  CE1        3.7180    4.3910  -16.4610 C.ar  398  TYR398      0.0417
     77  CE2        1.5650    3.5390  -15.8750 C.ar  398  TYR398      0.0417
     78  CZ         2.9180    3.3460  -16.0510 C.ar  398  TYR398      0.1957
     79  OH         3.4700    2.1060  -15.8150 O.3   398  TYR398     -0.2866
     80  N         -1.0780    7.0520  -21.9300 N.3   401  LYS401     -0.1245
     81  CA        -1.6670    5.7230  -21.8140 C.3   401  LYS401      0.1561
     82  C         -3.1570    5.7980  -21.4970 C.2   401  LYS401      0.2260
     83  O         -3.9820    5.2270  -22.2050 O.2   401  LYS401     -0.2867
     84  CB        -0.9710    4.9250  -20.7100 C.3   401  LYS401      0.0271
     85  CG         0.3620    4.3030  -21.0820 C.3   401  LYS401      0.0035
     86  CD         1.1350    3.9310  -19.8240 C.3   401  LYS401      0.0206
     87  CE         2.1500    2.8280  -20.0850 C.3   401  LYS401      0.1093
     88  NZ         3.1330    3.1910  -21.1490 N.3   401  LYS401     -0.1314
     89  N          5.4380    6.2710   -8.8480 N.3   417  LEU417     -0.1245
     90  CA         6.1300    5.4060   -9.7950 C.3   417  LEU417      0.1561
     91  C          7.5750    5.8600   -9.9810 C.2   417  LEU417      0.2260
     92  O          8.4590    5.0490  -10.2550 O.2   417  LEU417     -0.2867
     93  CB         5.4160    5.3950  -11.1490 C.3   417  LEU417      0.0270
     94  CG         4.8150    4.0690  -11.6240 C.3   417  LEU417      0.0019
     95  CD1        3.6010    3.6980  -10.8030 C.3   417  LEU417      0.0001
     96  CD2        4.4390    4.1520  -13.0910 C.3   417  LEU417      0.0001
     97  N         10.5460    4.8920   -7.4290 N.3   420  VAL420     -0.1231
     98  CA        11.1650    3.5820   -7.5970 C.3   420  VAL420      0.1692
     99  C         12.6170    3.7570   -8.0180 C.2   420  VAL420      0.2592
    100  O         13.4790    2.9510   -7.6690 O.2   420  VAL420     -0.2718
    101  CB        10.4250    2.7140   -8.6440 C.3   420  VAL420      0.0266
    102  CG1       10.6590    3.2500  -10.0440 C.3   420  VAL420      0.0020
    103  CG2       10.8900    1.2680   -8.5550 C.3   420  VAL420      0.0020
    104  N         12.8810    4.8250   -8.7650 N.am  421  GLY421     -0.1957
    105  CA        14.2220    5.1330   -9.2230 C.3   421  GLY421      0.1869
    106  C         15.2030    5.2800   -8.0790 C.2   421  GLY421      0.2309
    107  O         16.2700    4.6710   -8.0840 O.2   421  GLY421     -0.2863
    108  N         15.3750    1.8400   -5.7840 N.3   424  CYS424     -0.1221
    109  CA        15.9070    0.5900   -6.3150 C.3   424  CYS424      0.1808
    110  C         17.1650    0.7180   -7.1720 C.2   424  CYS424      0.2601
    111  O         18.0750   -0.1080   -7.0690 O.2   424  CYS424     -0.2717
    112  CB        14.8200   -0.1420   -7.1040 C.3   424  CYS424      0.0970
    113  SG        13.2630   -0.3020   -6.2160 S.3   424  CYS424     -0.0800
    114  N         17.2160    1.7380   -8.0200 N.am  425  CYS425     -0.1970
    115  CA        18.3120    1.8590   -8.9740 C.3   425  CYS425      0.1712
    116  C         19.6950    1.8980   -8.3160 C.2   425  CYS425      0.2296
    117  O         20.7050    1.6350   -8.9700 O.2   425  CYS425     -0.2864
    118  CB        18.1010    3.0700   -9.8840 C.3   425  CYS425      0.0983
    119  SG        16.7030    2.8940  -11.0200 S.3   425  CYS425     -0.0798
    120  N         12.2840   -3.2930   -7.4690 N.3   436  ALA436     -0.1231
    121  CA        11.5920   -2.5080   -8.4840 C.3   436  ALA436      0.1694
    122  C         10.1920   -3.0240   -8.7970 C.2   436  ALA436      0.2591
    123  O          9.1990   -2.3360   -8.5560 O.2   436  ALA436     -0.2718
    124  CB        12.4250   -2.4360   -9.7550 C.3   436  ALA436      0.0304
    125  N         10.1170   -4.2320   -9.3440 N.am  437  GLU437     -0.1979
    126  CA         8.8510   -4.7410   -9.8660 C.3   437  GLU437      0.1602
    127  C          7.7940   -4.9610   -8.7890 C.2   437  GLU437      0.2287
    128  O          6.6070   -4.7830   -9.0410 O.2   437  GLU437     -0.2864
    129  CB         9.0520   -6.0120  -10.6980 C.3   437  GLU437      0.0415
    130  CG         7.9580   -6.2190  -11.7380 C.3   437  GLU437      0.1163
    131  CD         8.2270   -7.3990  -12.6440 C.2   437  GLU437      0.3649
    132  OE1        9.1330   -8.2000  -12.3310 O.co2 437  GLU437     -0.2457
    133  OE2        7.5360   -7.5240  -13.6740 O.co2 437  GLU437     -0.2457
    134  N          6.3640   -1.6430   -7.7660 N.3   440  LEU440     -0.1245
    135  CA         5.4580   -1.1570   -8.7960 C.3   440  LEU440      0.1561
    136  C          4.1050   -1.8550   -8.6970 C.2   440  LEU440      0.2260
    137  O          3.0760   -1.2970   -9.0790 O.2   440  LEU440     -0.2867
    138  CB         6.0700   -1.3610  -10.1840 C.3   440  LEU440      0.0270
    139  CG         7.2680   -0.4760  -10.5370 C.3   440  LEU440      0.0019
    140  CD1        7.9490   -0.9390  -11.8220 C.3   440  LEU440      0.0001
    141  CD2        6.8370    0.9790  -10.6490 C.3   440  LEU440      0.0001
    142  N          1.5800   -5.1080  -14.2120 N.3   472  ARG472     -0.1245
    143  CA         2.6760   -4.2560  -14.6660 C.3   472  ARG472      0.1563
    144  C          2.9730   -4.4060  -16.1630 C.2   472  ARG472      0.2260
    145  O          3.0530   -3.4090  -16.8800 O.2   472  ARG472     -0.2867
    146  CB         3.9270   -4.4930  -13.8110 C.3   472  ARG472      0.0307
    147  CG         4.9670   -3.3850  -13.8990 C.3   472  ARG472      0.0489
    148  CD         5.7890   -3.5070  -15.1580 C.3   472  ARG472      0.2205
    149  NE         6.3980   -4.8290  -15.2600 N.pl3 472  ARG472     -0.0865
    150  CZ         6.9950   -5.2930  -16.3520 C.cat 472  ARG472      0.5346
    151  NH1        7.0630   -4.5430  -17.4440 N.pl3 472  ARG472      0.1354
    152  NH2        7.5190   -6.5110  -16.3530 N.pl3 472  ARG472      0.1354
    153  N          2.6980   -1.5540  -19.1110 N.3   476  SER476     -0.1217
    154  CA         3.8440   -1.2150  -19.9550 C.3   476  SER476      0.1889
    155  C          3.5010   -1.3380  -21.4340 C.2   476  SER476      0.2288
    156  O          4.0020   -0.5780  -22.2630 O.2   476  SER476     -0.2866
    157  CB         5.0410   -2.1100  -19.6310 C.3   476  SER476      0.2089
    158  OG         5.5200   -1.8740  -18.3200 O.3   476  SER476     -0.2183
@<TRIPOS>BOND
     1   156   155    2
     2    83    82    2
     3    80    81    1
     4    81    82    1
     5    81    84    1
     6   155   154    1
     7    62    63    1
     8    62    61    1
     9    88    87    1
    10    85    84    1
    11    85    86    1
    12    60    59    2
    13    63    64    1
    14    15    13    1
    15    58    61    1
    16    58    59    1
    17    58    57    1
    18    59    68   am
    19    87    86    1
    20    64    65    2
    21   154   157    1
    22   154   153    1
    23    13    14    1
    24    13    12    1
    25   157   158    1
    26    65    66    1
    27    65    67    1
    28     8     9    1
    29    68    69    1
    30    71    70    2
    31     9    12    1
    32     9    10    1
    33    70    69    1
    34    69    72    1
    35    30    29    2
    36     1     7    1
    37     1     2    1
    38    24    25    1
    39   151   150    1
    40    10    11    2
    41    10    16   am
    42    31    29   am
    43     7     6    1
    44    29    28    1
    45   145   144    2
    46    52    51    2
    47    72    73    1
    48    25    28    1
    49    25    26    1
    50    49    50    1
    51    74    73   ar
    52    74    76   ar
    53    73    75   ar
    54     2     3    1
    55     2     5    1
    56    76    78   ar
    57     3     4    2
    58    16    17    1
    59    51    50    1
    60    50    53    1
    61   152   150    1
    62   150   149    2
    63   144   143    1
    64    75    77   ar
    65    78    77   ar
    66    78    79    1
    67    56    54    1
    68     6     5    1
    69    18    19    2
    70    18    17    1
    71    26    32   am
    72    26    27    2
    73   149   148    1
    74    17    20    1
    75    32    33    1
    76   148   147    1
    77    46    44   ar
    78    46    48   ar
    79    53    54    1
    80    54    55    1
    81    44    43   ar
    82    34    35    2
    83    34    33    1
    84    41    40    2
    85   143   142    1
    86   143   146    1
    87    39    38    1
    88    39    40    1
    89    39    42    1
    90    20    21    1
    91    20    22    1
    92    33    36    1
    93    48    47   ar
    94   147   146    1
    95    21    23    1
    96   133   131   ar
    97    43    42    1
    98    43    45   ar
    99    36    37    1
   100    96    94    1
   101    47    45   ar
   102   131   132   ar
   103   131   130    1
   104    37   119    1
   105   140   139    1
   106   130   129    1
   107    94    93    1
   108    94    95    1
   109    93    90    1
   110   119   118    1
   111   129   126    1
   112   141   139    1
   113   139   138    1
   114    92    91    2
   115   138   135    1
   116   102   101    1
   117    91    90    1
   118   118   115    1
   119   126   125    1
   120   126   127    1
   121    90    89    1
   122   124   121    1
   123   125   122   am
   124   105   104    1
   125   105   106    1
   126   137   136    2
   127   128   127    2
   128   115   116    1
   129   115   114    1
   130   117   116    2
   131   122   123    2
   132   122   121    1
   133   135   136    1
   134   135   134    1
   135   104    99   am
   136   101   103    1
   137   101    98    1
   138   121   120    1
   139   107   106    2
   140   114   110   am
   141    99   100    2
   142    99    98    1
   143    98    97    1
   144   110   111    2
   145   110   109    1
   146   112   109    1
   147   112   113    1
   148   109   108    1
