@<TRIPOS>MOLECULE
tmp/2ydgA00.pdb
 80 80 0 0 0
SMALL
GASTEIGER

@<TRIPOS>ATOM
      1  N         -4.1330  -14.8310   10.3550 N.3    64  CYS64      -0.1221
      2  CA        -4.3050  -13.4030   10.0780 C.3    64  CYS64       0.1808
      3  C         -5.6310  -12.8840   10.6230 C.2    64  CYS64       0.2601
      4  O         -6.5350  -13.6730   10.9110 O.2    64  CYS64      -0.2717
      5  CB        -4.1910  -13.1270    8.5730 C.3    64  CYS64       0.0970
      6  SG        -5.4570  -13.9440    7.5660 S.3    64  CYS64      -0.0800
      7  N         -5.7400  -11.5640   10.7740 N.am   65  ASN65      -0.1960
      8  CA        -6.9690  -10.9300   11.2560 C.3    65  ASN65       0.1819
      9  C         -7.7580  -10.3160   10.1000 C.2    65  ASN65       0.2621
     10  O         -7.2430   -9.4570    9.3880 O.2    65  ASN65      -0.2715
     11  CB        -6.6450   -9.8580   12.3110 C.3    65  ASN65       0.1195
     12  CG        -7.8720   -9.4130   13.1070 C.2    65  ASN65       0.2630
     13  OD1       -9.0090   -9.4720   12.6270 O.2    65  ASN65      -0.2716
     14  ND2       -7.6400   -8.9660   14.3420 N.am   65  ASN65      -0.0877
     15  N         -8.9950  -10.7690    9.9080 N.am   66  ASP66      -0.1957
     16  CA        -9.8620  -10.1970    8.8750 C.3    66  ASP66       0.1840
     17  C        -11.0500   -9.4160    9.4450 C.2    66  ASP66       0.2623
     18  O        -11.9440   -9.0020    8.7040 O.2    66  ASP66      -0.2715
     19  CB       -10.3340  -11.2650    7.8770 C.3    66  ASP66       0.1450
     20  CG       -11.1880  -12.3550    8.5130 C.2    66  ASP66       0.3671
     21  OD1      -11.5640  -12.2520    9.7030 O.co2  66  ASP66      -0.2456
     22  OD2      -11.4880  -13.3340    7.8000 O.co2  66  ASP66      -0.2456
     23  N        -11.0540   -9.2360   10.7620 N.am   67  GLY67      -0.1940
     24  CA       -12.1060   -8.4880   11.4500 C.3    67  GLY67       0.2014
     25  C        -13.4550   -9.1820   11.5200 C.2    67  GLY67       0.2639
     26  O        -14.4460   -8.5680   11.9230 O.2    67  GLY67      -0.2714
     27  N        -13.5010  -10.4580   11.1330 N.am   68  ARG68      -0.1963
     28  CA       -14.7620  -11.2020   11.0880 C.3    68  ARG68       0.1729
     29  C        -14.6380  -12.7020   11.3790 C.2    68  ARG68       0.2617
     30  O        -15.4980  -13.4870   10.9750 O.2    68  ARG68      -0.2715
     31  CB       -15.4770  -10.9780    9.7500 C.3    68  ARG68       0.0348
     32  CG       -14.8140  -11.6310    8.5490 C.3    68  ARG68       0.0492
     33  CD       -15.8200  -11.7780    7.4320 C.3    68  ARG68       0.2205
     34  NE       -15.4080  -12.7570    6.4330 N.pl3  68  ARG68      -0.0865
     35  CZ       -15.8710  -12.7790    5.1870 C.cat  68  ARG68       0.5346
     36  NH1      -16.7540  -11.8670    4.7940 N.pl3  68  ARG68       0.1354
     37  NH2      -15.4490  -13.7010    4.3290 N.pl3  68  ARG68       0.1354
     38  N        -13.5790  -13.0980   12.0780 N.am   69  THR69      -0.1937
     39  CA       -13.4220  -14.4950   12.4870 C.3    69  THR69       0.2013
     40  C        -13.3580  -14.5950   14.0170 C.2    69  THR69       0.2484
     41  O        -12.2710  -14.6230   14.5930 O.2    69  THR69      -0.2729
     42  CB       -12.1900  -15.1630   11.8190 C.3    69  THR69       0.1807
     43  OG1      -12.1780  -14.8560   10.4170 O.3    69  THR69      -0.2208
     44  CG2      -12.2340  -16.6830   11.9960 C.3    69  THR69       0.0379
     45  N        -14.5330  -14.6380   14.6780 N.am   70  PRO70      -0.2715
     46  CA       -14.6130  -14.6770   16.1400 C.3    70  PRO70       0.1536
     47  C        -13.7860  -15.8010   16.7600 C.2    70  PRO70       0.2599
     48  O        -13.8200  -16.9350   16.2760 O.2    70  PRO70      -0.2715
     49  CB       -16.1020  -14.9300   16.3970 C.3    70  PRO70       0.0310
     50  CG       -16.7830  -14.3680   15.2120 C.3    70  PRO70       0.0237
     51  CD       -15.8730  -14.6800   14.0640 C.3    70  PRO70       0.0939
     52  N        -13.0480  -15.4710   17.8190 N.am   71  GLY71      -0.1941
     53  CA       -12.3080  -16.4590   18.6060 C.3    71  GLY71       0.2014
     54  C        -11.1680  -17.1290   17.8630 C.2    71  GLY71       0.2640
     55  O        -10.8660  -18.3000   18.0960 O.2    71  GLY71      -0.2714
     56  N        -10.5350  -16.3810   16.9670 N.am   72  SER72      -0.1935
     57  CA        -9.4430  -16.9070   16.1660 C.3    72  SER72       0.2055
     58  C         -8.1330  -16.1990   16.5080 C.2    72  SER72       0.2643
     59  O         -8.1300  -15.2030   17.2360 O.2    72  SER72      -0.2714
     60  CB        -9.7690  -16.7560   14.6840 C.3    72  SER72       0.2130
     61  OG        -9.7620  -15.3930   14.2980 O.3    72  SER72      -0.2179
     62  N         -7.0260  -16.7170   15.9810 N.am   73  ARG73      -0.1963
     63  CA        -5.7110  -16.1460   16.2570 C.3    73  ARG73       0.1729
     64  C         -5.1670  -15.3560   15.0660 C.2    73  ARG73       0.2616
     65  O         -5.6880  -15.4520   13.9490 O.2    73  ARG73      -0.2715
     66  CB        -4.7210  -17.2440   16.6720 C.3    73  ARG73       0.0348
     67  CG        -5.1110  -18.0430   17.9230 C.3    73  ARG73       0.0492
     68  CD        -5.2890  -17.1620   19.1680 C.3    73  ARG73       0.2205
     69  NE        -4.1070  -16.3500   19.4630 N.pl3  73  ARG73      -0.0865
     70  CZ        -3.1170  -16.7170   20.2750 C.cat  73  ARG73       0.5346
     71  NH1       -3.1490  -17.8950   20.8900 N.pl3  73  ARG73       0.1354
     72  NH2       -2.0870  -15.9040   20.4720 N.pl3  73  ARG73       0.1354
     73  N         -4.1320  -14.5620   15.3220 N.am   74  ASN74      -0.1972
     74  CA        -3.4410  -13.7970   14.2940 C.3    74  ASN74       0.1688
     75  C         -1.9380  -14.0450   14.4260 C.2    74  ASN74       0.2292
     76  O         -1.1590  -13.1350   14.7220 O.2    74  ASN74      -0.2864
     77  CB        -3.7910  -12.3050   14.4190 C.3    74  ASN74       0.1181
     78  CG        -3.1520  -11.4440   13.3310 C.2    74  ASN74       0.2629
     79  OD1       -2.5700  -11.9480   12.3690 O.2    74  ASN74      -0.2716
     80  ND2       -3.2630  -10.1300   13.4860 N.am   74  ASN74      -0.0877
@<TRIPOS>BOND
     1    37    35    1
     2    36    35    1
     3    35    34    2
     4    34    33    1
     5    33    32    1
     6     6     5    1
     7    22    20   ar
     8    19    20    1
     9    19    16    1
    10    20    21   ar
    11    32    31    1
    12     5     2    1
    13    18    17    2
    14    16    17    1
    15    16    15    1
    16    10     9    2
    17    17    23   am
    18    31    28    1
    19    15     9   am
    20     2     1    1
    21     2     3    1
    22     9     8    1
    23    43    42    1
    24     3     7   am
    25     3     4    2
    26    23    24    1
    27     7     8    1
    28    30    29    2
    29    28    27    1
    30    28    29    1
    31    27    25   am
    32     8    11    1
    33    29    38   am
    34    24    25    1
    35    25    26    2
    36    42    44    1
    37    42    39    1
    38    38    39    1
    39    11    12    1
    40    79    78    2
    41    39    40    1
    42    13    12    2
    43    12    14   am
    44    78    80   am
    45    78    77    1
    46    65    64    2
    47    40    41    2
    48    40    45   am
    49    51    45    1
    50    51    50    1
    51    74    77    1
    52    74    75    1
    53    74    73    1
    54    61    60    1
    55    75    76    2
    56    45    46    1
    57    60    57    1
    58    64    73   am
    59    64    63    1
    60    50    49    1
    61    62    63    1
    62    62    58   am
    63    46    49    1
    64    46    47    1
    65    57    58    1
    66    57    56    1
    67    63    66    1
    68    48    47    2
    69    58    59    2
    70    66    67    1
    71    47    52   am
    72    56    54   am
    73    52    53    1
    74    54    55    2
    75    54    53    1
    76    67    68    1
    77    68    69    1
    78    69    70    2
    79    70    72    1
    80    70    71    1
