@<TRIPOS>MOLECULE
tmp/2ydiA00.pdb
 152 143 0 0 0
SMALL
GASTEIGER

@<TRIPOS>ATOM
      1  N          2.4490   -8.9520   29.1210 N.3    12  GLN12      -0.1245
      2  CA         1.5100   -9.3540   28.0670 C.3    12  GLN12       0.1566
      3  C          2.2340   -9.6630   26.7540 C.2    12  GLN12       0.2260
      4  O          3.1390   -8.9330   26.3450 O.2    12  GLN12      -0.2867
      5  CB         0.4830   -8.2390   27.8340 C.3    12  GLN12       0.0367
      6  CG        -0.5650   -8.5600   26.7710 C.3    12  GLN12       0.0905
      7  CD        -1.4790   -7.3910   26.4490 C.2    12  GLN12       0.2608
      8  OE1       -2.2290   -7.4380   25.4650 O.2    12  GLN12      -0.2717
      9  NE2       -1.4250   -6.3340   27.2630 N.am   12  GLN12      -0.0878
     10  N          2.4570   -9.3450   23.0220 N.3    14  LEU14      -0.1231
     11  CA         1.9440   -8.4040   22.0180 C.3    14  LEU14       0.1693
     12  C          1.8850   -9.0100   20.6230 C.2    14  LEU14       0.2592
     13  O          1.0210   -8.6490   19.8190 O.2    14  LEU14      -0.2718
     14  CB         2.8060   -7.1420   21.9800 C.3    14  LEU14       0.0284
     15  CG         2.6910   -6.2830   23.2360 C.3    14  LEU14       0.0019
     16  CD1        3.7080   -5.1560   23.1970 C.3    14  LEU14       0.0001
     17  CD2        1.2580   -5.7580   23.4010 C.3    14  LEU14       0.0001
     18  N          2.8180   -9.9090   20.3410 N.am   15  GLY15      -0.1957
     19  CA         2.8720  -10.5970   19.0590 C.3    15  GLY15       0.1869
     20  C          3.7770  -11.8050   19.1480 C.2    15  GLY15       0.2309
     21  O          4.6470  -11.8770   20.0190 O.2    15  GLY15      -0.2863
     22  N         10.2770  -15.5930   14.2620 N.3    19  TYR19      -0.1241
     23  CA        11.3540  -14.7560   14.8110 C.3    19  TYR19       0.1605
     24  C         11.4870  -14.8470   16.3360 C.2    19  TYR19       0.2264
     25  O         12.5920  -14.7140   16.8680 O.2    19  TYR19      -0.2867
     26  CB        11.1380  -13.2880   14.4200 C.3    19  TYR19       0.0534
     27  CG         9.8030  -12.7030   14.8040 C.ar   19  TYR19      -0.0201
     28  CD1        9.6120  -12.1450   16.0690 C.ar   19  TYR19      -0.0009
     29  CD2        8.7330  -12.6780   13.9150 C.ar   19  TYR19      -0.0009
     30  CE1        8.3940  -11.6020   16.4400 C.ar   19  TYR19       0.0417
     31  CE2        7.5120  -12.1340   14.2690 C.ar   19  TYR19       0.0417
     32  CZ         7.3560  -11.5960   15.5300 C.ar   19  TYR19       0.1957
     33  OH         6.1400  -11.0650   15.9050 O.3    19  TYR19      -0.2866
     34  N          7.1310  -10.6450   20.9630 N.3    22  VAL22      -0.1245
     35  CA         7.1800   -9.2700   21.4400 C.3    22  VAL22       0.1561
     36  C          6.3450   -9.2300   22.7100 C.2    22  VAL22       0.2260
     37  O          5.1900   -9.6460   22.6990 O.2    22  VAL22      -0.2867
     38  CB         6.6180   -8.2840   20.4010 C.3    22  VAL22       0.0252
     39  CG1        6.7040   -6.8490   20.9200 C.3    22  VAL22       0.0019
     40  CG2        7.3620   -8.4300   19.0870 C.3    22  VAL22       0.0019
     41  N          7.9660   -1.9200   24.4930 N.3    35  ALA35      -0.1245
     42  CA         7.8770   -3.2350   23.8750 C.3    35  ALA35       0.1562
     43  C          9.2570   -3.8790   23.8890 C.2    35  ALA35       0.2260
     44  O         10.2720   -3.2060   23.6980 O.2    35  ALA35      -0.2867
     45  CB         7.3480   -3.1070   22.4370 C.3    35  ALA35       0.0290
     46  N          9.2210    3.2880   14.6690 N.3    67  VAL67      -0.1245
     47  CA         9.3430    2.7480   16.0320 C.3    67  VAL67       0.1561
     48  C         10.7560    3.0180   16.5690 C.2    67  VAL67       0.2260
     49  O         11.7260    2.5870   15.9660 O.2    67  VAL67      -0.2867
     50  CB         9.0460    1.2390   16.0510 C.3    67  VAL67       0.0252
     51  CG1        9.4270    0.6250   17.4070 C.3    67  VAL67       0.0019
     52  CG2        7.5680    0.9680   15.7130 C.3    67  VAL67       0.0019
     53  N         12.0280   -1.3490   22.6360 N.3    83  LEU83      -0.1231
     54  CA        11.4010   -0.6030   21.5420 C.3    83  LEU83       0.1693
     55  C         10.2500    0.2590   22.0430 C.2    83  LEU83       0.2592
     56  O          9.6060   -0.0570   23.0460 O.2    83  LEU83      -0.2718
     57  CB        10.8600   -1.5960   20.4910 C.3    83  LEU83       0.0284
     58  CG        11.8650   -2.5420   19.8110 C.3    83  LEU83       0.0019
     59  CD1       11.1780   -3.7810   19.1860 C.3    83  LEU83       0.0001
     60  CD2       12.6970   -1.7900   18.7710 C.3    83  LEU83       0.0001
     61  N          9.9750    1.3360   21.3120 N.am   84  GLU84      -0.1966
     62  CA         8.8250    2.1980   21.5770 C.3    84  GLU84       0.1733
     63  C          7.5220    1.3980   21.5100 C.2    84  GLU84       0.2616
     64  O          7.2450    0.7460   20.4980 O.2    84  GLU84      -0.2715
     65  CB         8.8070    3.3340   20.5580 C.3    84  GLU84       0.0429
     66  CG         7.6420    4.2910   20.6650 C.3    84  GLU84       0.1163
     67  CD         7.6130    5.3040   19.5230 C.2    84  GLU84       0.3649
     68  OE1        8.4400    5.1860   18.6000 O.co2  84  GLU84      -0.2457
     69  OE2        6.7670    6.2240   19.5520 O.co2  84  GLU84      -0.2457
     70  N          6.7330    1.4440   22.5820 N.am   85  TYR85      -0.1960
     71  CA         5.4520    0.7390   22.6340 C.3    85  TYR85       0.1771
     72  C          4.3470    1.5300   21.9340 C.2    85  TYR85       0.2620
     73  O          4.1740    2.7200   22.1980 O.2    85  TYR85      -0.2715
     74  CB         5.0480    0.4760   24.0870 C.3    85  TYR85       0.0574
     75  CG         3.6850   -0.1480   24.2490 C.ar   85  TYR85      -0.0198
     76  CD1        3.3400   -1.3040   23.5530 C.ar   85  TYR85      -0.0009
     77  CD2        2.7370    0.4010   25.1220 C.ar   85  TYR85      -0.0009
     78  CE1        2.0850   -1.8870   23.7040 C.ar   85  TYR85       0.0417
     79  CE2        1.4870   -0.1760   25.2760 C.ar   85  TYR85       0.0417
     80  CZ         1.1690   -1.3240   24.5640 C.ar   85  TYR85       0.1957
     81  OH        -0.0700   -1.9030   24.7040 O.3    85  TYR85      -0.2866
     82  N          3.6010    0.8400   21.0660 N.am   86  CYS86      -0.1954
     83  CA         2.5260    1.4380   20.2750 C.3    86  CYS86       0.1843
     84  C          1.2040    0.8110   20.6810 C.2    86  CYS86       0.2626
     85  O          0.8140   -0.2600   20.1920 O.2    86  CYS86      -0.2714
     86  CB         2.8160    1.2650   18.7700 C.3    86  CYS86       0.0997
     87  SG         4.4180    1.8890   18.2490 S.3    86  CYS86      -0.0797
     88  N          0.5080    1.4880   21.5950 N.am   87  SER87      -0.1936
     89  CA        -0.6400    0.9030   22.2890 C.3    87  SER87       0.2055
     90  C         -1.9050    0.7900   21.4370 C.2    87  SER87       0.2644
     91  O         -2.8340    0.0640   21.8110 O.2    87  SER87      -0.2714
     92  CB        -0.9190    1.6840   23.5810 C.3    87  SER87       0.2130
     93  OG        -1.3860    2.9950   23.3050 O.3    87  SER87      -0.2179
     94  N         -1.9280    1.4760   20.2870 N.am   88  GLY88      -0.1939
     95  CA        -3.0200    1.3430   19.3150 C.3    88  GLY88       0.2014
     96  C         -2.9720    0.0950   18.4440 C.2    88  GLY88       0.2639
     97  O         -3.9320   -0.1960   17.7230 O.2    88  GLY88      -0.2714
     98  N         -1.8770   -0.6650   18.5080 N.am   89  GLY89      -0.1939
     99  CA        -1.7880   -1.9440   17.8090 C.3    89  GLY89       0.2014
    100  C         -1.4970   -1.7750   16.3240 C.2    89  GLY89       0.2638
    101  O         -0.9570   -0.7560   15.9220 O.2    89  GLY89      -0.2714
    102  N         -1.8350   -2.7900   15.5330 N.am   90  GLU90      -0.1977
    103  CA        -1.5480   -2.8160   14.0890 C.3    90  GLU90       0.1602
    104  C         -2.5910   -2.0500   13.2910 C.2    90  GLU90       0.2287
    105  O         -3.7860   -2.1350   13.5540 O.2    90  GLU90      -0.2864
    106  CB        -1.5300   -4.2510   13.5510 C.3    90  GLU90       0.0415
    107  CG        -0.4590   -5.1750   14.1250 C.3    90  GLU90       0.1163
    108  CD        -0.5640   -6.5830   13.5470 C.2    90  GLU90       0.3649
    109  OE1       -1.3450   -6.8100   12.5860 O.co2  90  GLU90      -0.2457
    110  OE2        0.1190   -7.4870   14.0740 O.co2  90  GLU90      -0.2457
    111  N         -5.6520   -3.9830   11.9560 N.3    93  ASP93      -0.1225
    112  CA        -6.9030   -4.1510   12.7130 C.3    93  ASP93       0.1805
    113  C         -7.8460   -2.9350   12.6680 C.2    93  ASP93       0.2597
    114  O         -8.9620   -3.0070   13.1900 O.2    93  ASP93      -0.2718
    115  CB        -6.5900   -4.5830   14.1500 C.3    93  ASP93       0.1424
    116  CG        -5.9790   -5.9740   14.2110 C.2    93  ASP93       0.3668
    117  OD1       -6.5400   -6.9120   13.6010 O.co2  93  ASP93      -0.2456
    118  OD2       -4.9220   -6.1390   14.8530 O.co2  93  ASP93      -0.2456
    119  N         -7.4240   -1.8540   12.0030 N.am   94  ARG94      -0.1979
    120  CA        -8.3150   -0.7210   11.6800 C.3    94  ARG94       0.1597
    121  C         -8.9540   -0.7840   10.3000 C.2    94  ARG94       0.2287
    122  O         -9.7210    0.1230    9.9260 O.2    94  ARG94      -0.2864
    123  CB        -7.5530    0.6070   11.7540 C.3    94  ARG94       0.0334
    124  CG        -6.7510    0.8020   13.0080 C.3    94  ARG94       0.0492
    125  CD        -7.5980    0.7120   14.2620 C.3    94  ARG94       0.2205
    126  NE        -6.7860    0.9930   15.4490 N.pl3  94  ARG94      -0.0865
    127  CZ        -6.5550    2.2060   15.9540 C.cat  94  ARG94       0.5346
    128  NH1       -7.0650    3.3010   15.3990 N.pl3  94  ARG94       0.1354
    129  NH2       -5.7810    2.3200   17.0250 N.pl3  94  ARG94       0.1354
    130  N          0.3600   -5.0150    8.8610 N.3   133  GLU133     -0.1245
    131  CA         0.8700   -5.7220   10.0400 C.3   133  GLU133      0.1567
    132  C          2.1330   -5.0750   10.6340 C.2   133  GLU133      0.2260
    133  O          2.3920   -5.2070   11.8420 O.2   133  GLU133     -0.2867
    134  CB         1.1570   -7.1860    9.7100 C.3   133  GLU133      0.0388
    135  CG        -0.0610   -7.9710    9.2420 C.3   133  GLU133      0.1160
    136  CD        -0.2950   -7.9690    7.7430 C.2   133  GLU133      0.3649
    137  OE1       -0.0290   -6.9540    7.0540 O.co2 133  GLU133     -0.2457
    138  OE2       -0.7930   -9.0080    7.2300 O.co2 133  GLU133     -0.2457
    139  N          2.3110    0.2810   12.9750 N.3   136  LEU136     -0.1245
    140  CA         1.6870    0.3120   14.2930 C.3   136  LEU136      0.1561
    141  C          1.1890    1.7090   14.6150 C.2   136  LEU136      0.2260
    142  O          1.5670    2.6830   13.9570 O.2   136  LEU136     -0.2867
    143  CB         2.6810   -0.1400   15.3630 C.3   136  LEU136      0.0270
    144  CG         3.2980   -1.5160   15.1520 C.3   136  LEU136      0.0019
    145  CD1        4.3090   -1.8420   16.2940 C.3   136  LEU136      0.0001
    146  CD2        2.2250   -2.5930   15.0110 C.3   136  LEU136      0.0001
    147  N          7.3560   -0.3630   11.6640 N.3   146  SER146     -0.1217
    148  CA         7.8720   -1.3540   12.6100 C.3   146  SER146      0.1889
    149  C          8.5560   -2.5490   11.9230 C.2   146  SER146      0.2288
    150  O          8.1880   -2.9540   10.8140 O.2   146  SER146     -0.2866
    151  CB         6.7050   -1.8610   13.4590 C.3   146  SER146      0.2089
    152  OG         7.0840   -2.8940   14.3660 O.3   146  SER146     -0.2183
@<TRIPOS>BOND
     1   137   136   ar
     2   138   136   ar
     3   136   135    1
     4   130   131    1
     5   135   134    1
     6   134   131    1
     7   122   121    2
     8   131   132    1
     9   121   120    1
    10   132   133    2
    11   150   149    2
    12   147   148    1
    13   120   123    1
    14   120   119    1
    15   123   124    1
    16   149   148    1
    17   111   112    1
    18   119   113   am
    19   109   108   ar
    20   148   151    1
    21   113   112    1
    22   113   114    2
    23   112   115    1
    24   139   140    1
    25   124   125    1
    26   104   105    2
    27   104   103    1
    28   151   152    1
    29   108   110   ar
    30   108   107    1
    31   106   103    1
    32   106   107    1
    33   117   116   ar
    34    29    31   ar
    35    29    27   ar
    36   142   141    2
    37   103   102    1
    38   115   116    1
    39   116   118   ar
    40    22    23    1
    41   125   126    1
    42    31    32   ar
    43   140   141    1
    44   140   143    1
    45    26    27    1
    46    26    23    1
    47    46    47    1
    48    27    28   ar
    49    23    24    1
    50   146   144    1
    51   144   143    1
    52   144   145    1
    53   128   127    1
    54   126   127    2
    55    32    33    1
    56    32    30   ar
    57   102   100   am
    58    52    50    1
    59   101   100    2
    60   127   129    1
    61    49    48    2
    62    47    50    1
    63    47    48    1
    64    50    51    1
    65    28    30   ar
    66   100    99    1
    67    24    25    2
    68    97    96    2
    69    99    98    1
    70    87    86    1
    71    96    98   am
    72    96    95    1
    73    68    67   ar
    74    86    83    1
    75    60    58    1
    76    19    20    1
    77    19    18    1
    78    40    38    1
    79    20    21    2
    80    59    58    1
    81    95    94    1
    82    67    69   ar
    83    67    66    1
    84    58    57    1
    85    13    12    2
    86    85    84    2
    87    83    84    1
    88    83    82    1
    89    94    90   am
    90    18    12   am
    91    38    39    1
    92    38    35    1
    93    57    54    1
    94    64    63    2
    95    65    66    1
    96    65    62    1
    97    12    11    1
    98    84    88   am
    99    34    35    1
   100    82    72   am
   101    61    62    1
   102    61    55   am
   103    90    91    2
   104    90    89    1
   105    35    36    1
   106    63    62    1
   107    63    70   am
   108    54    55    1
   109    54    53    1
   110    88    89    1
   111    72    73    2
   112    72    71    1
   113    14    11    1
   114    14    15    1
   115    11    10    1
   116    55    56    2
   117    89    92    1
   118    45    42    1
   119    70    71    1
   120    71    74    1
   121    37    36    2
   122    16    15    1
   123    15    17    1
   124    93    92    1
   125    76    78   ar
   126    76    75   ar
   127    44    43    2
   128    78    80   ar
   129    42    43    1
   130    42    41    1
   131    74    75    1
   132    75    77   ar
   133    80    81    1
   134    80    79   ar
   135    77    79   ar
   136     8     7    2
   137     4     3    2
   138     7     6    1
   139     7     9   am
   140     3     2    1
   141     6     5    1
   142     5     2    1
   143     2     1    1
