@<TRIPOS>MOLECULE
tmp/2ydjB00.pdb
 166 156 0 0 0
SMALL
GASTEIGER

@<TRIPOS>ATOM
      1  N         22.0860   20.9730   21.1550 N.3     5  GLN5       -0.1245
      2  CA        21.8480   21.9480   20.0940 C.3     5  GLN5        0.1566
      3  C         20.3910   22.0660   19.6870 C.2     5  GLN5        0.2260
      4  O         19.5680   21.1820   19.9620 O.2     5  GLN5       -0.2867
      5  CB        22.6540   21.5790   18.8550 C.3     5  GLN5        0.0367
      6  CG        22.1680   20.3310   18.1560 C.3     5  GLN5        0.0905
      7  CD        22.9620   20.0420   16.9030 C.2     5  GLN5        0.2608
      8  OE1       24.1490   20.3540   16.8230 O.2     5  GLN5       -0.2717
      9  NE2       22.3140   19.4510   15.9190 N.am    5  GLN5       -0.0878
     10  N         17.3690   21.8490   17.3210 N.3     7  LEU7       -0.1231
     11  CA        16.8940   21.0940   16.1690 C.3     7  LEU7        0.1693
     12  C         15.9340   21.9610   15.3390 C.2     7  LEU7        0.2592
     13  O         15.7820   21.7400   14.1470 O.2     7  LEU7       -0.2718
     14  CB        16.2300   19.7950   16.6350 C.3     7  LEU7        0.0284
     15  CG        17.1150   18.8090   17.4240 C.3     7  LEU7        0.0019
     16  CD1       16.2440   17.7390   18.1110 C.3     7  LEU7        0.0001
     17  CD2       18.2060   18.1640   16.5410 C.3     7  LEU7        0.0001
     18  N         15.2890   22.9400   15.9750 N.am    8  GLY8       -0.1957
     19  CA        14.4530   23.9160   15.2680 C.3     8  GLY8        0.1869
     20  C         13.9050   25.0000   16.1830 C.2     8  GLY8        0.2309
     21  O         13.8620   24.8190   17.4040 O.2     8  GLY8       -0.2863
     22  N          6.0100   28.4130   18.0770 N.3    12  TYR12      -0.1241
     23  CA         5.7240   27.3210   19.0080 C.3    12  TYR12       0.1605
     24  C          6.7460   27.3460   20.1330 C.2    12  TYR12       0.2264
     25  O          6.4570   26.9080   21.2490 O.2    12  TYR12      -0.2867
     26  CB         5.7620   25.9510   18.2940 C.3    12  TYR12       0.0534
     27  CG         7.1000   25.5990   17.6510 C.ar   12  TYR12      -0.0201
     28  CD1        8.0820   24.9160   18.3680 C.ar   12  TYR12      -0.0009
     29  CD2        7.3820   25.9550   16.3300 C.ar   12  TYR12      -0.0009
     30  CE1        9.3100   24.5980   17.7920 C.ar   12  TYR12       0.0417
     31  CE2        8.6120   25.6380   15.7410 C.ar   12  TYR12       0.0417
     32  CZ         9.5700   24.9610   16.4830 C.ar   12  TYR12       0.1957
     33  OH        10.7900   24.6460   15.9200 O.3    12  TYR12      -0.2866
     34  N         12.8120   23.2960   19.5330 N.3    15  VAL15      -0.1245
     35  CA        13.1000   21.8930   19.7800 C.3    15  VAL15       0.1561
     36  C         14.6270   21.7190   19.9350 C.2    15  VAL15       0.2260
     37  O         15.4020   22.1110   19.0600 O.2    15  VAL15      -0.2867
     38  CB        12.5790   20.9740   18.6250 C.3    15  VAL15       0.0252
     39  CG1       12.9170   19.5310   18.9100 C.3    15  VAL15       0.0019
     40  CG2       11.0630   21.1200   18.4550 C.3    15  VAL15       0.0019
     41  N         14.4460   14.3890   21.9540 N.3    28  ALA28      -0.1245
     42  CA        14.1190   15.7460   21.5570 C.3    28  ALA28       0.1562
     43  C         13.3510   16.3450   22.7150 C.2    28  ALA28       0.2260
     44  O         12.6080   15.6360   23.4040 O.2    28  ALA28      -0.2867
     45  CB        13.2880   15.7660   20.2950 C.3    28  ALA28       0.0290
     46  N          5.6570   10.0980   16.3740 N.3    51  VAL51      -0.1245
     47  CA         6.7840   10.4630   17.2290 C.3    51  VAL51       0.1561
     48  C          6.4140   10.0920   18.6660 C.2    51  VAL51       0.2260
     49  O          5.3950   10.5470   19.2000 O.2    51  VAL51      -0.2867
     50  CB         7.1570   11.9780   17.1120 C.3    51  VAL51       0.0252
     51  CG1        8.0850   12.4230   18.2360 C.3    51  VAL51       0.0019
     52  CG2        7.8240   12.2500   15.7300 C.3    51  VAL51       0.0019
     53  N         10.3550   14.0230   23.7180 N.3    67  LEU67      -0.1231
     54  CA         9.9310   13.3010   22.5380 C.3    67  LEU67       0.1693
     55  C         11.0490   12.4390   21.9670 C.2    67  LEU67       0.2592
     56  O         12.2420   12.6640   22.2320 O.2    67  LEU67      -0.2718
     57  CB         9.4660   14.2980   21.4580 C.3    67  LEU67       0.0284
     58  CG         8.3120   15.2490   21.8130 C.3    67  LEU67       0.0019
     59  CD1        8.3420   16.5560   20.9770 C.3    67  LEU67       0.0001
     60  CD2        7.0010   14.5320   21.6640 C.3    67  LEU67       0.0001
     61  N         10.6460   11.4580   21.1590 N.am   68  GLU68      -0.1966
     62  CA        11.5600   10.5780   20.4350 C.3    68  GLU68       0.1733
     63  C         12.3980   11.3960   19.5010 C.2    68  GLU68       0.2616
     64  O         11.8530   12.1380   18.7110 O.2    68  GLU68      -0.2715
     65  CB        10.7600    9.5780   19.5920 C.3    68  GLU68       0.0429
     66  CG        11.5850    8.6250   18.7580 C.3    68  GLU68       0.1163
     67  CD        10.7350    7.5940   18.0080 C.2    68  GLU68       0.3649
     68  OE1        9.4840    7.7170   17.9820 O.co2  68  GLU68      -0.2457
     69  OE2       11.3230    6.6580   17.4250 O.co2  68  GLU68      -0.2457
     70  N         13.7200   11.2440   19.5690 N.am   69  TYR69      -0.1960
     71  CA        14.5990   11.9870   18.6760 C.3    69  TYR69       0.1771
     72  C         14.6470   11.2750   17.3260 C.2    69  TYR69       0.2620
     73  O         15.1140   10.1390   17.2230 O.2    69  TYR69      -0.2715
     74  CB        16.0070   12.1310   19.2650 C.3    69  TYR69       0.0574
     75  CG        17.0110   12.7240   18.3060 C.ar   69  TYR69      -0.0198
     76  CD1       16.7360   13.9100   17.6180 C.ar   69  TYR69      -0.0009
     77  CD2       18.2340   12.1050   18.0820 C.ar   69  TYR69      -0.0009
     78  CE1       17.6410   14.4440   16.7290 C.ar   69  TYR69       0.0417
     79  CE2       19.1590   12.6380   17.2010 C.ar   69  TYR69       0.0417
     80  CZ        18.8450   13.8110   16.5120 C.ar   69  TYR69       0.1957
     81  OH        19.7490   14.3570   15.6430 O.3    69  TYR69      -0.2866
     82  N         14.1520   11.9590   16.3030 N.am   70  CYS70      -0.1954
     83  CA        14.1930   11.4580   14.9320 C.3    70  CYS70       0.1843
     84  C         15.3860   12.0510   14.1760 C.2    70  CYS70       0.2626
     85  O         15.3310   13.1790   13.6620 O.2    70  CYS70      -0.2714
     86  CB        12.8830   11.7860   14.2380 C.3    70  CYS70       0.0997
     87  SG        11.4760   11.1850   15.1460 S.3    70  CYS70      -0.0797
     88  N         16.4720   11.2790   14.1050 N.am   71  SER71      -0.1936
     89  CA        17.7440   11.7960   13.6080 C.3    71  SER71       0.2055
     90  C         17.7770   12.0870   12.0930 C.2    71  SER71       0.2644
     91  O         18.7300   12.6920   11.6140 O.2    71  SER71      -0.2714
     92  CB        18.8940   10.8540   13.9960 C.3    71  SER71       0.2130
     93  OG        18.8780    9.6750   13.2150 O.3    71  SER71      -0.2179
     94  N         16.7430   11.6590   11.3560 N.am   72  GLY72      -0.1939
     95  CA        16.6620   11.8830    9.9070 C.3    72  GLY72       0.2014
     96  C         16.0780   13.2400    9.5370 C.2    72  GLY72       0.2639
     97  O         16.1260   13.6470    8.3820 O.2    72  GLY72      -0.2714
     98  N         15.5100   13.9350   10.5150 N.am   73  GLY73      -0.1939
     99  CA        14.9890   15.2780   10.2870 C.3    73  GLY73       0.2014
    100  C         13.6250   15.2910    9.6210 C.2    73  GLY73       0.2638
    101  O         12.8850   14.3020    9.6690 O.2    73  GLY73      -0.2714
    102  N         13.2810   16.4360    9.0410 N.am   74  GLU74      -0.1977
    103  CA        11.9750   16.6240    8.4080 C.3    74  GLU74       0.1602
    104  C         11.9920   16.0170    7.0180 C.2    74  GLU74       0.2287
    105  O         12.9770   16.1750    6.2540 O.2    74  GLU74      -0.2864
    106  CB        11.6170   18.1140    8.2900 C.3    74  GLU74       0.0415
    107  CG        11.3530   18.8420    9.5970 C.3    74  GLU74       0.1163
    108  CD        11.0500   20.3180    9.3940 C.2    74  GLU74       0.3649
    109  OE1       10.9770   20.7670    8.2390 O.co2  74  GLU74      -0.2457
    110  OE2       10.8630   21.0470   10.3930 O.co2  74  GLU74      -0.2457
    111  N         12.9380   18.2550    4.1240 N.3    77  ASP77      -0.1239
    112  CA        14.3260   18.3470    3.6730 C.3    77  ASP77       0.1674
    113  C         14.8020   17.2140    2.7450 C.2    77  ASP77       0.2266
    114  O         15.9370   17.2740    2.2560 O.2    77  ASP77      -0.2867
    115  CB        15.2570   18.4890    4.8890 C.3    77  ASP77       0.1410
    116  CG        15.1080   19.8370    5.5790 C.2    77  ASP77       0.3668
    117  OD1       15.0390   20.8610    4.8750 O.co2  77  ASP77      -0.2456
    118  OD2       15.0520   19.8890    6.8170 O.co2  77  ASP77      -0.2456
    119  N          1.8710   17.7690    6.7210 N.3   115  LYS115     -0.1245
    120  CA         2.6970   18.4130    5.7230 C.3   115  LYS115      0.1561
    121  C          4.1220   17.9200    5.9800 C.2   115  LYS115      0.2260
    122  O          4.3940   17.3860    7.0610 O.2   115  LYS115     -0.2867
    123  CB         2.5860   19.9530    5.8140 C.3   115  LYS115      0.0271
    124  CG         2.8580   20.5930    7.1750 C.3   115  LYS115      0.0035
    125  CD         2.6480   22.1260    7.0980 C.3   115  LYS115      0.0206
    126  CE         3.0130   22.8610    8.3480 C.3   115  LYS115      0.1093
    127  NZ         2.7810   24.3390    8.2080 N.3   115  LYS115     -0.1314
    128  N          6.8150   19.2370    6.8230 N.3   117  GLU117     -0.1231
    129  CA         7.4620   19.8580    7.9740 C.3   117  GLU117      0.1699
    130  C          7.0740   19.1420    9.2790 C.2   117  GLU117      0.2592
    131  O          7.8050   19.2060   10.2560 O.2   117  GLU117     -0.2718
    132  CB         7.1090   21.3540    8.0740 C.3   117  GLU117      0.0402
    133  CG         7.5820   22.2060    6.8900 C.3   117  GLU117      0.1161
    134  CD         6.5580   22.3310    5.7670 C.2   117  GLU117      0.3649
    135  OE1        5.7600   21.4040    5.5650 O.co2 117  GLU117     -0.2457
    136  OE2        6.5590   23.3630    5.0600 O.co2 117  GLU117     -0.2457
    137  N          5.9180   18.4740    9.2780 N.am  118  ASN118     -0.1974
    138  CA         5.4140   17.7620   10.4490 C.3   118  ASN118      0.1688
    139  C          5.4910   16.2410   10.3120 C.2   118  ASN118      0.2292
    140  O          4.7770   15.5110   11.0020 O.2   118  ASN118     -0.2864
    141  CB         3.9800   18.1940   10.7140 C.3   118  ASN118      0.1181
    142  CG         3.8910   19.6180   11.2320 C.2   118  ASN118      0.2629
    143  OD1        4.8710   20.1770   11.7310 O.2   118  ASN118     -0.2716
    144  ND2        2.7100   20.2090   11.1240 N.am  118  ASN118     -0.0877
    145  N          8.6020   13.5210   10.4260 N.3   120  LEU120     -0.1245
    146  CA        10.0170   13.3240   10.7010 C.3   120  LEU120      0.1561
    147  C         10.4570   11.9120   10.2810 C.2   120  LEU120      0.2260
    148  O          9.6320   11.0820    9.9560 O.2   120  LEU120     -0.2867
    149  CB        10.2920   13.5850   12.1870 C.3   120  LEU120      0.0270
    150  CG         9.7730   14.9530   12.6590 C.3   120  LEU120      0.0019
    151  CD1       10.0030   15.2380   14.1880 C.3   120  LEU120      0.0001
    152  CD2       10.3830   16.0400   11.8480 C.3   120  LEU120      0.0001
    153  N          4.3850   13.9880   13.4150 N.3   130  SER130     -0.1202
    154  CA         4.9130   14.8820   14.4420 C.3   130  SER130      0.2020
    155  C          3.9720   16.0520   14.6790 C.2   130  SER130      0.2618
    156  O          3.1580   16.3950   13.8120 O.2   130  SER130     -0.2717
    157  CB         6.3000   15.4040   14.0280 C.3   130  SER130      0.2103
    158  OG         6.9480   16.0560   15.1150 O.3   130  SER130     -0.2182
    159  N          4.0990   16.6400   15.8640 N.am  131  ASP131     -0.1973
    160  CA         3.4910   17.9160   16.2070 C.3   131  ASP131      0.1709
    161  C          1.9620   17.8680   16.2340 C.2   131  ASP131      0.2293
    162  O          1.2840   18.2610   15.2900 O.2   131  ASP131     -0.2864
    163  CB         4.0280   19.0180   15.2960 C.3   131  ASP131      0.1436
    164  CG         5.5420   19.1330   15.3800 C.2   131  ASP131      0.3671
    165  OD1        6.0480   19.5790   16.4450 O.co2 131  ASP131     -0.2456
    166  OD2        6.2130   18.7220   14.4150 O.co2 131  ASP131     -0.2456
@<TRIPOS>BOND
     1   114   113    2
     2   113   112    1
     3   112   111    1
     4   112   115    1
     5   117   116   ar
     6   115   116    1
     7   136   134   ar
     8   135   134   ar
     9   116   118   ar
    10   120   123    1
    11   120   121    1
    12   120   119    1
    13   134   133    1
    14   123   124    1
    15   121   122    2
    16   105   104    2
    17   128   129    1
    18   133   132    1
    19   104   103    1
    20   125   124    1
    21   125   126    1
    22   129   132    1
    23   129   130    1
    24   127   126    1
    25   109   108   ar
    26   106   103    1
    27   106   107    1
    28    97    96    2
    29   103   102    1
    30   102   100   am
    31   137   130   am
    32   137   138    1
    33   130   131    2
    34   108   107    1
    35   108   110   ar
    36    96    95    1
    37    96    98   am
    38   100   101    2
    39   100    99    1
    40    95    94    1
    41   148   147    2
    42   147   146    1
    43    99    98    1
    44   139   138    1
    45   139   140    2
    46   145   146    1
    47   138   141    1
    48   146   149    1
    49   141   142    1
    50   144   142   am
    51   142   143    2
    52    94    90   am
    53    91    90    2
    54   152   150    1
    55    90    89    1
    56   149   150    1
    57   150   151    1
    58    93    92    1
    59   153   154    1
    60    89    92    1
    61    89    88    1
    62    85    84    2
    63   156   155    2
    64   157   154    1
    65   157   158    1
    66    88    84   am
    67    13    12    2
    68    84    83    1
    69    86    83    1
    70    86    87    1
    71   166   164   ar
    72   154   155    1
    73   155   159   am
    74    83    82    1
    75    19    18    1
    76    19    20    1
    77   162   161    2
    78   163   164    1
    79   163   160    1
    80    12    18   am
    81    12    11    1
    82   164   165   ar
    83    81    80    1
    84    52    50    1
    85    31    29   ar
    86    31    32   ar
    87   159   160    1
    88     9     7   am
    89    33    32    1
    90    11    14    1
    91    11    10    1
    92    20    21    2
    93   160   161    1
    94    82    72   am
    95    29    27   ar
    96    46    47    1
    97    32    30   ar
    98    80    78   ar
    99    80    79   ar
   100    17    15    1
   101    14    15    1
   102    78    76   ar
   103     8     7    2
   104     7     6    1
   105    50    47    1
   106    50    51    1
   107    79    77   ar
   108    73    72    2
   109    47    48    1
   110    72    71    1
   111    15    16    1
   112    69    67   ar
   113    76    75   ar
   114    27    26    1
   115    27    28   ar
   116    30    28   ar
   117    68    67   ar
   118    67    66    1
   119    22    23    1
   120    77    75   ar
   121     6     5    1
   122    26    23    1
   123    75    74    1
   124    40    38    1
   125    38    39    1
   126    38    35    1
   127    48    49    2
   128    71    74    1
   129    71    70    1
   130    64    63    2
   131    66    65    1
   132     5     2    1
   133    23    24    1
   134    37    36    2
   135    63    70   am
   136    63    62    1
   137    34    35    1
   138    65    62    1
   139     3     4    2
   140     3     2    1
   141    35    36    1
   142     2     1    1
   143    24    25    2
   144    45    42    1
   145    62    61    1
   146    59    58    1
   147    61    55   am
   148    57    58    1
   149    57    54    1
   150    42    41    1
   151    42    43    1
   152    60    58    1
   153    55    56    2
   154    55    54    1
   155    54    53    1
   156    43    44    2
