@<TRIPOS>MOLECULE
tmp/2ydmA02.pdb
 153 148 0 0 0
SMALL
GASTEIGER

@<TRIPOS>ATOM
      1  N          9.5410  -12.9020  -32.0720 N.3   242  GLN242     -0.1245
      2  CA        10.0230  -11.5400  -31.7960 C.3   242  GLN242      0.1566
      3  C         11.4690  -11.3140  -32.2020 C.2   242  GLN242      0.2260
      4  O         11.8020  -10.2330  -32.6510 O.2   242  GLN242     -0.2867
      5  CB         9.8150  -11.1660  -30.3230 C.3   242  GLN242      0.0367
      6  CG        10.6740  -11.9040  -29.3550 C.3   242  GLN242      0.0905
      7  CD        10.3670  -11.5330  -27.9430 C.2   242  GLN242      0.2608
      8  OE1        9.3150  -11.9080  -27.4000 O.2   242  GLN242     -0.2717
      9  NE2       11.2730  -10.7870  -27.3220 N.am  242  GLN242     -0.0878
     10  N         11.6210  -14.9700  -15.8920 N.3   314  HIS314     -0.1226
     11  CA        11.9320  -13.9180  -16.8440 C.3   314  HIS314      0.1752
     12  C         12.9490  -12.9630  -16.2340 C.2   314  HIS314      0.2596
     13  O         12.8070  -12.5970  -15.0830 O.2   314  HIS314     -0.2718
     14  CB        10.6650  -13.1690  -17.2280 C.3   314  HIS314      0.0759
     15  CG        10.8440  -12.2750  -18.4060 C.ar  314  HIS314      0.0818
     16  ND1       10.9560  -12.7600  -19.6910 N.ar  314  HIS314     -0.2268
     17  CD2       10.9760  -10.9310  -18.4930 C.ar  314  HIS314      0.1154
     18  CE1       11.1280  -11.7520  -20.5230 C.ar  314  HIS314      0.1986
     19  NE2       11.1400  -10.6300  -19.8210 N.ar  314  HIS314     -0.2212
     20  N         13.9720  -12.5780  -16.9980 N.am  315  ALA315     -0.1966
     21  CA        15.0770  -11.7920  -16.4520 C.3   315  ALA315      0.1728
     22  C         14.6500  -10.4090  -15.9710 C.2   315  ALA315      0.2617
     23  O         13.9120   -9.6930  -16.6570 O.2   315  ALA315     -0.2715
     24  CB        16.1930  -11.6620  -17.4610 C.3   315  ALA315      0.0334
     25  N         15.1240  -10.0300  -14.7910 N.am  316  SER316     -0.1936
     26  CA        14.8750   -8.6890  -14.3110 C.3   316  SER316      0.2055
     27  C         16.0390   -8.1380  -13.4900 C.2   316  SER316      0.2642
     28  O         16.7810   -8.8860  -12.8560 O.2   316  SER316     -0.2714
     29  CB        13.5580   -8.6290  -13.5310 C.3   316  SER316      0.2130
     30  OG        13.6200   -9.4260  -12.3610 O.3   316  SER316     -0.2179
     31  N         16.2030   -6.8190  -13.5260 N.am  317  ALA317     -0.1977
     32  CA        17.2050   -6.1740  -12.7030 C.3   317  ALA317      0.1597
     33  C         16.5150   -5.3730  -11.6050 C.2   317  ALA317      0.2287
     34  O         15.4720   -4.7710  -11.8300 O.2   317  ALA317     -0.2864
     35  CB        18.0900   -5.2950  -13.5550 C.3   317  ALA317      0.0319
     36  N         21.3390  -11.2880  -23.1880 N.3   341  VAL341     -0.1245
     37  CA        20.4230  -10.8830  -22.1440 C.3   341  VAL341      0.1561
     38  C         21.2070  -10.5360  -20.8580 C.2   341  VAL341      0.2260
     39  O         20.9010   -9.5490  -20.2020 O.2   341  VAL341     -0.2867
     40  CB        19.3040  -11.9330  -21.9220 C.3   341  VAL341      0.0252
     41  CG1       18.4770  -11.6040  -20.6920 C.3   341  VAL341      0.0019
     42  CG2       18.3970  -12.0220  -23.1760 C.3   341  VAL341      0.0019
     43  N         22.2740   -7.0030  -21.2680 N.3   344  HIS344     -0.1226
     44  CA        21.1070   -6.1430  -21.1960 C.3   344  HIS344      0.1752
     45  C         20.7690   -5.8340  -19.7380 C.2   344  HIS344      0.2595
     46  O         20.5520   -4.6720  -19.3820 O.2   344  HIS344     -0.2718
     47  CB        19.9030   -6.8140  -21.8930 C.3   344  HIS344      0.0759
     48  CG        18.6160   -6.0650  -21.7280 C.ar  344  HIS344      0.0818
     49  ND1       18.1750   -5.1300  -22.6410 N.ar  344  HIS344     -0.2268
     50  CD2       17.7010   -6.0720  -20.7270 C.ar  344  HIS344      0.1154
     51  CE1       17.0240   -4.6220  -22.2290 C.ar  344  HIS344      0.1986
     52  NE2       16.7200   -5.1690  -21.0640 N.ar  344  HIS344     -0.2212
     53  N         20.7030   -6.8860  -18.9180 N.am  345  GLU345     -0.1979
     54  CA        20.4200   -6.7690  -17.5020 C.3   345  GLU345      0.1602
     55  C         21.5640   -6.0680  -16.7740 C.2   345  GLU345      0.2287
     56  O         21.3370   -5.3590  -15.8130 O.2   345  GLU345     -0.2864
     57  CB        20.1930   -8.1460  -16.8810 C.3   345  GLU345      0.0415
     58  CG        18.9850   -8.9320  -17.4220 C.3   345  GLU345      0.1163
     59  CD        17.6600   -8.1690  -17.2810 C.2   345  GLU345      0.3649
     60  OE1       17.3930   -7.6720  -16.1650 O.co2 345  GLU345     -0.2457
     61  OE2       16.9020   -8.0570  -18.2800 O.co2 345  GLU345     -0.2457
     62  N         21.1470   -2.4400  -16.9330 N.3   348  HIS348     -0.1241
     63  CA        20.2100   -1.9830  -15.8900 C.3   348  HIS348      0.1621
     64  C         20.9740   -1.6730  -14.5990 C.2   348  HIS348      0.2264
     65  O         20.9090   -0.5460  -14.0940 O.2   348  HIS348     -0.2867
     66  CB        19.1030   -3.0010  -15.6020 C.3   348  HIS348      0.0745
     67  CG        18.0290   -3.0550  -16.6420 C.ar  348  HIS348      0.0817
     68  ND1       17.5270   -1.9290  -17.2560 N.ar  348  HIS348     -0.2268
     69  CD2       17.3170   -4.0970  -17.1300 C.ar  348  HIS348      0.1154
     70  CE1       16.5890   -2.2780  -18.1150 C.ar  348  HIS348      0.1986
     71  NE2       16.4400   -3.5880  -18.0550 N.ar  348  HIS348     -0.2212
     72  N         16.5350    0.5470  -20.9770 N.3   372  GLU372     -0.1245
     73  CA        16.6480   -0.6790  -21.7730 C.3   372  GLU372      0.1567
     74  C         17.8340   -0.7410  -22.7340 C.2   372  GLU372      0.2260
     75  O         18.2640   -1.8330  -23.0960 O.2   372  GLU372     -0.2867
     76  CB        15.3630   -0.9620  -22.5760 C.3   372  GLU372      0.0388
     77  CG        14.0690   -1.1720  -21.7750 C.3   372  GLU372      0.1160
     78  CD        14.2030   -2.1480  -20.6110 C.2   372  GLU372      0.3649
     79  OE1       14.9100   -3.1760  -20.7440 O.co2 372  GLU372     -0.2457
     80  OE2       13.5980   -1.8800  -19.5490 O.co2 372  GLU372     -0.2457
     81  N         22.3770   -3.1800  -24.0920 N.3   376  ASP376     -0.1239
     82  CA        22.2860   -3.5920  -25.4920 C.3   376  ASP376      0.1674
     83  C         23.3800   -2.9690  -26.3410 C.2   376  ASP376      0.2266
     84  O         23.8660   -3.5920  -27.2960 O.2   376  ASP376     -0.2867
     85  CB        20.9190   -3.2590  -26.0850 C.3   376  ASP376      0.1410
     86  CG        19.8350   -4.2720  -25.6830 C.2   376  ASP376      0.3668
     87  OD1       19.9810   -4.9510  -24.6380 O.co2 376  ASP376     -0.2456
     88  OD2       18.8300   -4.3950  -26.4180 O.co2 376  ASP376     -0.2456
     89  N         12.7120   -7.6060  -34.5510 N.3   414  PHE414     -0.1241
     90  CA        12.0530   -7.1960  -33.3320 C.3   414  PHE414      0.1605
     91  C         11.3310   -5.8600  -33.4550 C.2   414  PHE414      0.2264
     92  O         10.4780   -5.5470  -32.6340 O.2   414  PHE414     -0.2867
     93  CB        13.1090   -7.0500  -32.2660 C.3   414  PHE414      0.0534
     94  CG        12.5770   -6.7580  -30.9160 C.ar  414  PHE414     -0.0203
     95  CD1       11.9120   -7.7380  -30.1890 C.ar  414  PHE414     -0.0042
     96  CD2       12.8010   -5.5250  -30.3230 C.ar  414  PHE414     -0.0042
     97  CE1       11.4570   -7.4850  -28.9120 C.ar  414  PHE414     -0.0003
     98  CE2       12.3500   -5.2750  -29.0640 C.ar  414  PHE414     -0.0003
     99  CZ        11.6820   -6.2530  -28.3550 C.ar  414  PHE414     -0.0000
    100  N          2.5250  -13.6330  -23.5690 N.3   468  LYS468     -0.1245
    101  CA         3.7860  -12.8810  -23.5660 C.3   468  LYS468      0.1561
    102  C          3.9260  -12.2460  -22.1790 C.2   468  LYS468      0.2260
    103  O          3.0310  -11.5160  -21.7150 O.2   468  LYS468     -0.2867
    104  CB         3.7760  -11.8260  -24.6790 C.3   468  LYS468      0.0271
    105  CG         4.9530  -10.8250  -24.6920 C.3   468  LYS468      0.0035
    106  CD         6.2660  -11.4970  -25.2060 C.3   468  LYS468      0.0206
    107  CE         7.5200  -10.7370  -24.8000 C.3   468  LYS468      0.1093
    108  NZ         8.6840  -11.6430  -24.7140 N.3   468  LYS468     -0.1314
    109  N          4.8330   -9.7540  -20.6740 N.3   470  HIS470     -0.1241
    110  CA         4.6330   -8.3450  -20.3240 C.3   470  HIS470      0.1621
    111  C          3.1930   -7.9510  -20.2000 C.2   470  HIS470      0.2264
    112  O          2.8910   -6.9730  -19.5110 O.2   470  HIS470     -0.2867
    113  CB         5.3350   -7.4060  -21.3100 C.3   470  HIS470      0.0745
    114  CG         6.8140   -7.6010  -21.3590 C.ar  470  HIS470      0.0817
    115  ND1        7.3910   -8.7870  -21.7620 N.ar  470  HIS470     -0.2268
    116  CD2        7.8360   -6.7640  -21.0650 C.ar  470  HIS470      0.1154
    117  CE1        8.7080   -8.6730  -21.7010 C.ar  470  HIS470      0.1986
    118  NE2        9.0030   -7.4540  -21.2880 N.ar  470  HIS470     -0.2212
    119  N          5.8810   -1.8210  -23.1030 N.3   477  TYR477     -0.1241
    120  CA         6.6740   -2.5140  -24.0690 C.3   477  TYR477      0.1605
    121  C          7.2700   -1.5890  -25.1150 C.2   477  TYR477      0.2264
    122  O          8.2290   -1.9490  -25.7970 O.2   477  TYR477     -0.2867
    123  CB         5.8160   -3.5710  -24.7710 C.3   477  TYR477      0.0534
    124  CG         6.6640   -4.7020  -25.2060 C.ar  477  TYR477     -0.0201
    125  CD1        6.9650   -5.7560  -24.3320 C.ar  477  TYR477     -0.0009
    126  CD2        7.2350   -4.6950  -26.4580 C.ar  477  TYR477     -0.0009
    127  CE1        7.7950   -6.8050  -24.7310 C.ar  477  TYR477      0.0417
    128  CE2        8.0610   -5.7190  -26.8670 C.ar  477  TYR477      0.0417
    129  CZ         8.3450   -6.7540  -26.0130 C.ar  477  TYR477      0.1957
    130  OH         9.1810   -7.7280  -26.4640 O.3   477  TYR477     -0.2866
    131  N         11.0610   -0.8910  -25.4260 N.3   480  TYR480     -0.1241
    132  CA        11.9470   -1.7620  -26.2070 C.3   480  TYR480      0.1605
    133  C         12.0500   -1.3280  -27.6440 C.2   480  TYR480      0.2264
    134  O         13.0900   -1.5260  -28.2710 O.2   480  TYR480     -0.2867
    135  CB        11.5150   -3.2530  -26.1300 C.3   480  TYR480      0.0534
    136  CG        11.3910   -3.7650  -24.7000 C.ar  480  TYR480     -0.0201
    137  CD1       12.5160   -3.9300  -23.9060 C.ar  480  TYR480     -0.0009
    138  CD2       10.1400   -4.0440  -24.1390 C.ar  480  TYR480     -0.0009
    139  CE1       12.4130   -4.3500  -22.6090 C.ar  480  TYR480      0.0417
    140  CE2       10.0290   -4.4900  -22.8380 C.ar  480  TYR480      0.0417
    141  CZ        11.1760   -4.6370  -22.0770 C.ar  480  TYR480      0.1957
    142  OH        11.1050   -5.0690  -20.7790 O.3   480  TYR480     -0.2866
    143  N         15.6690   -0.2390  -29.2660 N.3   484  PHE484     -0.1241
    144  CA        16.3250   -0.7370  -30.4600 C.3   484  PHE484      0.1605
    145  C         16.7810    0.3340  -31.4130 C.2   484  PHE484      0.2264
    146  O         17.8520    0.2120  -32.0050 O.2   484  PHE484     -0.2867
    147  CB        15.4950   -1.8240  -31.1270 C.3   484  PHE484      0.0534
    148  CG        15.7250   -3.1720  -30.5310 C.ar  484  PHE484     -0.0203
    149  CD1       15.7510   -3.3320  -29.1220 C.ar  484  PHE484     -0.0042
    150  CD2       15.9590   -4.2790  -31.3430 C.ar  484  PHE484     -0.0042
    151  CE1       15.9880   -4.5780  -28.5370 C.ar  484  PHE484     -0.0003
    152  CE2       16.1840   -5.5420  -30.7790 C.ar  484  PHE484     -0.0003
    153  CZ        16.2020   -5.6890  -29.3560 C.ar  484  PHE484     -0.0000
@<TRIPOS>BOND
     1    89    90    1
     2    91    90    1
     3    91    92    2
     4    90    93    1
     5     4     3    2
     6    93    94    1
     7     3     2    1
     8     1     2    1
     9   146   145    2
    10     2     5    1
    11   145   144    1
    12   150   152   ar
    13   150   148   ar
    14   147   148    1
    15   147   144    1
    16    94    96   ar
    17    94    95   ar
    18   152   153   ar
    19   148   149   ar
    20   144   143    1
    21    96    98   ar
    22     5     6    1
    23    95    97   ar
    24   153   151   ar
    25     6     7    1
    26   149   151   ar
    27    98    99   ar
    28    97    99   ar
    29   134   133    2
    30     7     8    2
    31     7     9   am
    32   133   132    1
    33    84    83    2
    34   128   126   ar
    35   128   129   ar
    36   130   129    1
    37   126   124   ar
    38    88    86   ar
    39    83    82    1
    40   132   135    1
    41   132   131    1
    42   135   136    1
    43    85    86    1
    44    85    82    1
    45   129   127   ar
    46   122   121    2
    47    86    87   ar
    48    82    81    1
    49   124   123    1
    50   124   125   ar
    51   106   107    1
    52   106   105    1
    53   121   120    1
    54   107   108    1
    55   123   120    1
    56   127   125   ar
    57   136   138   ar
    58   136   137   ar
    59   105   104    1
    60   104   101    1
    61   138   140   ar
    62   120   119    1
    63   137   139   ar
    64   100   101    1
    65   101   102    1
    66    36    37    1
    67    42    40    1
    68    75    74    2
    69   140   141   ar
    70    74    73    1
    71    49    51   ar
    72    49    48   ar
    73   139   141   ar
    74    76    77    1
    75    76    73    1
    76    51    52   ar
    77   102   103    2
    78    37    40    1
    79    37    38    1
    80   141   142    1
    81    40    41    1
    82    47    48    1
    83    47    44    1
    84    77    78    1
    85    73    72    1
    86   115   117   ar
    87   115   114   ar
    88    48    50   ar
    89   117   118   ar
    90   114   113    1
    91   114   116   ar
    92   113   110    1
    93   118   116   ar
    94    43    44    1
    95    44    45    1
    96    52    50   ar
    97    38    39    2
    98    79    78   ar
    99   109   110    1
   100    78    80   ar
   101    18    19   ar
   102    18    16   ar
   103   110   111    1
   104   111   112    2
   105    19    17   ar
   106    45    46    2
   107    45    53   am
   108    16    15   ar
   109    53    54    1
   110    17    15   ar
   111    15    14    1
   112    61    59   ar
   113    70    71   ar
   114    70    68   ar
   115    71    69   ar
   116    54    57    1
   117    54    55    1
   118    24    21    1
   119    58    59    1
   120    58    57    1
   121    59    60   ar
   122    68    67   ar
   123    14    11    1
   124    69    67   ar
   125    20    21    1
   126    20    12   am
   127    62    63    1
   128    11    12    1
   129    11    10    1
   130    55    56    2
   131    23    22    2
   132    67    66    1
   133    21    22    1
   134    12    13    2
   135    22    25   am
   136    63    66    1
   137    63    64    1
   138    25    26    1
   139    64    65    2
   140    26    29    1
   141    26    27    1
   142    35    32    1
   143    29    30    1
   144    31    27   am
   145    31    32    1
   146    27    28    2
   147    32    33    1
   148    34    33    2
