@<TRIPOS>MOLECULE
tmp/2ydoA00.pdb
 151 142 0 0 0
SMALL
GASTEIGER

@<TRIPOS>ATOM
      1  N        -32.9820   13.3170  -16.3340 N.3    58  ALA58      -0.1245
      2  CA       -32.1330   12.1500  -16.5640 C.3    58  ALA58       0.1562
      3  C        -31.8490   11.3590  -15.2860 C.2    58  ALA58       0.2260
      4  O        -31.6340   10.1430  -15.3420 O.2    58  ALA58      -0.2867
      5  CB       -30.8300   12.5730  -17.2220 C.3    58  ALA58       0.0290
      6  N        -35.1200    9.2290  -14.3110 N.3    61  ILE61      -0.1245
      7  CA       -35.2660    8.0950  -15.2250 C.3    61  ILE61       0.1561
      8  C        -34.3890    6.8870  -14.8500 C.2    61  ILE61       0.2260
      9  O        -34.6320    5.7700  -15.3200 O.2    61  ILE61      -0.2867
     10  CB       -34.9770    8.5500  -16.6960 C.3    61  ILE61       0.0252
     11  CG1      -35.9250    9.6800  -17.1380 C.3    61  ILE61       0.0019
     12  CG2      -35.0440    7.4010  -17.6700 C.3    61  ILE61       0.0019
     13  CD1      -37.4090    9.4160  -16.9370 C.3    61  ILE61       0.0001
     14  N        -35.6650   15.1000  -22.3640 N.3    79  VAL79      -0.1231
     15  CA       -34.2080   14.9590  -22.2930 C.3    79  VAL79       0.1692
     16  C        -33.6060   14.9120  -23.7040 C.2    79  VAL79       0.2591
     17  O        -32.6660   15.6490  -24.0040 O.2    79  VAL79      -0.2718
     18  CB       -33.7870   13.7070  -21.4650 C.3    79  VAL79       0.0266
     19  CG1      -32.2910   13.4380  -21.5830 C.3    79  VAL79       0.0020
     20  CG2      -34.1710   13.8730  -20.0050 C.3    79  VAL79       0.0020
     21  N        -34.1700   14.0620  -24.5650 N.am   80  LEU80      -0.1980
     22  CA       -33.7260   13.9320  -25.9530 C.3    80  LEU80       0.1596
     23  C        -33.7840   15.2620  -26.7170 C.2    80  LEU80       0.2287
     24  O        -32.8770   15.5740  -27.4920 O.2    80  LEU80      -0.2864
     25  CB       -34.5430   12.8560  -26.6830 C.3    80  LEU80       0.0297
     26  CG       -34.4250   11.3900  -26.2340 C.3    80  LEU80       0.0022
     27  CD1      -35.6420   10.6000  -26.6650 C.3    80  LEU80       0.0001
     28  CD2      -33.1570   10.7200  -26.7370 C.3    80  LEU80       0.0001
     29  N        -30.9470   17.8910  -25.1060 N.3    83  THR83      -0.1218
     30  CA       -29.6130   17.4370  -25.4970 C.3    83  THR83       0.1862
     31  C        -29.3860   17.6760  -26.9930 C.2    83  THR83       0.2287
     32  O        -28.2890   18.0600  -27.4010 O.2    83  THR83      -0.2866
     33  CB       -29.3570   15.9500  -25.1550 C.3    83  THR83       0.1770
     34  OG1      -30.3680   15.1300  -25.7510 O.3    83  THR83      -0.2211
     35  CG2      -29.3520   15.7300  -23.6520 C.3    83  THR83       0.0375
     36  N        -35.4040    4.4840  -19.0290 N.3   163  PHE163     -0.1227
     37  CA       -35.2130    5.0030  -20.3810 C.3   163  PHE163      0.1736
     38  C        -35.3990    3.8720  -21.3750 C.2   163  PHE163      0.2595
     39  O        -36.2590    3.9400  -22.2550 O.2   163  PHE163     -0.2718
     40  CB       -33.8170    5.6160  -20.5310 C.3   163  PHE163      0.0547
     41  CG       -33.5910    6.3140  -21.8440 C.ar  163  PHE163     -0.0202
     42  CD1      -33.9340    7.6550  -22.0030 C.ar  163  PHE163     -0.0042
     43  CD2      -33.0230    5.6360  -22.9210 C.ar  163  PHE163     -0.0042
     44  CE1      -33.7210    8.3100  -23.2170 C.ar  163  PHE163     -0.0003
     45  CE2      -32.8060    6.2860  -24.1400 C.ar  163  PHE163     -0.0003
     46  CZ       -33.1550    7.6240  -24.2860 C.ar  163  PHE163     -0.0000
     47  N        -34.5980    2.8250  -21.1970 N.am  164  GLU164     -0.1979
     48  CA       -34.5970    1.6630  -22.0730 C.3   164  GLU164      0.1602
     49  C        -35.9330    0.9170  -22.0570 C.2   164  GLU164      0.2287
     50  O        -36.1160   -0.0600  -22.7870 O.2   164  GLU164     -0.2864
     51  CB       -33.4350    0.7290  -21.7110 C.3   164  GLU164      0.0415
     52  CG       -32.0560    1.3500  -21.9380 C.3   164  GLU164      0.1163
     53  CD       -30.9240    0.3290  -22.0120 C.2   164  GLU164      0.3649
     54  OE1      -31.0640   -0.7880  -21.4620 O.co2 164  GLU164     -0.2457
     55  OE2      -29.8780    0.6520  -22.6200 O.co2 164  GLU164     -0.2457
     56  N        -34.8220    1.0920  -28.8990 N.3   169  MET169     -0.1245
     57  CA       -33.4200    1.0440  -29.2830 C.3   169  MET169      0.1570
     58  C        -33.2090    1.3280  -30.7610 C.2   169  MET169      0.2261
     59  O        -32.1680    1.8680  -31.1420 O.2   169  MET169     -0.2867
     60  CB       -32.7970   -0.3060  -28.9210 C.3   169  MET169      0.0387
     61  CG       -32.3290   -0.4280  -27.4720 C.3   169  MET169      0.0595
     62  SD       -31.2080    0.8760  -26.9000 S.3   169  MET169     -0.1393
     63  CE       -30.0680    0.9880  -28.2720 C.3   169  MET169      0.0692
     64  N        -33.2110    4.9490  -31.1790 N.3   172  MET172     -0.1245
     65  CA       -31.9200    5.4190  -30.7130 C.3   172  MET172      0.1570
     66  C        -30.8320    5.2100  -31.7500 C.2   172  MET172      0.2261
     67  O        -30.1090    6.1430  -32.0760 O.2   172  MET172     -0.2867
     68  CB       -31.5370    4.7470  -29.3900 C.3   172  MET172      0.0387
     69  CG       -32.2470    5.3190  -28.1470 C.3   172  MET172      0.0595
     70  SD       -32.2540    7.1270  -28.0120 S.3   172  MET172     -0.1393
     71  CE       -30.4930    7.4990  -27.9920 C.3   172  MET172      0.0692
     72  N        -31.9240    8.5620  -33.7820 N.3   176  ASN176     -0.1240
     73  CA       -31.2700    9.4830  -32.8470 C.3   176  ASN176      0.1653
     74  C        -29.7550    9.5870  -33.0060 C.2   176  ASN176      0.2266
     75  O        -29.2130   10.6880  -33.0730 O.2   176  ASN176     -0.2867
     76  CB       -31.6260    9.1520  -31.3980 C.3   176  ASN176      0.1155
     77  CG       -31.3940   10.3240  -30.4710 C.2   176  ASN176      0.2627
     78  OD1      -30.2540   10.6460  -30.1310 O.2   176  ASN176     -0.2716
     79  ND2      -32.4780   10.9780  -30.0620 N.am  176  ASN176     -0.0877
     80  N        -20.0850   12.0270  -26.6180 N.3   231  TRP231     -0.1241
     81  CA       -21.2960   11.4250  -27.1850 C.3   231  TRP231      0.1605
     82  C        -21.1940    9.9930  -27.7270 C.2   231  TRP231      0.2264
     83  O        -22.1490    9.2320  -27.6100 O.2   231  TRP231     -0.2867
     84  CB       -21.9040   12.3490  -28.2370 C.3   231  TRP231      0.0550
     85  CG       -22.6360   13.5210  -27.6440 C.ar  231  TRP231      0.0003
     86  CD1      -22.2600   14.8310  -27.6900 C.ar  231  TRP231      0.0946
     87  CD2      -23.8740   13.4850  -26.9200 C.ar  231  TRP231      0.0152
     88  NE1      -23.1910   15.6140  -27.0500 N.ar  231  TRP231     -0.2442
     89  CE2      -24.1880   14.8120  -26.5640 C.ar  231  TRP231      0.0810
     90  CE3      -24.7500   12.4590  -26.5430 C.ar  231  TRP231      0.0012
     91  CZ2      -25.3360   15.1410  -25.8470 C.ar  231  TRP231      0.0191
     92  CZ3      -25.8920   12.7880  -25.8270 C.ar  231  TRP231      0.0001
     93  CH2      -26.1730   14.1190  -25.4850 C.ar  231  TRP231      0.0015
     94  N        -21.7210    6.2960  -25.2360 N.3   234  LEU234     -0.1231
     95  CA       -23.1200    5.9560  -24.9630 C.3   234  LEU234      0.1693
     96  C        -23.8240    5.4020  -26.2010 C.2   234  LEU234      0.2592
     97  O        -24.5670    4.4170  -26.1160 O.2   234  LEU234     -0.2718
     98  CB       -23.8750    7.1690  -24.4050 C.3   234  LEU234      0.0284
     99  CG       -25.3600    7.0640  -24.0450 C.3   234  LEU234      0.0019
    100  CD1      -25.6920    5.8350  -23.1940 C.3   234  LEU234      0.0001
    101  CD2      -25.8180    8.3360  -23.3410 C.3   234  LEU234      0.0001
    102  N        -23.5760    6.0260  -27.3490 N.am  235  HIS235     -0.1976
    103  CA       -24.2160    5.5980  -28.5850 C.3   235  HIS235      0.1656
    104  C        -23.6810    4.2660  -29.0930 C.2   235  HIS235      0.2291
    105  O        -24.4550    3.4310  -29.5440 O.2   235  HIS235     -0.2864
    106  CB       -24.1440    6.6860  -29.6470 C.3   235  HIS235      0.0771
    107  CG       -25.1250    7.7940  -29.4230 C.ar  235  HIS235      0.0820
    108  ND1      -26.4640    7.6680  -29.7170 N.ar  235  HIS235     -0.2267
    109  CD2      -24.9680    9.0360  -28.9090 C.ar  235  HIS235      0.1154
    110  CE1      -27.0890    8.7880  -29.4060 C.ar  235  HIS235      0.1986
    111  NE2      -26.2050    9.6340  -28.9110 N.ar  235  HIS235     -0.2212
    112  N        -25.2440    1.7330  -27.0150 N.3   238  ASN238     -0.1240
    113  CA       -26.5770    1.5800  -27.6010 C.3   238  ASN238      0.1653
    114  C        -26.5900    0.6430  -28.8020 C.2   238  ASN238      0.2266
    115  O        -27.4490   -0.2340  -28.9000 O.2   238  ASN238     -0.2867
    116  CB       -27.1550    2.9410  -27.9950 C.3   238  ASN238      0.1155
    117  CG       -27.9470    3.5930  -26.8780 C.2   238  ASN238      0.2627
    118  OD1      -27.9160    3.1520  -25.7330 O.2   238  ASN238     -0.2716
    119  ND2      -28.6710    4.6510  -27.2150 N.am  238  ASN238     -0.0877
    120  N        -22.9460    2.1020  -18.0690 N.3   255  MET255     -0.1245
    121  CA       -24.1230    2.8640  -18.4550 C.3   255  MET255      0.1570
    122  C        -24.0560    4.2360  -17.7980 C.2   255  MET255      0.2261
    123  O        -24.0850    5.2630  -18.4840 O.2   255  MET255     -0.2867
    124  CB       -25.4120    2.1340  -18.0560 C.3   255  MET255      0.0387
    125  CG       -25.6870    0.8290  -18.8140 C.3   255  MET255      0.0595
    126  SD       -25.5830    0.9490  -20.6190 S.3   255  MET255     -0.1393
    127  CE       -26.8140    2.2020  -20.9800 C.3   255  MET255      0.0692
    128  N        -23.6810    7.8090  -19.7600 N.3   259  ILE259     -0.1245
    129  CA       -24.7290    8.8210  -19.6080 C.3   259  ILE259      0.1561
    130  C        -24.1530   10.1290  -19.0520 C.2   259  ILE259      0.2260
    131  O        -24.4240   11.2120  -19.5770 O.2   259  ILE259     -0.2867
    132  CB       -25.8800    8.3100  -18.7060 C.3   259  ILE259      0.0252
    133  CG1      -26.5470    7.0810  -19.3360 C.3   259  ILE259      0.0019
    134  CG2      -26.9080    9.4080  -18.4610 C.3   259  ILE259      0.0019
    135  CD1      -27.4240    6.2890  -18.3890 C.3   259  ILE259      0.0001
    136  N        -21.9690   11.8320  -21.5890 N.3   262  SER262     -0.1202
    137  CA       -22.7690   12.5010  -22.6110 C.3   262  SER262      0.2020
    138  C        -23.1750   13.8950  -22.1530 C.2   262  SER262      0.2618
    139  O        -23.1890   14.8390  -22.9450 O.2   262  SER262     -0.2717
    140  CB       -24.0050   11.6670  -22.9680 C.3   262  SER262      0.2103
    141  OG       -25.0270   11.7980  -21.9970 O.3   262  SER262     -0.2182
    142  N        -23.4840   14.0080  -20.8620 N.am  263  HIS263     -0.1975
    143  CA       -23.9450   15.2590  -20.2590 C.3   263  HIS263      0.1656
    144  C        -22.8410   16.2810  -20.0500 C.2   263  HIS263      0.2291
    145  O        -23.1080   17.4870  -20.0020 O.2   263  HIS263     -0.2864
    146  CB       -24.6300   14.9760  -18.9300 C.3   263  HIS263      0.0771
    147  CG       -25.9020   14.2110  -19.0700 C.ar  263  HIS263      0.0820
    148  ND1      -26.1390   13.0330  -18.3970 N.ar  263  HIS263     -0.2267
    149  CD2      -27.0010   14.4450  -19.8230 C.ar  263  HIS263      0.1154
    150  CE1      -27.3380   12.5830  -18.7180 C.ar  263  HIS263      0.1986
    151  NE2      -27.8800   13.4180  -19.5860 N.ar  263  HIS263     -0.2212
@<TRIPOS>BOND
     1    72    73    1
     2    75    74    2
     3    74    73    1
     4    73    76    1
     5    67    66    2
     6    66    65    1
     7    76    77    1
     8    64    65    1
     9    59    58    2
    10    58    57    1
    11    65    68    1
    12    77    78    2
    13    77    79   am
    14   108   107   ar
    15   108   110   ar
    16   106   107    1
    17   106   103    1
    18   105   104    2
    19   107   109   ar
    20   110   111   ar
    21    68    69    1
    22    57    60    1
    23    57    56    1
    24   104   103    1
    25    60    61    1
    26   111   109   ar
    27   115   114    2
    28   114   113    1
    29   103   102    1
    30    63    62    1
    31    84    85    1
    32    84    81    1
    33    69    70    1
    34    70    71    1
    35   116   113    1
    36   116   117    1
    37    82    83    2
    38    82    81    1
    39    86    85   ar
    40    86    88   ar
    41    85    87   ar
    42   113   112    1
    43    24    23    2
    44    61    62    1
    45    32    31    2
    46   102    96   am
    47   119   117   am
    48    81    80    1
    49    88    89   ar
    50    31    30    1
    51    87    89   ar
    52    87    90   ar
    53   117   118    2
    54    28    26    1
    55    23    22    1
    56    25    26    1
    57    25    22    1
    58    27    26    1
    59    89    91   ar
    60    90    92   ar
    61    96    97    2
    62    96    95    1
    63    22    21    1
    64    91    93   ar
    65    92    93   ar
    66    34    33    1
    67    30    33    1
    68    30    29    1
    69    94    95    1
    70    33    35    1
    71    95    98    1
    72    21    16   am
    73    98    99    1
    74    46    45   ar
    75    46    44   ar
    76    45    43   ar
    77    99   101    1
    78    99   100    1
    79    17    16    2
    80    16    15    1
    81    44    42   ar
    82   140   137    1
    83   140   141    1
    84   139   138    2
    85    43    41   ar
    86    50    49    2
    87    55    53   ar
    88   137   138    1
    89   137   136    1
    90    14    15    1
    91    15    18    1
    92    39    38    2
    93   138   142   am
    94    48    49    1
    95    48    51    1
    96    48    47    1
    97    53    52    1
    98    53    54   ar
    99    42    41   ar
   100    52    51    1
   101    41    40    1
   102    19    18    1
   103    18    20    1
   104    38    47   am
   105    38    37    1
   106   127   126    1
   107   142   143    1
   108   126   125    1
   109    40    37    1
   110    37    36    1
   111   143   144    1
   112   143   146    1
   113   144   145    2
   114   149   151   ar
   115   149   147   ar
   116   128   129    1
   117   129   130    1
   118   129   132    1
   119   151   150   ar
   120   131   130    2
   121   133   132    1
   122   133   135    1
   123   147   146    1
   124   147   148   ar
   125   125   124    1
   126   150   148   ar
   127   132   134    1
   128   123   122    2
   129   121   120    1
   130   121   124    1
   131   121   122    1
   132    12    10    1
   133     5     2    1
   134    11    13    1
   135    11    10    1
   136    10     7    1
   137     2     1    1
   138     2     3    1
   139     4     3    2
   140     9     8    2
   141     7     8    1
   142     7     6    1
