@<TRIPOS>MOLECULE
tmp/2ydpA01.pdb
 132 132 0 0 0
SMALL
GASTEIGER

@<TRIPOS>ATOM
      1  N         15.2790   30.9100   50.4320 N.3    24  LEU24      -0.1231
      2  CA        15.2340   31.8700   49.3100 C.3    24  LEU24       0.1693
      3  C         14.9440   31.0570   48.0660 C.2    24  LEU24       0.2592
      4  O         15.1560   29.8580   48.0850 O.2    24  LEU24      -0.2718
      5  CB        16.6000   32.5370   49.1420 C.3    24  LEU24       0.0284
      6  CG        16.7270   33.8440   48.3500 C.3    24  LEU24       0.0019
      7  CD1       16.1990   35.0220   49.1960 C.3    24  LEU24       0.0001
      8  CD2       18.1880   34.0610   47.9750 C.3    24  LEU24       0.0001
      9  N         14.4780   31.7210   46.9960 N.am   25  TYR25      -0.1976
     10  CA        14.4880   31.1440   45.6470 C.3    25  TYR25       0.1639
     11  C         13.5520   29.9290   45.5340 C.2    25  TYR25       0.2290
     12  O         13.9760   28.8120   45.2440 O.2    25  TYR25      -0.2864
     13  CB        15.9410   30.7410   45.2880 C.3    25  TYR25       0.0560
     14  CG        16.2840   30.8080   43.8080 C.ar   25  TYR25      -0.0198
     15  CD1       15.7440   29.9020   42.9000 C.ar   25  TYR25      -0.0009
     16  CD2       17.1580   31.7680   43.3380 C.ar   25  TYR25      -0.0009
     17  CE1       16.0780   29.9660   41.5540 C.ar   25  TYR25       0.0417
     18  CE2       17.4800   31.8550   42.0040 C.ar   25  TYR25       0.0417
     19  CZ        16.9300   30.9640   41.1200 C.ar   25  TYR25       0.1957
     20  OH        17.3050   31.0560   39.7980 O.3    25  TYR25      -0.2866
     21  N         16.1890   27.1830   48.0150 N.3    41  GLU41      -0.1245
     22  CA        17.4800   27.1640   48.6460 C.3    41  GLU41       0.1567
     23  C         17.2450   27.0960   50.1480 C.2    41  GLU41       0.2260
     24  O         16.5560   27.9340   50.7310 O.2    41  GLU41      -0.2867
     25  CB        18.2730   28.4260   48.3350 C.3    41  GLU41       0.0388
     26  CG        18.6130   28.6360   46.8540 C.3    41  GLU41       0.1160
     27  CD        19.1990   30.0330   46.6060 C.2    41  GLU41       0.3649
     28  OE1       19.2340   30.8560   47.5460 O.co2  41  GLU41      -0.2457
     29  OE2       19.6000   30.3160   45.4590 O.co2  41  GLU41      -0.2457
     30  N         19.0590   27.0160   53.6980 N.3    43  TYR43      -0.1241
     31  CA        20.3350   27.4300   54.2840 C.3    43  TYR43       0.1605
     32  C         20.5240   26.8010   55.6750 C.2    43  TYR43       0.2264
     33  O         20.7060   27.5070   56.6760 O.2    43  TYR43      -0.2867
     34  CB        20.4170   28.9510   54.3730 C.3    43  TYR43       0.0534
     35  CG        20.5680   29.6480   53.0610 C.ar   43  TYR43      -0.0201
     36  CD1       19.5020   29.7080   52.1390 C.ar   43  TYR43      -0.0009
     37  CD2       21.7580   30.2800   52.7320 C.ar   43  TYR43      -0.0009
     38  CE1       19.6420   30.3670   50.9310 C.ar   43  TYR43       0.0417
     39  CE2       21.8940   30.9690   51.5160 C.ar   43  TYR43       0.0417
     40  CZ        20.8280   30.9920   50.6270 C.ar   43  TYR43       0.1957
     41  OH        20.9860   31.6500   49.4360 O.3    43  TYR43      -0.2866
     42  N         22.5110   26.6640   45.5680 N.3    81  TYR81      -0.1227
     43  CA        21.8350   27.8290   45.0100 C.3    81  TYR81       0.1736
     44  C         20.9290   27.5160   43.8360 C.2    81  TYR81       0.2595
     45  O         21.2360   26.6310   43.0300 O.2    81  TYR81      -0.2718
     46  CB        22.8530   28.8640   44.4980 C.3    81  TYR81       0.0548
     47  CG        23.5450   29.7580   45.5420 C.ar   81  TYR81      -0.0200
     48  CD1       23.1210   29.7990   46.8800 C.ar   81  TYR81      -0.0009
     49  CD2       24.5810   30.6140   45.1480 C.ar   81  TYR81      -0.0009
     50  CE1       23.7670   30.6380   47.8230 C.ar   81  TYR81       0.0417
     51  CE2       25.2360   31.4320   46.0710 C.ar   81  TYR81       0.0417
     52  CZ        24.8300   31.4300   47.4030 C.ar   81  TYR81       0.1957
     53  OH        25.4500   32.2970   48.2800 O.3    81  TYR81      -0.2866
     54  N         19.8520   28.2950   43.7090 N.am   82  GLN82      -0.1979
     55  CA        19.1300   28.4230   42.4160 C.3    82  GLN82       0.1601
     56  C         18.5550   27.1380   41.8320 C.2    82  GLN82       0.2287
     57  O         18.8590   26.7940   40.6650 O.2    82  GLN82      -0.2864
     58  CB        20.0650   29.0770   41.3770 C.3    82  GLN82       0.0394
     59  CG        20.4660   30.5160   41.8100 C.3    82  GLN82       0.0908
     60  CD        21.9620   30.8330   41.6880 C.2    82  GLN82       0.2608
     61  OE1       22.6940   30.2100   40.8980 O.2    82  GLN82      -0.2717
     62  NE2       22.4220   31.8180   42.4720 N.am   82  GLN82      -0.0878
     63  N         31.5560   32.0420   43.9360 N.3   140  ALA140     -0.1231
     64  CA        30.1210   32.2920   43.9670 C.3   140  ALA140      0.1694
     65  C         29.7710   33.6130   44.6450 C.2   140  ALA140      0.2592
     66  O         29.0220   33.6370   45.6340 O.2   140  ALA140     -0.2718
     67  CB        29.3980   31.1250   44.6120 C.3   140  ALA140      0.0304
     68  N         30.3230   34.7010   44.1070 N.am  141  LEU141     -0.1966
     69  CA        29.9000   36.0810   44.4540 C.3   141  LEU141      0.1713
     70  C         29.6220   36.8750   43.1920 C.2   141  LEU141      0.2458
     71  O         30.3570   36.7770   42.1950 O.2   141  LEU141     -0.2730
     72  CB        30.9470   36.8070   45.3330 C.3   141  LEU141      0.0310
     73  CG        31.3440   36.1740   46.6640 C.3   141  LEU141      0.0022
     74  CD1       32.5930   36.8620   47.2350 C.3   141  LEU141      0.0001
     75  CD2       30.2240   36.2420   47.6850 C.3   141  LEU141      0.0001
     76  N         28.5290   37.6680   43.2000 N.am  142  PRO142     -0.2727
     77  CA        28.1640   38.3710   41.9840 C.3   142  PRO142      0.1402
     78  C         28.9570   39.6670   41.7920 C.2   142  PRO142      0.2269
     79  O         28.3650   40.7360   41.7470 O.2   142  PRO142     -0.2865
     80  CB        26.6740   38.6670   42.1920 C.3   142  PRO142      0.0296
     81  CG        26.5720   38.8660   43.7130 C.3   142  PRO142      0.0237
     82  CD        27.5320   37.8310   44.2760 C.3   142  PRO142      0.0939
     83  N         25.4560   30.7880   37.2170 N.3   150  TRP150     -0.1227
     84  CA        24.2940   30.8560   38.0900 C.3   150  TRP150      0.1737
     85  C         22.9730   30.5600   37.3720 C.2   150  TRP150      0.2595
     86  O         22.8790   30.7200   36.1550 O.2   150  TRP150     -0.2718
     87  CB        24.1090   32.2900   38.6090 C.3   150  TRP150      0.0564
     88  CG        25.2700   33.1450   39.0130 C.ar  150  TRP150      0.0003
     89  CD1       25.9140   34.0290   38.2360 C.ar  150  TRP150      0.0946
     90  CD2       25.7970   33.3110   40.3450 C.ar  150  TRP150      0.0152
     91  NE1       26.8180   34.7500   38.9830 N.ar  150  TRP150     -0.2442
     92  CE2       26.7830   34.3060   40.2760 C.ar  150  TRP150      0.0810
     93  CE3       25.5330   32.7040   41.5800 C.ar  150  TRP150      0.0012
     94  CZ2       27.5010   34.7360   41.4010 C.ar  150  TRP150      0.0191
     95  CZ3       26.2840   33.0950   42.6900 C.ar  150  TRP150      0.0001
     96  CH2       27.2390   34.1130   42.5970 C.ar  150  TRP150      0.0015
     97  N         21.9300   30.2310   38.1630 N.am  151  GLU151     -0.1979
     98  CA        20.5280   30.5050   37.7870 C.3   151  GLU151      0.1602
     99  C         20.0220   29.7240   36.5410 C.2   151  GLU151      0.2287
    100  O         19.5550   30.3280   35.5700 O.2   151  GLU151     -0.2864
    101  CB        20.3350   32.0330   37.5960 C.3   151  GLU151      0.0415
    102  CG        20.4080   32.8210   38.9210 C.3   151  GLU151      0.1163
    103  CD        21.0380   34.2200   38.8410 C.2   151  GLU151      0.3649
    104  OE1       21.5020   34.6730   37.7760 O.co2 151  GLU151     -0.2457
    105  OE2       21.0970   34.8490   39.9170 O.co2 151  GLU151     -0.2457
    106  N         12.3560   37.8980   46.3860 N.3   318  TYR318     -0.1241
    107  CA        13.4550   37.6680   45.4220 C.3   318  TYR318      0.1605
    108  C         13.1080   36.4550   44.5430 C.2   318  TYR318      0.2264
    109  O         12.7420   35.3830   45.0970 O.2   318  TYR318     -0.2867
    110  CB        14.7320   37.3860   46.2020 C.3   318  TYR318      0.0534
    111  CG        15.9560   37.1840   45.3370 C.ar  318  TYR318     -0.0201
    112  CD1       16.5260   38.2580   44.6400 C.ar  318  TYR318     -0.0009
    113  CD2       16.5650   35.9190   45.2400 C.ar  318  TYR318     -0.0009
    114  CE1       17.6710   38.0610   43.8250 C.ar  318  TYR318      0.0417
    115  CE2       17.7010   35.7160   44.4320 C.ar  318  TYR318      0.0417
    116  CZ        18.2480   36.7950   43.7470 C.ar  318  TYR318      0.1957
    117  OH        19.3660   36.6040   42.9790 O.3   318  TYR318     -0.2866
    118  N         16.4100   38.8380   49.8630 N.3   340  LEU340     -0.1231
    119  CA        17.8690   38.6710   49.9030 C.3   340  LEU340      0.1678
    120  C         18.3860   38.9960   51.3000 C.2   340  LEU340      0.2434
    121  O         17.7630   39.7990   52.0110 O.2   340  LEU340     -0.2733
    122  CB        18.5250   39.6390   48.8940 C.3   340  LEU340      0.0284
    123  CG        18.4870   39.1690   47.4440 C.3   340  LEU340      0.0019
    124  CD1       18.7600   40.3560   46.5100 C.3   340  LEU340      0.0001
    125  CD2       19.5340   38.0250   47.2200 C.3   340  LEU340      0.0001
    126  N         19.5140   38.3730   51.6980 N.am  341  PRO341     -0.2729
    127  CA        20.1140   38.7440   52.9880 C.3   341  PRO341      0.1401
    128  C         20.5170   40.2290   52.9850 C.2   341  PRO341      0.2269
    129  O         20.8850   40.7520   51.9360 O.2   341  PRO341     -0.2865
    130  CB        21.3400   37.8290   53.1230 C.3   341  PRO341      0.0296
    131  CG        21.6270   37.2590   51.7720 C.3   341  PRO341      0.0237
    132  CD        20.3240   37.3920   50.9450 C.3   341  PRO341      0.0939
@<TRIPOS>BOND
     1   100    99    2
     2    86    85    2
     3    99    98    1
     4    83    84    1
     5    85    84    1
     6    85    97   am
     7   101    98    1
     8   101   102    1
     9   104   103   ar
    10    98    97    1
    11    84    87    1
    12    89    91   ar
    13    89    88   ar
    14    87    88    1
    15   103   102    1
    16   103   105   ar
    17    91    92   ar
    18    88    90   ar
    19    20    19    1
    20    92    90   ar
    21    92    94   ar
    22    90    93   ar
    23    57    56    2
    24    61    60    2
    25    19    17   ar
    26    19    18   ar
    27    58    59    1
    28    58    55    1
    29    94    96   ar
    30    17    15   ar
    31    93    95   ar
    32    60    59    1
    33    60    62   am
    34    79    78    2
    35    78    77    1
    36    56    55    1
    37    77    80    1
    38    77    76    1
    39    18    16   ar
    40    80    81    1
    41    71    70    2
    42    55    54    1
    43    96    95   ar
    44    15    14   ar
    45   117   116    1
    46    45    44    2
    47    70    76   am
    48    70    69    1
    49    76    82    1
    50    16    14   ar
    51    54    44   am
    52    81    82    1
    53   116   114   ar
    54   116   115   ar
    55    14    13    1
    56   114   112   ar
    57    44    43    1
    58    63    64    1
    59    64    67    1
    60    64    65    1
    61    68    69    1
    62    68    65   am
    63   115   113   ar
    64    69    72    1
    65    46    43    1
    66    46    47    1
    67   108   109    2
    68   108   107    1
    69   112   111   ar
    70    65    66    2
    71    43    42    1
    72    49    47   ar
    73    49    51   ar
    74   113   111   ar
    75    12    11    2
    76    13    10    1
    77    72    73    1
    78   111   110    1
    79   107   110    1
    80   107   106    1
    81    29    27   ar
    82    11    10    1
    83    47    48   ar
    84    10     9    1
    85    51    52   ar
    86   124   123    1
    87    27    26    1
    88    27    28   ar
    89    73    74    1
    90    73    75    1
    91    26    25    1
    92    48    50   ar
    93     9     3   am
    94   125   123    1
    95    52    50   ar
    96    52    53    1
    97   123   122    1
    98     8     6    1
    99    21    22    1
   100     3     4    2
   101     3     2    1
   102    25    22    1
   103     6     5    1
   104     6     7    1
   105    22    23    1
   106   122   119    1
   107     5     2    1
   108     2     1    1
   109    41    40    1
   110   118   119    1
   111   119   120    1
   112    23    24    2
   113    40    38   ar
   114    40    39   ar
   115    38    36   ar
   116   132   126    1
   117   132   131    1
   118   120   126   am
   119   120   121    2
   120    39    37   ar
   121   126   127    1
   122   131   130    1
   123   129   128    2
   124    36    35   ar
   125    37    35   ar
   126   128   127    1
   127   127   130    1
   128    35    34    1
   129    30    31    1
   130    31    34    1
   131    31    32    1
   132    32    33    2
