@<TRIPOS>MOLECULE
tmp/2ydpA00.pdb
 114 111 0 0 0
SMALL
GASTEIGER

@<TRIPOS>ATOM
      1  N         22.5110   26.6640   45.5680 N.3    81  TYR81      -0.1227
      2  CA        21.8350   27.8290   45.0100 C.3    81  TYR81       0.1736
      3  C         20.9290   27.5160   43.8360 C.2    81  TYR81       0.2595
      4  O         21.2360   26.6310   43.0300 O.2    81  TYR81      -0.2718
      5  CB        22.8530   28.8640   44.4980 C.3    81  TYR81       0.0548
      6  CG        23.5450   29.7580   45.5420 C.ar   81  TYR81      -0.0200
      7  CD1       23.1210   29.7990   46.8800 C.ar   81  TYR81      -0.0009
      8  CD2       24.5810   30.6140   45.1480 C.ar   81  TYR81      -0.0009
      9  CE1       23.7670   30.6380   47.8230 C.ar   81  TYR81       0.0417
     10  CE2       25.2360   31.4320   46.0710 C.ar   81  TYR81       0.0417
     11  CZ        24.8300   31.4300   47.4030 C.ar   81  TYR81       0.1957
     12  OH        25.4500   32.2970   48.2800 O.3    81  TYR81      -0.2866
     13  N         19.8520   28.2950   43.7090 N.am   82  GLN82      -0.1979
     14  CA        19.1300   28.4230   42.4160 C.3    82  GLN82       0.1601
     15  C         18.5550   27.1380   41.8320 C.2    82  GLN82       0.2287
     16  O         18.8590   26.7940   40.6650 O.2    82  GLN82      -0.2864
     17  CB        20.0650   29.0770   41.3770 C.3    82  GLN82       0.0394
     18  CG        20.4660   30.5160   41.8100 C.3    82  GLN82       0.0908
     19  CD        21.9620   30.8330   41.6880 C.2    82  GLN82       0.2608
     20  OE1       22.6940   30.2100   40.8980 O.2    82  GLN82      -0.2717
     21  NE2       22.4220   31.8180   42.4720 N.am   82  GLN82      -0.0878
     22  N         28.5290   37.6680   43.2000 N.3   142  PRO142     -0.2116
     23  CA        28.1640   38.3710   41.9840 C.3   142  PRO142      0.1372
     24  C         28.9570   39.6670   41.7920 C.2   142  PRO142      0.2244
     25  O         28.3650   40.7360   41.7470 O.2   142  PRO142     -0.2868
     26  CB        26.6740   38.6670   42.1920 C.3   142  PRO142      0.0268
     27  CG        26.5720   38.8660   43.7130 C.3   142  PRO142      0.0207
     28  CD        27.5320   37.8310   44.2760 C.3   142  PRO142      0.0892
     29  N         25.4560   30.7880   37.2170 N.3   150  TRP150     -0.1227
     30  CA        24.2940   30.8560   38.0900 C.3   150  TRP150      0.1737
     31  C         22.9730   30.5600   37.3720 C.2   150  TRP150      0.2595
     32  O         22.8790   30.7200   36.1550 O.2   150  TRP150     -0.2718
     33  CB        24.1090   32.2900   38.6090 C.3   150  TRP150      0.0564
     34  CG        25.2700   33.1450   39.0130 C.ar  150  TRP150      0.0003
     35  CD1       25.9140   34.0290   38.2360 C.ar  150  TRP150      0.0946
     36  CD2       25.7970   33.3110   40.3450 C.ar  150  TRP150      0.0152
     37  NE1       26.8180   34.7500   38.9830 N.ar  150  TRP150     -0.2442
     38  CE2       26.7830   34.3060   40.2760 C.ar  150  TRP150      0.0810
     39  CE3       25.5330   32.7040   41.5800 C.ar  150  TRP150      0.0012
     40  CZ2       27.5010   34.7360   41.4010 C.ar  150  TRP150      0.0191
     41  CZ3       26.2840   33.0950   42.6900 C.ar  150  TRP150      0.0001
     42  CH2       27.2390   34.1130   42.5970 C.ar  150  TRP150      0.0015
     43  N         21.9300   30.2310   38.1630 N.am  151  GLU151     -0.1979
     44  CA        20.5280   30.5050   37.7870 C.3   151  GLU151      0.1602
     45  C         20.0220   29.7240   36.5410 C.2   151  GLU151      0.2287
     46  O         19.5550   30.3280   35.5700 O.2   151  GLU151     -0.2864
     47  CB        20.3350   32.0330   37.5960 C.3   151  GLU151      0.0415
     48  CG        20.4080   32.8210   38.9210 C.3   151  GLU151      0.1163
     49  CD        21.0380   34.2200   38.8410 C.2   151  GLU151      0.3649
     50  OE1       21.5020   34.6730   37.7760 O.co2 151  GLU151     -0.2457
     51  OE2       21.0970   34.8490   39.9170 O.co2 151  GLU151     -0.2457
     52  N         28.8910   40.0070   33.5170 N.3   176  GLN176     -0.1245
     53  CA        28.1040   38.7930   33.3830 C.3   176  GLN176      0.1566
     54  C         27.3860   38.8560   32.0150 C.2   176  GLN176      0.2260
     55  O         27.1360   39.9620   31.4790 O.2   176  GLN176     -0.2867
     56  CB        27.1120   38.7060   34.5550 C.3   176  GLN176      0.0367
     57  CG        26.3330   37.4100   34.6080 C.3   176  GLN176      0.0905
     58  CD        25.4700   37.3400   35.8380 C.2   176  GLN176      0.2608
     59  OE1       25.8860   36.8430   36.8820 O.2   176  GLN176     -0.2717
     60  NE2       24.2480   37.8090   35.7080 N.am  176  GLN176     -0.0878
     61  N         25.3630   43.7050   33.6290 N.3   204  ARG204     -0.1245
     62  CA        25.1460   42.3670   34.1630 C.3   204  ARG204      0.1563
     63  C         23.7220   41.8570   33.9120 C.2   204  ARG204      0.2260
     64  O         22.9310   41.7550   34.8480 O.2   204  ARG204     -0.2867
     65  CB        25.4550   42.3660   35.6700 C.3   204  ARG204      0.0307
     66  CG        26.9140   42.6390   36.0140 C.3   204  ARG204      0.0489
     67  CD        27.0770   42.7380   37.5450 C.3   204  ARG204      0.2205
     68  NE        26.7440   41.4860   38.2340 N.pl3 204  ARG204     -0.0865
     69  CZ        27.5270   40.4110   38.2710 C.cat 204  ARG204      0.5346
     70  NH1       28.6890   40.4110   37.6120 N.pl3 204  ARG204      0.1354
     71  NH2       27.1310   39.3160   38.9450 N.pl3 204  ARG204      0.1354
     72  N         20.9760   39.2670   33.7850 N.3   206  GLY206     -0.1210
     73  CA        20.9400   38.0530   34.6590 C.3   206  GLY206      0.1956
     74  C         19.5450   37.4560   34.8260 C.2   206  GLY206      0.2611
     75  O         18.5540   38.1090   34.4490 O.2   206  GLY206     -0.2717
     76  N         19.4800   36.2200   35.3450 N.am  207  MET207     -0.1979
     77  CA        18.2260   35.5350   35.7740 C.3   207  MET207      0.1605
     78  C         17.2070   35.3280   34.6430 C.2   207  MET207      0.2287
     79  O         16.1170   35.9330   34.6420 O.2   207  MET207     -0.2864
     80  CB        17.5920   36.2830   36.9510 C.3   207  MET207      0.0413
     81  CG        18.6670   36.7300   37.9650 C.3   207  MET207      0.0598
     82  SD        18.1180   37.3160   39.5660 S.3   207  MET207     -0.1393
     83  CE        17.5680   35.7640   40.2930 C.3   207  MET207      0.0692
     84  N         18.4350   47.1030   38.1410 N.3   238  PHE238     -0.1241
     85  CA        18.2000   45.8520   37.4290 C.3   238  PHE238      0.1605
     86  C         16.8380   45.8080   36.7240 C.2   238  PHE238      0.2264
     87  O         16.0300   44.9220   36.9880 O.2   238  PHE238     -0.2867
     88  CB        18.3200   44.6740   38.4310 C.3   238  PHE238      0.0534
     89  CG        19.6700   44.5900   39.1100 C.ar  238  PHE238     -0.0203
     90  CD1       19.9390   45.3180   40.2720 C.ar  238  PHE238     -0.0042
     91  CD2       20.6850   43.7850   38.5740 C.ar  238  PHE238     -0.0042
     92  CE1       21.1850   45.2340   40.9000 C.ar  238  PHE238     -0.0003
     93  CE2       21.9240   43.7090   39.1830 C.ar  238  PHE238     -0.0003
     94  CZ        22.1790   44.4340   40.3530 C.ar  238  PHE238     -0.0000
     95  N         12.3560   37.8980   46.3860 N.3   318  TYR318     -0.1241
     96  CA        13.4550   37.6680   45.4220 C.3   318  TYR318      0.1605
     97  C         13.1080   36.4550   44.5430 C.2   318  TYR318      0.2264
     98  O         12.7420   35.3830   45.0970 O.2   318  TYR318     -0.2867
     99  CB        14.7320   37.3860   46.2020 C.3   318  TYR318      0.0534
    100  CG        15.9560   37.1840   45.3370 C.ar  318  TYR318     -0.0201
    101  CD1       16.5260   38.2580   44.6400 C.ar  318  TYR318     -0.0009
    102  CD2       16.5650   35.9190   45.2400 C.ar  318  TYR318     -0.0009
    103  CE1       17.6710   38.0610   43.8250 C.ar  318  TYR318      0.0417
    104  CE2       17.7010   35.7160   44.4320 C.ar  318  TYR318      0.0417
    105  CZ        18.2480   36.7950   43.7470 C.ar  318  TYR318      0.1957
    106  OH        19.3660   36.6040   42.9790 O.3   318  TYR318     -0.2866
    107  N         16.4100   38.8380   49.8630 N.3   340  LEU340     -0.1245
    108  CA        17.8690   38.6710   49.9030 C.3   340  LEU340      0.1561
    109  C         18.3860   38.9960   51.3000 C.2   340  LEU340      0.2260
    110  O         17.7630   39.7990   52.0110 O.2   340  LEU340     -0.2867
    111  CB        18.5250   39.6390   48.8940 C.3   340  LEU340      0.0270
    112  CG        18.4870   39.1690   47.4440 C.3   340  LEU340      0.0019
    113  CD1       18.7600   40.3560   46.5100 C.3   340  LEU340      0.0001
    114  CD2       19.5340   38.0250   47.2200 C.3   340  LEU340      0.0001
@<TRIPOS>BOND
     1    55    54    2
     2    54    53    1
     3    53    52    1
     4    53    56    1
     5    61    62    1
     6    72    73    1
     7    63    62    1
     8    63    64    2
     9    62    65    1
    10    75    74    2
    11    56    57    1
    12    57    58    1
    13    79    78    2
    14    78    77    1
    15    73    74    1
    16    74    76   am
    17    76    77    1
    18    46    45    2
    19    65    66    1
    20    60    58   am
    21    77    80    1
    22    58    59    2
    23    66    67    1
    24    32    31    2
    25    45    44    1
    26    86    87    2
    27    86    85    1
    28    80    81    1
    29    29    30    1
    30    31    30    1
    31    31    43   am
    32    85    84    1
    33    85    88    1
    34    67    68    1
    35    47    44    1
    36    47    48    1
    37    70    69    1
    38    50    49   ar
    39    44    43    1
    40    81    82    1
    41    30    33    1
    42    68    69    2
    43    35    37   ar
    44    35    34   ar
    45    69    71    1
    46    88    89    1
    47    91    89   ar
    48    91    93   ar
    49    33    34    1
    50    49    48    1
    51    49    51   ar
    52    37    38   ar
    53    34    36   ar
    54    89    90   ar
    55    93    94   ar
    56    82    83    1
    57    90    92   ar
    58    38    36   ar
    59    38    40   ar
    60    36    39   ar
    61    94    92   ar
    62    16    15    2
    63    20    19    2
    64    17    18    1
    65    17    14    1
    66    40    42   ar
    67    39    41   ar
    68    19    18    1
    69    19    21   am
    70    25    24    2
    71    24    23    1
    72    15    14    1
    73    23    26    1
    74    23    22    1
    75    26    27    1
    76    14    13    1
    77    42    41   ar
    78   106   105    1
    79     4     3    2
    80    22    28    1
    81    13     3   am
    82    27    28    1
    83   105   103   ar
    84   105   104   ar
    85   103   101   ar
    86     3     2    1
    87   104   102   ar
    88     5     2    1
    89     5     6    1
    90    97    98    2
    91    97    96    1
    92   101   100   ar
    93     2     1    1
    94     8     6   ar
    95     8    10   ar
    96   102   100   ar
    97   100    99    1
    98    96    99    1
    99    96    95    1
   100     6     7   ar
   101    10    11   ar
   102   113   112    1
   103     7     9   ar
   104   114   112    1
   105    11     9   ar
   106    11    12    1
   107   112   111    1
   108   111   108    1
   109   107   108    1
   110   108   109    1
   111   109   110    2
