@<TRIPOS>MOLECULE
tmp/2ydrA00.pdb
 163 158 0 0 0
SMALL
GASTEIGER

@<TRIPOS>ATOM
      1  N         39.8880  -38.2490   -4.6810 N.3   148  GLY148     -0.1210
      2  CA        38.5560  -38.7930   -4.9200 C.3   148  GLY148      0.1956
      3  C         37.8490  -38.2510   -6.1450 C.2   148  GLY148      0.2612
      4  O         36.6390  -38.4540   -6.3080 O.2   148  GLY148     -0.2717
      5  N         38.6010  -37.5730   -7.0030 N.am  149  PHE149     -0.1962
      6  CA        38.0720  -36.9870   -8.2190 C.3   149  PHE149      0.1771
      7  C         37.8860  -38.0180   -9.3330 C.2   149  PHE149      0.2619
      8  O         38.4300  -39.1190   -9.2760 O.2   149  PHE149     -0.2715
      9  CB        39.0350  -35.9050   -8.7060 C.3   149  PHE149      0.0574
     10  CG        40.4370  -36.3850   -8.8390 C.ar  149  PHE149     -0.0200
     11  CD1       40.8280  -37.1220   -9.9480 C.ar  149  PHE149     -0.0042
     12  CD2       41.3640  -36.1280   -7.8400 C.ar  149  PHE149     -0.0042
     13  CE1       42.1270  -37.5920  -10.0620 C.ar  149  PHE149     -0.0003
     14  CE2       42.6640  -36.5920   -7.9480 C.ar  149  PHE149     -0.0003
     15  CZ        43.0430  -37.3360   -9.0690 C.ar  149  PHE149     -0.0000
     16  N         37.1220  -37.6320  -10.3520 N.am  150  TYR150     -0.1974
     17  CA        36.9750  -38.3970  -11.5970 C.3   150  TYR150      0.1639
     18  C         38.0920  -38.0390  -12.5630 C.2   150  TYR150      0.2290
     19  O         38.6190  -36.9280  -12.5150 O.2   150  TYR150     -0.2864
     20  CB        35.6520  -38.0480  -12.2400 C.3   150  TYR150      0.0560
     21  CG        34.4620  -38.5550  -11.4760 C.ar  150  TYR150     -0.0198
     22  CD1       33.8980  -37.8080  -10.4370 C.ar  150  TYR150     -0.0009
     23  CD2       33.8850  -39.7810  -11.7880 C.ar  150  TYR150     -0.0009
     24  CE1       32.7850  -38.2780   -9.7280 C.ar  150  TYR150      0.0417
     25  CE2       32.7810  -40.2540  -11.0800 C.ar  150  TYR150      0.0417
     26  CZ        32.2380  -39.4940  -10.0600 C.ar  150  TYR150      0.1957
     27  OH        31.1430  -39.9680   -9.3730 O.3   150  TYR150     -0.2866
     28  N         38.1150  -42.1760   -8.2670 N.3   179  LYS179     -0.1245
     29  CA        36.8640  -42.6390   -8.8800 C.3   179  LYS179      0.1561
     30  C         37.1330  -43.5860  -10.0080 C.2   179  LYS179      0.2260
     31  O         36.4080  -44.5590  -10.1830 O.2   179  LYS179     -0.2867
     32  CB        36.0030  -41.4720   -9.4110 C.3   179  LYS179      0.0271
     33  CG        35.2680  -40.6210   -8.3650 C.3   179  LYS179      0.0035
     34  CD        34.2570  -41.4590   -7.5600 C.3   179  LYS179      0.0206
     35  CE        33.2130  -40.6170   -6.8770 C.3   179  LYS179      0.1093
     36  NZ        33.8030  -39.9960   -5.7000 N.3   179  LYS179     -0.1314
     37  N         28.7540  -41.9960   -2.3360 N.3   258  ASP258     -0.1225
     38  CA        28.3820  -40.8860   -3.2170 C.3   258  ASP258      0.1805
     39  C         28.1810  -41.2810   -4.7060 C.2   258  ASP258      0.2597
     40  O         28.7570  -42.2570   -5.2070 O.2   258  ASP258     -0.2718
     41  CB        29.3940  -39.7580   -3.0950 C.3   258  ASP258      0.1424
     42  CG        30.8050  -40.2160   -3.3720 C.2   258  ASP258      0.3668
     43  OD1       31.1750  -41.3050   -2.8700 O.co2 258  ASP258     -0.2456
     44  OD2       31.5440  -39.4890   -4.0860 O.co2 258  ASP258     -0.2456
     45  N         27.3350  -40.5130   -5.3950 N.am  259  ASN259     -0.1974
     46  CA        27.0830  -40.6730   -6.8300 C.3   259  ASN259      0.1688
     47  C         26.7310  -42.1080   -7.2030 C.2   259  ASN259      0.2292
     48  O         27.4660  -42.7650   -7.9450 O.2   259  ASN259     -0.2864
     49  CB        28.2780  -40.1730   -7.6450 C.3   259  ASN259      0.1181
     50  CG        28.6300  -38.7240   -7.3440 C.2   259  ASN259      0.2629
     51  OD1       29.5650  -38.1790   -7.9210 O.2   259  ASN259     -0.2716
     52  ND2       27.8880  -38.0980   -6.4410 N.am  259  ASN259     -0.0877
     53  N         31.0170  -41.3270    3.3050 N.3   292  VAL292     -0.1245
     54  CA        30.2230  -40.2440    2.7000 C.3   292  VAL292      0.1561
     55  C         28.8670  -40.8250    2.2600 C.2   292  VAL292      0.2260
     56  O         28.8170  -41.8910    1.6110 O.2   292  VAL292     -0.2867
     57  CB        30.9950  -39.4490    1.5840 C.3   292  VAL292      0.0252
     58  CG1       31.0460  -40.1850    0.2720 C.3   292  VAL292      0.0019
     59  CG2       30.3910  -38.1030    1.3800 C.3   292  VAL292      0.0019
     60  N         25.1130  -35.7350    0.4040 N.3   296  TYR296     -0.1241
     61  CA        26.3540  -35.2650    1.0330 C.3   296  TYR296      0.1605
     62  C         26.6140  -33.7580    0.9430 C.2   296  TYR296      0.2264
     63  O         27.6410  -33.2630    1.4090 O.2   296  TYR296     -0.2867
     64  CB        27.5500  -36.0550    0.4780 C.3   296  TYR296      0.0534
     65  CG        27.6910  -35.9720   -1.0190 C.ar  296  TYR296     -0.0201
     66  CD1       28.2160  -34.8280   -1.6250 C.ar  296  TYR296     -0.0009
     67  CD2       27.2950  -37.0330   -1.8420 C.ar  296  TYR296     -0.0009
     68  CE1       28.3410  -34.7310   -2.9980 C.ar  296  TYR296      0.0417
     69  CE2       27.4240  -36.9480   -3.2450 C.ar  296  TYR296      0.0417
     70  CZ        27.9480  -35.7840   -3.7990 C.ar  296  TYR296      0.1957
     71  OH        28.0850  -35.6640   -5.1510 O.3   296  TYR296     -0.2866
     72  N         30.1170  -32.0450    1.8960 N.3   327  THR327     -0.1218
     73  CA        30.8550  -31.0700    1.0890 C.3   327  THR327      0.1862
     74  C         30.5350  -29.6000    1.3850 C.2   327  THR327      0.2287
     75  O         31.1890  -28.6990    0.8140 O.2   327  THR327     -0.2866
     76  CB        30.6840  -31.3290   -0.4160 C.3   327  THR327      0.1770
     77  OG1       29.3290  -31.0460   -0.7940 O.3   327  THR327     -0.2211
     78  CG2       31.0320  -32.7910   -0.7590 C.3   327  THR327      0.0375
     79  N         27.7370  -29.0940   -3.5960 N.3   331  VAL331     -0.1231
     80  CA        28.8660  -29.9390   -3.9820 C.3   331  VAL331      0.1692
     81  C         30.1720  -29.1490   -4.1120 C.2   331  VAL331      0.2591
     82  O         31.1750  -29.4930   -3.4810 O.2   331  VAL331     -0.2718
     83  CB        28.5780  -30.6350   -5.3100 C.3   331  VAL331      0.0266
     84  CG1       29.7400  -31.5320   -5.7050 C.3   331  VAL331      0.0020
     85  CG2       27.2590  -31.4210   -5.2120 C.3   331  VAL331      0.0020
     86  N         30.1470  -28.1120   -4.9480 N.am  332  VAL332     -0.1980
     87  CA        31.2370  -27.1620   -5.1200 C.3   332  VAL332      0.1595
     88  C         30.5680  -25.8140   -4.9000 C.2   332  VAL332      0.2287
     89  O         29.6330  -25.4620   -5.6110 O.2   332  VAL332     -0.2864
     90  CB        31.8360  -27.2380   -6.5440 C.3   332  VAL332      0.0276
     91  CG1       32.9020  -26.1890   -6.7420 C.3   332  VAL332      0.0022
     92  CG2       32.4110  -28.5950   -6.8100 C.3   332  VAL332      0.0022
     93  N         34.4920  -32.7250    3.1900 N.3   355  TRP355     -0.1241
     94  CA        35.1520  -33.1170    1.9490 C.3   355  TRP355      0.1605
     95  C         35.0770  -31.8750    1.0580 C.2   355  TRP355      0.2264
     96  O         34.1240  -31.6810    0.3150 O.2   355  TRP355     -0.2867
     97  CB        34.4140  -34.3150    1.3440 C.3   355  TRP355      0.0550
     98  CG        34.7710  -34.7030   -0.0870 C.ar  355  TRP355      0.0003
     99  CD1       35.0470  -33.8590   -1.1410 C.ar  355  TRP355      0.0946
    100  CD2       34.8000  -36.0340   -0.6300 C.ar  355  TRP355      0.0152
    101  NE1       35.2830  -34.5880   -2.2810 N.ar  355  TRP355     -0.2442
    102  CE2       35.1390  -35.9220   -2.0000 C.ar  355  TRP355      0.0810
    103  CE3       34.5990  -37.3130   -0.0840 C.ar  355  TRP355      0.0012
    104  CZ2       35.2850  -37.0380   -2.8330 C.ar  355  TRP355      0.0191
    105  CZ3       34.7560  -38.4310   -0.9170 C.ar  355  TRP355      0.0001
    106  CH2       35.0910  -38.2770   -2.2810 C.ar  355  TRP355      0.0015
    107  N         35.5940  -29.7320   -1.9810 N.3   357  ASN357     -0.1240
    108  CA        35.8000  -29.9490   -3.4290 C.3   357  ASN357      0.1653
    109  C         36.3990  -28.7180   -4.0990 C.2   357  ASN357      0.2266
    110  O         35.7740  -28.0440   -4.9330 O.2   357  ASN357     -0.2867
    111  CB        34.5060  -30.3380   -4.1290 C.3   357  ASN357      0.1155
    112  CG        34.1810  -31.8040   -3.9910 C.2   357  ASN357      0.2627
    113  OD1       35.0100  -32.6670   -4.2660 O.2   357  ASN357     -0.2716
    114  ND2       32.9440  -32.1030   -3.5910 N.am  357  ASN357     -0.0877
    115  N         39.7420  -29.4920   -6.8060 N.3   360  VAL360     -0.1245
    116  CA        39.3540  -30.4380   -7.8600 C.3   360  VAL360      0.1561
    117  C         38.7900  -29.6960   -9.0960 C.2   360  VAL360      0.2260
    118  O         38.0820  -28.6930   -8.9440 O.2   360  VAL360     -0.2867
    119  CB        38.3580  -31.4860   -7.3340 C.3   360  VAL360      0.0252
    120  CG1       37.2840  -30.8350   -6.4780 C.3   360  VAL360      0.0019
    121  CG2       37.7400  -32.2950   -8.4930 C.3   360  VAL360      0.0019
    122  N         37.5310  -31.6790  -12.0500 N.3   362  ASP362     -0.1225
    123  CA        37.0850  -32.7330  -12.9580 C.3   362  ASP362      0.1805
    124  C         35.7980  -32.3870  -13.7010 C.2   362  ASP362      0.2597
    125  O         35.4980  -32.9900  -14.7290 O.2   362  ASP362     -0.2718
    126  CB        36.9850  -34.0930  -12.2410 C.3   362  ASP362      0.1424
    127  CG        36.0020  -34.0940  -11.0760 C.2   362  ASP362      0.3668
    128  OD1       35.2190  -33.1290  -10.9040 O.co2 362  ASP362     -0.2456
    129  OD2       36.0080  -35.0870  -10.3270 O.co2 362  ASP362     -0.2456
    130  N         35.0740  -31.3990  -13.1690 N.am  363  TYR363     -0.1976
    131  CA        33.7680  -30.9220  -13.6710 C.3   363  TYR363      0.1639
    132  C         33.8980  -29.7330  -14.6370 C.2   363  TYR363      0.2290
    133  O         32.8820  -29.2290  -15.1440 O.2   363  TYR363     -0.2864
    134  CB        32.8790  -30.4760  -12.4830 C.3   363  TYR363      0.0560
    135  CG        33.4770  -29.3240  -11.6730 C.ar  363  TYR363     -0.0198
    136  CD1       33.4040  -28.0060  -12.1350 C.ar  363  TYR363     -0.0009
    137  CD2       34.1300  -29.5590  -10.4700 C.ar  363  TYR363     -0.0009
    138  CE1       33.9700  -26.9570  -11.4210 C.ar  363  TYR363      0.0417
    139  CE2       34.6840  -28.5250   -9.7340 C.ar  363  TYR363      0.0417
    140  CZ        34.6100  -27.2190  -10.2110 C.ar  363  TYR363      0.1957
    141  OH        35.1770  -26.1700   -9.4820 O.3   363  TYR363     -0.2866
    142  N         39.6930  -32.1410   -1.9360 N.3   390  ASN390     -0.1240
    143  CA        39.7180  -32.9950   -3.1130 C.3   390  ASN390      0.1653
    144  C         40.5060  -32.2120   -4.1690 C.2   390  ASN390      0.2266
    145  O         40.0570  -31.1580   -4.6200 O.2   390  ASN390     -0.2867
    146  CB        38.2880  -33.2730   -3.5430 C.3   390  ASN390      0.1155
    147  CG        38.1830  -34.2580   -4.6880 C.2   390  ASN390      0.2627
    148  OD1       39.1150  -34.9840   -4.9860 O.2   390  ASN390     -0.2716
    149  ND2       37.0230  -34.2880   -5.3350 N.am  390  ASN390     -0.0877
    150  N         25.8980  -25.7060  -11.4660 N.3   451  TRP451     -0.1241
    151  CA        25.9430  -26.2440  -10.1030 C.3   451  TRP451      0.1605
    152  C         27.2540  -26.0670   -9.3130 C.2   451  TRP451      0.2264
    153  O         27.2530  -26.2510   -8.0840 O.2   451  TRP451     -0.2867
    154  CB        25.5830  -27.7270  -10.1220 C.3   451  TRP451      0.0550
    155  CG        26.5240  -28.5760  -10.9550 C.ar  451  TRP451      0.0003
    156  CD1       26.4140  -28.8500  -12.2850 C.ar  451  TRP451      0.0946
    157  CD2       27.7030  -29.2640  -10.5030 C.ar  451  TRP451      0.0152
    158  NE1       27.4440  -29.6560  -12.6940 N.ar  451  TRP451     -0.2442
    159  CE2       28.2490  -29.9310  -11.6210 C.ar  451  TRP451      0.0810
    160  CE3       28.3480  -29.3800   -9.2640 C.ar  451  TRP451      0.0012
    161  CZ2       29.4090  -30.7040  -11.5410 C.ar  451  TRP451      0.0191
    162  CZ3       29.5130  -30.1470   -9.1850 C.ar  451  TRP451      0.0001
    163  CH2       30.0280  -30.7920  -10.3200 C.ar  451  TRP451      0.0015
@<TRIPOS>BOND
     1   133   132    2
     2   125   124    2
     3   132   131    1
     4   124   130   am
     5   124   123    1
     6   131   130    1
     7   131   134    1
     8   123   126    1
     9   123   122    1
    10   158   156   ar
    11   158   159   ar
    12    18    19    2
    13    18    17    1
    14   134   135    1
    15   156   155   ar
    16   126   127    1
    17    20    17    1
    18    20    21    1
    19   136   135   ar
    20   136   138   ar
    21    23    21   ar
    22    23    25   ar
    23   135   137   ar
    24   159   161   ar
    25   159   157   ar
    26    17    16    1
    27   161   163   ar
    28    21    22   ar
    29   150   151    1
    30   138   140   ar
    31    25    26   ar
    32   127   128   ar
    33   127   129   ar
    34   155   157   ar
    35   155   154    1
    36   157   160   ar
    37   137   139   ar
    38    22    24   ar
    39    16     7   am
    40   163   162   ar
    41   140   139   ar
    42   140   141    1
    43    31    30    2
    44   154   151    1
    45   151   152    1
    46    13    11   ar
    47    13    15   ar
    48    26    24   ar
    49    26    27    1
    50    30    29    1
    51    11    10   ar
    52    32    29    1
    53    32    33    1
    54     7     8    2
    55     7     6    1
    56   152   153    2
    57   160   162   ar
    58   117   118    2
    59   117   116    1
    60    15    14   ar
    61    29    28    1
    62    10     9    1
    63    10    12   ar
    64     9     6    1
    65   121   119    1
    66    33    34    1
    67     6     5    1
    68    14    12   ar
    69    48    47    2
    70    51    50    2
    71   116   119    1
    72   116   115    1
    73    49    50    1
    74    49    46    1
    75    34    35    1
    76    50    52   am
    77   119   120    1
    78    47    46    1
    79     5     3   am
    80    35    36    1
    81    46    45    1
    82    92    90    1
    83    91    90    1
    84    90    87    1
    85     4     3    2
    86     3     2    1
    87    84    83    1
    88    89    88    2
    89    45    39   am
    90   149   147   am
    91    83    85    1
    92    83    80    1
    93    40    39    2
    94    71    70    1
    95    87    86    1
    96    87    88    1
    97   148   147    2
    98    86    81   am
    99   110   109    2
   100     2     1    1
   101    39    38    1
   102   147   146    1
   103   145   144    2
   104   113   112    2
   105   144   143    1
   106   111   112    1
   107   111   108    1
   108    81    80    1
   109    81    82    2
   110   109   108    1
   111    44    42   ar
   112   112   114   am
   113    80    79    1
   114    70    69   ar
   115    70    68   ar
   116   146   143    1
   117   108   107    1
   118    42    41    1
   119    42    43   ar
   120    69    67   ar
   121    38    41    1
   122    38    37    1
   123   143   142    1
   124    68    66   ar
   125   104   106   ar
   126   104   102   ar
   127   101   102   ar
   128   101    99   ar
   129   106   105   ar
   130   102   100   ar
   131    67    65   ar
   132    66    65   ar
   133    99    98   ar
   134    65    64    1
   135   105   103   ar
   136    77    76    1
   137    78    76    1
   138   100    98   ar
   139   100   103   ar
   140    76    73    1
   141    98    97    1
   142    58    57    1
   143    96    95    2
   144    60    61    1
   145    64    61    1
   146    75    74    2
   147    62    61    1
   148    62    63    2
   149    95    94    1
   150    73    74    1
   151    73    72    1
   152    97    94    1
   153    59    57    1
   154    57    54    1
   155    56    55    2
   156    94    93    1
   157    55    54    1
   158    54    53    1
