@<TRIPOS>MOLECULE
tmp/2yduA00.pdb
 98 92 0 0 0
SMALL
GASTEIGER

@<TRIPOS>ATOM
      1  N          1.7990   15.9120   17.9110 N.3    43  PHE43      -0.1241
      2  CA         1.0590   16.4390   19.0280 C.3    43  PHE43       0.1605
      3  C          1.3440   17.9150   19.1540 C.2    43  PHE43       0.2264
      4  O          2.4960   18.3610   19.3030 O.2    43  PHE43      -0.2867
      5  CB         1.4180   15.7390   20.3350 C.3    43  PHE43       0.0534
      6  CG         1.1920   14.2680   20.2880 C.ar   43  PHE43      -0.0203
      7  CD1       -0.1100   13.7430   20.3280 C.ar   43  PHE43      -0.0042
      8  CD2        2.2600   13.4100   20.1250 C.ar   43  PHE43      -0.0042
      9  CE1       -0.3170   12.3520   20.2340 C.ar   43  PHE43      -0.0003
     10  CE2        2.0760   12.0400   20.0370 C.ar   43  PHE43      -0.0003
     11  CZ         0.7770   11.5020   20.0900 C.ar   43  PHE43      -0.0000
     12  N          3.7900   19.1510   21.7620 N.3    46  ILE46      -0.1245
     13  CA         5.0810   18.4670   21.8470 C.3    46  ILE46       0.1561
     14  C          5.9030   18.9170   20.6350 C.2    46  ILE46       0.2260
     15  O          5.8000   18.3680   19.5410 O.2    46  ILE46      -0.2867
     16  CB         4.9110   16.9490   21.9240 C.3    46  ILE46       0.0252
     17  CG1        3.9450   16.6040   23.0730 C.3    46  ILE46       0.0019
     18  CG2        6.2540   16.2690   22.1610 C.3    46  ILE46       0.0019
     19  CD1        4.0180   15.1650   23.5160 C.3    46  ILE46       0.0001
     20  N          2.7920    2.7570   26.3070 N.3   170  ASP170     -0.1225
     21  CA         2.8170    4.1940   26.4370 C.3   170  ASP170      0.1805
     22  C          2.6190    4.5930   27.9120 C.2   170  ASP170      0.2597
     23  O          1.9100    3.9090   28.6650 O.2   170  ASP170     -0.2718
     24  CB         1.7670    4.8420   25.5100 C.3   170  ASP170      0.1424
     25  CG         2.0500    6.3320   25.2320 C.2   170  ASP170      0.3668
     26  OD1        3.1510    6.8480   25.6000 O.co2 170  ASP170     -0.2456
     27  OD2        1.1550    6.9930   24.6510 O.co2 170  ASP170     -0.2456
     28  N          3.3220    5.6480   28.3290 N.am  171  GLN171     -0.1979
     29  CA         3.1570    6.2700   29.6570 C.3   171  GLN171      0.1601
     30  C          3.5840    5.3870   30.8270 C.2   171  GLN171      0.2287
     31  O          3.0990    5.5650   31.9770 O.2   171  GLN171     -0.2864
     32  CB         1.6870    6.7100   29.8660 C.3   171  GLN171      0.0394
     33  CG         1.1080    7.5020   28.7100 C.3   171  GLN171      0.0908
     34  CD         1.0900    8.9840   28.9700 C.2   171  GLN171      0.2608
     35  OE1        0.8560    9.4420   30.1060 O.2   171  GLN171     -0.2717
     36  NE2        1.2930    9.7590   27.9150 N.am  171  GLN171     -0.0878
     37  N          9.6480    6.9860   20.0330 N.3   217  CYS217     -0.1221
     38  CA         8.5280    6.2020   20.4880 C.3   217  CYS217      0.1808
     39  C          7.3250    6.7530   19.7390 C.2   217  CYS217      0.2601
     40  O          7.3140    6.6900   18.5240 O.2   217  CYS217     -0.2717
     41  CB         8.4200    6.2800   22.0210 C.3   217  CYS217      0.0970
     42  SG         8.5730    7.8940   22.8270 S.3   217  CYS217     -0.0800
     43  N          6.3140    7.2800   20.4320 N.am  218  ARG218     -0.1965
     44  CA         5.1770    7.9030   19.7460 C.3   218  ARG218      0.1729
     45  C          5.4140    9.4230   19.6350 C.2   218  ARG218      0.2616
     46  O          5.5500    9.9580   18.5350 O.2   218  ARG218     -0.2715
     47  CB         3.8330    7.5440   20.4120 C.3   218  ARG218      0.0348
     48  CG         2.6260    7.9760   19.5910 C.3   218  ARG218      0.0492
     49  CD         1.2730    7.5650   20.2170 C.3   218  ARG218      0.2205
     50  NE         0.1420    8.2030   19.5440 N.pl3 218  ARG218     -0.0865
     51  CZ        -1.1270    8.1870   19.9870 C.cat 218  ARG218      0.5346
     52  NH1       -1.4510    7.5160   21.0970 N.pl3 218  ARG218      0.1354
     53  NH2       -2.0750    8.8620   19.3130 N.pl3 218  ARG218      0.1354
     54  N          5.5390   10.0900   20.7600 N.am  219  ALA219     -0.1977
     55  CA         5.8320   11.5150   20.8150 C.3   219  ALA219      0.1597
     56  C          7.3350   11.8330   20.8780 C.2   219  ALA219      0.2287
     57  O          7.7150   12.9750   20.6570 O.2   219  ALA219     -0.2864
     58  CB         5.1290   12.1060   21.9920 C.3   219  ALA219      0.0319
     59  N          9.2570   11.7860   23.7330 N.3   221  VAL221     -0.1231
     60  CA         9.5600   12.4650   24.9950 C.3   221  VAL221      0.1692
     61  C          9.5410   11.6050   26.2660 C.2   221  VAL221      0.2593
     62  O         10.1010   11.9640   27.3040 O.2   221  VAL221     -0.2718
     63  CB         8.6380   13.7030   25.2110 C.3   221  VAL221      0.0266
     64  CG1        8.8460   14.6600   24.1090 C.3   221  VAL221      0.0020
     65  CG2        7.1460   13.3040   25.3260 C.3   221  VAL221      0.0020
     66  N          8.8630   10.4760   26.2180 N.am  222  GLY222     -0.1942
     67  CA         8.7210    9.6360   27.3820 C.3   222  GLY222      0.2014
     68  C          9.6840    8.4750   27.3540 C.2   222  GLY222      0.2638
     69  O         10.7680    8.5200   27.9450 O.2   222  GLY222     -0.2714
     70  N          9.2810    7.4210   26.6800 N.am  223  ARG223     -0.1977
     71  CA        10.0690    6.2100   26.5760 C.3   223  ARG223      0.1597
     72  C         11.4340    6.5200   25.9290 C.2   223  ARG223      0.2287
     73  O         12.5040    5.9980   26.3340 O.2   223  ARG223     -0.2864
     74  CB         9.2890    5.2120   25.7150 C.3   223  ARG223      0.0334
     75  CG         7.9930    4.7050   26.4200 C.3   223  ARG223      0.0492
     76  CD         7.0750    3.9150   25.4880 C.3   223  ARG223      0.2205
     77  NE         6.3060    4.8160   24.6460 N.pl3 223  ARG223     -0.0865
     78  CZ         5.3220    4.4480   23.8330 C.cat 223  ARG223      0.5346
     79  NH1        4.9630    3.1760   23.7280 N.pl3 223  ARG223      0.1354
     80  NH2        4.6810    5.3660   23.1180 N.pl3 223  ARG223      0.1354
     81  N          8.7600   12.2800   30.5790 N.3   260  GLN260     -0.1245
     82  CA         7.3860   12.7490   30.7330 C.3   260  GLN260      0.1566
     83  C          6.7630   12.3660   32.0700 C.2   260  GLN260      0.2260
     84  O          6.0700   13.1810   32.6730 O.2   260  GLN260     -0.2867
     85  CB         6.5150   12.2190   29.5950 C.3   260  GLN260      0.0367
     86  CG         5.1300   12.8360   29.5950 C.3   260  GLN260      0.0905
     87  CD         4.3800   12.5470   28.3480 C.2   260  GLN260      0.2608
     88  OE1        4.5170   11.4670   27.7910 O.2   260  GLN260     -0.2717
     89  NE2        3.5690   13.5080   27.8860 N.am  260  GLN260     -0.0878
     90  N          9.3450    7.3080   34.8810 N.3   264  GLN264     -0.1245
     91  CA        10.4700    7.3590   33.9250 C.3   264  GLN264      0.1566
     92  C         11.6500    8.0950   34.5730 C.2   264  GLN264      0.2260
     93  O         12.7790    7.6270   34.5250 O.2   264  GLN264     -0.2867
     94  CB        10.0360    8.0110   32.6130 C.3   264  GLN264      0.0367
     95  CG         9.0320    7.1400   31.7960 C.3   264  GLN264      0.0905
     96  CD         8.2320    7.8930   30.7670 C.2   264  GLN264      0.2608
     97  OE1        8.2770    9.1170   30.7210 O.2   264  GLN264     -0.2717
     98  NE2        7.4800    7.1440   29.9060 N.am  264  GLN264     -0.0878
@<TRIPOS>BOND
     1     1     2    1
     2    40    39    2
     3    46    45    2
     4     2     3    1
     5     2     5    1
     6     3     4    2
     7    53    51    1
     8    15    14    2
     9    50    51    2
    10    50    49    1
    11    48    49    1
    12    48    47    1
    13    45    44    1
    14    45    54   am
    15    39    43   am
    16    39    38    1
    17    44    47    1
    18    44    43    1
    19    51    52    1
    20    37    38    1
    21    10    11   ar
    22    10     8   ar
    23    11     9   ar
    24     8     6   ar
    25     9     7   ar
    26     6     7   ar
    27     6     5    1
    28    38    41    1
    29    14    13    1
    30    57    56    2
    31    54    55    1
    32    55    56    1
    33    55    58    1
    34    12    13    1
    35    13    16    1
    36    16    18    1
    37    16    17    1
    38    41    42    1
    39    17    19    1
    40    80    78    1
    41    79    78    1
    42    59    60    1
    43    78    77    2
    44    64    63    1
    45    77    76    1
    46    27    25   ar
    47    60    63    1
    48    60    61    1
    49    63    65    1
    50    25    24    1
    51    25    26   ar
    52    76    75    1
    53    24    21    1
    54    74    75    1
    55    74    71    1
    56    72    73    2
    57    72    71    1
    58    66    61   am
    59    66    67    1
    60    61    62    2
    61    20    21    1
    62    21    22    1
    63    71    70    1
    64    70    68   am
    65    68    67    1
    66    68    69    2
    67    88    87    2
    68    89    87   am
    69    22    28   am
    70    22    23    2
    71    36    34   am
    72    28    29    1
    73    87    86    1
    74    33    34    1
    75    33    32    1
    76    34    35    2
    77    86    85    1
    78    85    82    1
    79    29    32    1
    80    29    30    1
    81    98    96   am
    82    81    82    1
    83    97    96    2
    84    82    83    1
    85    96    95    1
    86    30    31    2
    87    95    94    1
    88    83    84    2
    89    94    91    1
    90    91    92    1
    91    91    90    1
    92    93    92    2
