@<TRIPOS>MOLECULE
tmp/2ydvA03.pdb
 78 73 0 0 0
SMALL
GASTEIGER

@<TRIPOS>ATOM
      1  N         26.8910   35.0360   -8.4620 N.3    41  TYR41      -0.1241
      2  CA        28.2590   34.5100   -8.5500 C.3    41  TYR41       0.1605
      3  C         28.2370   32.9860   -8.5610 C.2    41  TYR41       0.2264
      4  O         28.9840   32.3580   -9.3110 O.2    41  TYR41      -0.2867
      5  CB        29.1130   34.9980   -7.3750 C.3    41  TYR41       0.0534
      6  CG        29.3640   36.4930   -7.3390 C.ar   41  TYR41      -0.0201
      7  CD1       28.7710   37.3560   -8.2730 C.ar   41  TYR41      -0.0009
      8  CD2       30.1720   37.0510   -6.3500 C.ar   41  TYR41      -0.0009
      9  CE1       28.9940   38.7230   -8.2330 C.ar   41  TYR41       0.0417
     10  CE2       30.3960   38.4190   -6.2980 C.ar   41  TYR41       0.0417
     11  CZ        29.8070   39.2490   -7.2410 C.ar   41  TYR41       0.1957
     12  OH        30.0310   40.6080   -7.1960 O.3    41  TYR41      -0.2866
     13  N         26.8600   31.9960  -11.9780 N.3    44  VAL44      -0.1231
     14  CA        27.8900   32.2180  -13.0030 C.3    44  VAL44       0.1692
     15  C         28.9650   31.1290  -12.9590 C.2    44  VAL44       0.2592
     16  O         29.3800   30.6240  -14.0080 O.2    44  VAL44      -0.2718
     17  CB        28.5350   33.6330  -12.9040 C.3    44  VAL44       0.0266
     18  CG1       29.6760   33.7940  -13.9220 C.3    44  VAL44       0.0020
     19  CG2       27.4890   34.7230  -13.1310 C.3    44  VAL44       0.0020
     20  N         29.3930   30.7650  -11.7480 N.am   45  SER45      -0.1952
     21  CA        30.3510   29.6750  -11.5440 C.3    45  SER45       0.1924
     22  C         29.8550   28.3910  -12.1840 C.2    45  SER45       0.2314
     23  O         30.5730   27.7630  -12.9700 O.2    45  SER45      -0.2863
     24  CB        30.5900   29.4190  -10.0540 C.3    45  SER45       0.2116
     25  OG        31.0040   30.5930   -9.3830 O.3    45  SER45      -0.2180
     26  N         29.7450   28.6440  -15.9150 N.3    48  ALA48      -0.1231
     27  CA        31.1280   28.5610  -16.4180 C.3    48  ALA48       0.1694
     28  C         31.6270   27.1130  -16.5070 C.2    48  ALA48       0.2591
     29  O         32.1170   26.6820  -17.5550 O.2    48  ALA48      -0.2718
     30  CB        32.0660   29.4010  -15.5600 C.3    48  ALA48       0.0304
     31  N         31.4730   26.3690  -15.4090 N.am   49  ALA49      -0.1980
     32  CA        31.8380   24.9490  -15.3370 C.3    49  ALA49       0.1597
     33  C         31.1310   24.0840  -16.3820 C.2    49  ALA49       0.2287
     34  O         31.7400   23.1740  -16.9490 O.2    49  ALA49      -0.2864
     35  CB        31.5850   24.4070  -13.9320 C.3    49  ALA49       0.0319
     36  N         32.8440   24.5610  -19.7490 N.3    52  LEU52      -0.1245
     37  CA        34.0310   23.6980  -19.8020 C.3    52  LEU52       0.1561
     38  C         33.6850   22.2190  -20.0280 C.2    52  LEU52       0.2260
     39  O         34.4640   21.4920  -20.6420 O.2    52  LEU52      -0.2867
     40  CB        34.9110   23.8710  -18.5560 C.3    52  LEU52       0.0270
     41  CG        35.6220   25.2170  -18.3260 C.3    52  LEU52       0.0019
     42  CD1       36.4210   25.2090  -17.0210 C.3    52  LEU52       0.0001
     43  CD2       36.5350   25.5920  -19.4960 C.3    52  LEU52       0.0001
     44  N         30.5430   39.0820   -1.4500 N.3   116  GLY116     -0.1225
     45  CA        31.2150   38.8170   -2.7230 C.3   116  GLY116      0.1811
     46  C         32.5570   38.1210   -2.5790 C.2   116  GLY116      0.2280
     47  O         32.9330   37.3060   -3.4240 O.2   116  GLY116     -0.2866
     48  N         33.5840   33.9410   -3.4940 N.3   120  LYS120     -0.1245
     49  CA        34.7590   33.5050   -4.2590 C.3   120  LYS120      0.1561
     50  C         35.5520   32.4470   -3.4900 C.2   120  LYS120      0.2260
     51  O         36.1600   31.5600   -4.0900 O.2   120  LYS120     -0.2867
     52  CB        35.6510   34.6940   -4.6090 C.3   120  LYS120      0.0271
     53  CG        35.0590   35.6340   -5.6430 C.3   120  LYS120      0.0035
     54  CD        35.8750   36.9010   -5.7360 C.3   120  LYS120      0.0206
     55  CE        35.2150   37.9110   -6.6420 C.3   120  LYS120      0.1093
     56  NZ        35.6170   39.2890   -6.2580 N.3   120  LYS120     -0.1314
     57  N         33.6110   29.3190   -4.2740 N.3   123  ILE123     -0.1245
     58  CA        33.9430   28.9410   -5.6530 C.3   123  ILE123      0.1561
     59  C         35.2860   28.2020   -5.7320 C.2   123  ILE123      0.2260
     60  O         35.3770   27.1440   -6.3630 O.2   123  ILE123     -0.2867
     61  CB        33.9700   30.1700   -6.5930 C.3   123  ILE123      0.0252
     62  CG1       32.5750   30.7960   -6.6960 C.3   123  ILE123      0.0019
     63  CG2       34.5210   29.7960   -7.9890 C.3   123  ILE123      0.0019
     64  CD1       32.5650   32.2270   -7.2460 C.3   123  ILE123      0.0001
     65  N         36.5260   24.1040   -6.7250 N.3   127  TRP127     -0.1241
     66  CA        37.5700   23.6930   -7.6510 C.3   127  TRP127      0.1605
     67  C         38.7120   22.9190   -6.9990 C.2   127  TRP127      0.2264
     68  O         39.3150   22.0640   -7.6410 O.2   127  TRP127     -0.2867
     69  CB        38.0960   24.8930   -8.4240 C.3   127  TRP127      0.0550
     70  CG        37.2130   25.2370   -9.5750 C.ar  127  TRP127      0.0003
     71  CD1       36.2350   26.1910   -9.6070 C.ar  127  TRP127      0.0946
     72  CD2       37.2100   24.6140  -10.8620 C.ar  127  TRP127      0.0152
     73  NE1       35.6320   26.2090  -10.8420 N.ar  127  TRP127     -0.2442
     74  CE2       36.2100   25.2520  -11.6320 C.ar  127  TRP127      0.0810
     75  CE3       37.9610   23.5810  -11.4450 C.ar  127  TRP127      0.0012
     76  CZ2       35.9430   24.8950  -12.9540 C.ar  127  TRP127      0.0191
     77  CZ3       37.6910   23.2230  -12.7630 C.ar  127  TRP127      0.0001
     78  CH2       36.6900   23.8840  -13.5030 C.ar  127  TRP127      0.0015
@<TRIPOS>BOND
     1    39    38    2
     2    38    37    1
     3    37    36    1
     4    37    40    1
     5    43    41    1
     6    40    41    1
     7    41    42    1
     8    29    28    2
     9    34    33    2
    10    28    27    1
    11    28    31   am
    12    27    26    1
    13    27    30    1
    14    33    32    1
    15    31    32    1
    16    32    35    1
    17    16    15    2
    18    18    17    1
    19    78    76   ar
    20    78    77   ar
    21    19    17    1
    22    14    15    1
    23    14    17    1
    24    14    13    1
    25    23    22    2
    26    15    20   am
    27    76    74   ar
    28    77    75   ar
    29    22    21    1
    30    20    21    1
    31    74    72   ar
    32    74    73   ar
    33    21    24    1
    34    75    72   ar
    35    72    70   ar
    36    73    71   ar
    37    24    25    1
    38    71    70   ar
    39    70    69    1
    40     4     3    2
    41     3     2    1
    42     2     1    1
    43     2     5    1
    44    69    66    1
    45     7     9   ar
    46     7     6   ar
    47     9    11   ar
    48    63    61    1
    49    66    67    1
    50    66    65    1
    51    68    67    2
    52     5     6    1
    53     6     8   ar
    54    64    62    1
    55    11    12    1
    56    11    10   ar
    57    62    61    1
    58    55    56    1
    59    55    54    1
    60    61    58    1
    61    60    59    2
    62     8    10   ar
    63    54    53    1
    64    59    58    1
    65    58    57    1
    66    53    52    1
    67    52    49    1
    68    49    48    1
    69    49    50    1
    70    51    50    2
    71    47    46    2
    72    45    46    1
    73    45    44    1
