@<TRIPOS>MOLECULE
tmp/2ydvA00.pdb
 177 166 0 0 0
SMALL
GASTEIGER

@<TRIPOS>ATOM
      1  N         35.5580   12.9200  -23.5650 N.3    61  ALA61      -0.1245
      2  CA        34.7570   11.7300  -23.3060 C.3    61  ALA61       0.1562
      3  C         34.5170   10.9320  -24.5820 C.2    61  ALA61       0.2260
      4  O         34.5090    9.7040  -24.5500 O.2    61  ALA61      -0.2867
      5  CB        33.4320   12.1050  -22.6470 C.3    61  ALA61       0.0290
      6  N         37.7320    8.8730  -25.4270 N.3    64  ILE64      -0.1245
      7  CA        37.8740    7.7170  -24.5340 C.3    64  ILE64       0.1561
      8  C         36.9440    6.5520  -24.8990 C.2    64  ILE64       0.2260
      9  O         37.1880    5.4130  -24.4960 O.2    64  ILE64      -0.2867
     10  CB        37.6730    8.1220  -23.0400 C.3    64  ILE64       0.0252
     11  CG1       38.6350    9.2450  -22.6270 C.3    64  ILE64       0.0019
     12  CG2       37.8500    6.9360  -22.1150 C.3    64  ILE64       0.0019
     13  CD1       40.1040    8.9860  -22.9280 C.3    64  ILE64       0.0001
     14  N         38.1140   14.4780  -17.4880 N.3    82  VAL82      -0.1231
     15  CA        36.6580   14.3650  -17.5830 C.3    82  VAL82       0.1692
     16  C         36.0330   14.3850  -16.1790 C.2    82  VAL82       0.2591
     17  O         34.9990   15.0250  -15.9620 O.2    82  VAL82      -0.2718
     18  CB        36.2160   13.0940  -18.3660 C.3    82  VAL82       0.0266
     19  CG1       34.7090   12.9260  -18.3250 C.3    82  VAL82       0.0020
     20  CG2       36.6730   13.1650  -19.8140 C.3    82  VAL82       0.0020
     21  N         36.6840   13.7010  -15.2370 N.am   83  LEU83      -0.1980
     22  CA        36.2050   13.5820  -13.8640 C.3    83  LEU83       0.1596
     23  C         36.2450   14.9060  -13.1010 C.2    83  LEU83       0.2287
     24  O         35.2640   15.2740  -12.4510 O.2    83  LEU83      -0.2864
     25  CB        36.9860   12.4950  -13.1140 C.3    83  LEU83       0.0297
     26  CG        36.6930   11.0350  -13.4980 C.3    83  LEU83       0.0022
     27  CD1       37.8340   10.1070  -13.0860 C.3    83  LEU83       0.0001
     28  CD2       35.3480   10.5410  -12.9350 C.3    83  LEU83       0.0001
     29  N         33.5190   17.5560  -14.7020 N.3    86  THR86      -0.1203
     30  CA        32.1620   17.1900  -14.3260 C.3    86  THR86       0.1994
     31  C         31.9350   17.3660  -12.8190 C.2    86  THR86       0.2617
     32  O         30.8270   17.7010  -12.3900 O.2    86  THR86      -0.2717
     33  CB        31.7860   15.7600  -14.7800 C.3    86  THR86       0.1784
     34  OG1       32.6320   14.7960  -14.1380 O.3    86  THR86      -0.2211
     35  CG2       31.9160   15.6290  -16.2970 C.3    86  THR86       0.0376
     36  N         32.9870   17.1620  -12.0290 N.am   87  ALA87      -0.1979
     37  CA        32.9100   17.3290  -10.5780 C.3    87  ALA87       0.1597
     38  C         32.6720   18.7850  -10.2000 C.2    87  ALA87       0.2287
     39  O         31.8190   19.0740   -9.3510 O.2    87  ALA87      -0.2864
     40  CB        34.1730   16.7930   -9.8940 C.3    87  ALA87       0.0319
     41  N         29.1490   19.7010  -10.6730 N.3    90  ILE90      -0.1245
     42  CA        28.3280   19.2180   -9.5600 C.3    90  ILE90       0.1561
     43  C         28.4720   20.0910   -8.3130 C.2    90  ILE90       0.2260
     44  O         27.4800   20.4640   -7.6950 O.2    90  ILE90      -0.2867
     45  CB        28.6680   17.7440   -9.2070 C.3    90  ILE90       0.0252
     46  CG1       28.2260   16.8000  -10.3340 C.3    90  ILE90       0.0019
     47  CG2       28.0250   17.3390   -7.8870 C.3    90  ILE90       0.0019
     48  CD1       28.8220   15.4020  -10.2380 C.3    90  ILE90       0.0001
     49  N         37.8890    4.0050  -20.7410 N.3   166  PHE166     -0.1227
     50  CA        37.6870    4.5280  -19.3840 C.3   166  PHE166      0.1736
     51  C         37.8470    3.4380  -18.3330 C.2   166  PHE166      0.2595
     52  O         38.6420    3.5810  -17.4000 O.2   166  PHE166     -0.2718
     53  CB        36.3120    5.2010  -19.2570 C.3   166  PHE166      0.0547
     54  CG        36.0920    5.9090  -17.9450 C.ar  166  PHE166     -0.0202
     55  CD1       36.4520    7.2460  -17.7930 C.ar  166  PHE166     -0.0042
     56  CD2       35.5200    5.2400  -16.8600 C.ar  166  PHE166     -0.0042
     57  CE1       36.2520    7.9110  -16.5770 C.ar  166  PHE166     -0.0003
     58  CE2       35.3150    5.8940  -15.6390 C.ar  166  PHE166     -0.0003
     59  CZ        35.6820    7.2310  -15.4970 C.ar  166  PHE166     -0.0000
     60  N         37.1030    2.3490  -18.5060 N.am  167  GLU167     -0.1979
     61  CA        37.1130    1.2230  -17.5660 C.3   167  GLU167      0.1602
     62  C         38.4100    0.4170  -17.5930 C.2   167  GLU167      0.2287
     63  O         38.5520   -0.5520  -16.8520 O.2   167  GLU167     -0.2864
     64  CB        35.9140    0.2980  -17.8140 C.3   167  GLU167      0.0415
     65  CG        34.5690    0.9310  -17.4940 C.3   167  GLU167      0.1163
     66  CD        33.4170   -0.0620  -17.5250 C.2   167  GLU167      0.3649
     67  OE1       33.6710   -1.2860  -17.5180 O.co2 167  GLU167     -0.2457
     68  OE2       32.2500    0.3850  -17.5500 O.co2 167  GLU167     -0.2457
     69  N         37.3440    0.5240  -10.8890 N.3   172  MET172     -0.1245
     70  CA        35.9600    0.5140  -10.4400 C.3   172  MET172      0.1570
     71  C         35.7790    0.7710   -8.9340 C.2   172  MET172      0.2261
     72  O         34.7400    1.2890   -8.5190 O.2   172  MET172     -0.2867
     73  CB        35.2560   -0.7820  -10.8500 C.3   172  MET172      0.0387
     74  CG        34.6710   -0.7830  -12.2630 C.3   172  MET172      0.0595
     75  SD        33.5420    0.5780  -12.6810 S.3   172  MET172     -0.1393
     76  CE        32.6240    0.7270  -11.1640 C.3   172  MET172      0.0692
     77  N         35.7830    4.4730   -8.4930 N.3   175  MET175     -0.1245
     78  CA        34.4960    4.9880   -8.9550 C.3   175  MET175      0.1570
     79  C         33.3760    4.7660   -7.9490 C.2   175  MET175      0.2261
     80  O         32.5620    5.6580   -7.7120 O.2   175  MET175     -0.2867
     81  CB        34.1170    4.3760  -10.3150 C.3   175  MET175      0.0387
     82  CG        34.8640    4.9750  -11.5340 C.3   175  MET175      0.0595
     83  SD        34.8540    6.7860  -11.6070 S.3   175  MET175     -0.1393
     84  CE        33.0930    7.1190  -11.7750 C.3   175  MET175      0.0692
     85  N         34.4510    8.1990   -5.7790 N.3   179  ASN179     -0.1240
     86  CA        33.7740    9.1190   -6.7040 C.3   179  ASN179      0.1653
     87  C         32.2430    9.1760   -6.5690 C.2   179  ASN179      0.2266
     88  O         31.6640   10.2590   -6.5050 O.2   179  ASN179     -0.2867
     89  CB        34.1770    8.8170   -8.1500 C.3   179  ASN179      0.1155
     90  CG        33.9490    9.9920   -9.0750 C.2   179  ASN179      0.2627
     91  OD1       32.8260   10.2580   -9.4790 O.2   179  ASN179     -0.2716
     92  ND2       35.0220   10.6940   -9.4240 N.am  179  ASN179     -0.0877
     93  N         31.0470   12.6420   -5.0060 N.3   183  CYS183     -0.1221
     94  CA        30.5930   13.4980   -6.1020 C.3   183  CYS183      0.1808
     95  C         29.1000   13.4370   -6.3820 C.2   183  CYS183      0.2601
     96  O         28.5280   14.4000   -6.8900 O.2   183  CYS183     -0.2717
     97  CB        31.3680   13.1940   -7.3880 C.3   183  CYS183      0.0970
     98  SG        33.1200   13.6050   -7.2950 S.3   183  CYS183     -0.0800
     99  N         28.4710   12.3110   -6.0710 N.am  184  VAL184     -0.1979
    100  CA        27.0760   12.1290   -6.4380 C.3   184  VAL184      0.1595
    101  C         26.1640   12.0010   -5.2180 C.2   184  VAL184      0.2287
    102  O         25.2370   12.7980   -5.0530 O.2   184  VAL184     -0.2864
    103  CB        26.8890   10.9450   -7.4210 C.3   184  VAL184      0.0276
    104  CG1       25.4010   10.7240   -7.7540 C.3   184  VAL184      0.0022
    105  CG2       27.7120   11.1750   -8.6920 C.3   184  VAL184      0.0022
    106  N         22.5460   11.6310  -13.0720 N.3   236  TRP236     -0.1241
    107  CA        23.7730   11.0560  -12.5060 C.3   236  TRP236      0.1605
    108  C         23.6830    9.6320  -11.9450 C.2   236  TRP236      0.2264
    109  O         24.6470    8.8740  -12.0500 O.2   236  TRP236     -0.2867
    110  CB        24.3650   11.9990  -11.4570 C.3   236  TRP236      0.0550
    111  CG        25.0670   13.1890  -12.0580 C.ar  236  TRP236      0.0003
    112  CD1       24.6430   14.4860  -12.0410 C.ar  236  TRP236      0.0946
    113  CD2       26.3160   13.1850  -12.7680 C.ar  236  TRP236      0.0152
    114  NE1       25.5500   15.2900  -12.6920 N.ar  236  TRP236     -0.2442
    115  CE2       26.5870   14.5180  -13.1440 C.ar  236  TRP236      0.0810
    116  CE3       27.2340   12.1850  -13.1140 C.ar  236  TRP236      0.0012
    117  CZ2       27.7380   14.8790  -13.8470 C.ar  236  TRP236      0.0191
    118  CZ3       28.3820   12.5460  -13.8200 C.ar  236  TRP236      0.0001
    119  CH2       28.6170   13.8800  -14.1820 C.ar  236  TRP236      0.0015
    120  N         24.2380    6.0160  -14.3990 N.3   239  LEU239     -0.1231
    121  CA        25.6290    5.6550  -14.6970 C.3   239  LEU239      0.1693
    122  C         26.3690    5.0850  -13.4820 C.2   239  LEU239      0.2592
    123  O         27.1110    4.1010  -13.5970 O.2   239  LEU239     -0.2718
    124  CB        26.4030    6.8520  -15.2800 C.3   239  LEU239      0.0284
    125  CG        27.8710    6.6050  -15.6740 C.3   239  LEU239      0.0019
    126  CD1       28.0280    5.4060  -16.6100 C.3   239  LEU239      0.0001
    127  CD2       28.5050    7.8430  -16.2840 C.3   239  LEU239      0.0001
    128  N         26.1690    5.7050  -12.3220 N.am  240  HIS240     -0.1976
    129  CA        26.8570    5.2710  -11.1130 C.3   240  HIS240      0.1656
    130  C         26.2690    3.9940  -10.5220 C.2   240  HIS240      0.2291
    131  O         27.0120    3.1430  -10.0290 O.2   240  HIS240     -0.2864
    132  CB        26.9400    6.4140  -10.1030 C.3   240  HIS240      0.0771
    133  CG        27.8910    7.4920  -10.5180 C.ar  240  HIS240      0.0820
    134  ND1       29.1980    7.5390  -10.0860 N.ar  240  HIS240     -0.2267
    135  CD2       27.7410    8.5310  -11.3750 C.ar  240  HIS240      0.1154
    136  CE1       29.8050    8.5750  -10.6390 C.ar  240  HIS240      0.1986
    137  NE2       28.9430    9.1920  -11.4270 N.ar  240  HIS240     -0.2212
    138  N         27.7620    1.3700  -12.5800 N.3   243  ASN243     -0.1240
    139  CA        29.1160    1.1480  -12.0560 C.3   243  ASN243      0.1653
    140  C         29.1390    0.2190  -10.8280 C.2   243  ASN243      0.2266
    141  O         30.0210   -0.6290  -10.7070 O.2   243  ASN243     -0.2867
    142  CB        29.8090    2.4870  -11.7480 C.3   243  ASN243      0.1155
    143  CG        30.4030    3.1590  -12.9970 C.2   243  ASN243      0.2627
    144  OD1       30.5830    2.5290  -14.0360 O.2   243  ASN243     -0.2716
    145  ND2       30.7230    4.4390  -12.8820 N.am  243  ASN243     -0.0877
    146  N         25.3360    1.7400  -21.5950 N.3   260  MET260     -0.1245
    147  CA        26.5010    2.5270  -21.2050 C.3   260  MET260      0.1570
    148  C         26.4440    3.9110  -21.8510 C.2   260  MET260      0.2261
    149  O         26.5040    4.9260  -21.1440 O.2   260  MET260     -0.2867
    150  CB        27.8170    1.8110  -21.5560 C.3   260  MET260      0.0387
    151  CG        28.1140    0.5210  -20.7600 C.3   260  MET260      0.0595
    152  SD        28.1420    0.6480  -18.9390 S.3   260  MET260     -0.1393
    153  CE        29.3590    1.9380  -18.6770 C.3   260  MET260      0.0692
    154  N         26.0810    7.5460  -19.9460 N.3   264  ILE264     -0.1245
    155  CA        27.1250    8.5650  -20.1030 C.3   264  ILE264      0.1561
    156  C         26.5140    9.8640  -20.6410 C.2   264  ILE264      0.2260
    157  O         26.7290   10.9420  -20.0850 O.2   264  ILE264     -0.2867
    158  CB        28.2710    8.0730  -21.0340 C.3   264  ILE264      0.0252
    159  CG1       29.0470    6.9200  -20.3790 C.3   264  ILE264      0.0019
    160  CG2       29.2090    9.2230  -21.3960 C.3   264  ILE264      0.0019
    161  CD1       29.8310    6.0430  -21.3570 C.3   264  ILE264      0.0001
    162  N         24.3170   11.5800  -18.0500 N.3   267  SER267     -0.1202
    163  CA        25.1190   12.3250  -17.0800 C.3   267  SER267      0.2020
    164  C         25.5800   13.6790  -17.6250 C.2   267  SER267      0.2618
    165  O         25.6240   14.6710  -16.8920 O.2   267  SER267     -0.2717
    166  CB        26.2960   11.4770  -16.5790 C.3   267  SER267      0.2103
    167  OG        27.3780   11.4460  -17.4890 O.3   267  SER267     -0.2182
    168  N         25.8930   13.7280  -18.9160 N.am  268  HIS268     -0.1975
    169  CA        26.3170   14.9810  -19.5430 C.3   268  HIS268      0.1656
    170  C         25.1790   15.9830  -19.7330 C.2   268  HIS268      0.2291
    171  O         25.4110   17.1960  -19.7150 O.2   268  HIS268     -0.2864
    172  CB        27.0480   14.7160  -20.8550 C.3   268  HIS268      0.0771
    173  CG        28.3340   13.9720  -20.6780 C.ar  268  HIS268      0.0820
    174  ND1       28.6620   12.8610  -21.4220 N.ar  268  HIS268     -0.2267
    175  CD2       29.3640   14.1690  -19.8210 C.ar  268  HIS268      0.1154
    176  CE1       29.8460   12.4150  -21.0430 C.ar  268  HIS268      0.1986
    177  NE2       30.2910   13.1880  -20.0690 N.ar  268  HIS268     -0.2212
@<TRIPOS>BOND
     1     6     7    1
     2     8     7    1
     3     8     9    2
     4     3     4    2
     5     3     2    1
     6     7    10    1
     7     1     2    1
     8     2     5    1
     9    10    11    1
    10    10    12    1
    11    13    11    1
    12   148   147    1
    13   148   149    2
    14   146   147    1
    15   150   147    1
    16   150   151    1
    17   174   176   ar
    18   174   173   ar
    19   160   158    1
    20   161   159    1
    21   176   177   ar
    22   158   159    1
    23   158   155    1
    24   172   173    1
    25   172   169    1
    26   151   152    1
    27    49    50    1
    28   173   175   ar
    29   156   155    1
    30   156   157    2
    31   155   154    1
    32   177   175   ar
    33    20    18    1
    34   170   171    2
    35   170   169    1
    36   169   168    1
    37    50    53    1
    38    50    51    1
    39    53    54    1
    40   152   153    1
    41   168   164   am
    42    60    51   am
    43    60    61    1
    44    18    19    1
    45    18    15    1
    46    51    52    2
    47   162   163    1
    48    54    55   ar
    49    54    56   ar
    50    64    61    1
    51    64    65    1
    52    55    57   ar
    53   164   163    1
    54   164   165    2
    55    62    61    1
    56    62    63    2
    57    15    14    1
    58    15    16    1
    59    68    66   ar
    60    66    67   ar
    61    66    65    1
    62   167   166    1
    63   163   166    1
    64    56    58   ar
    65   126   125    1
    66    57    59   ar
    67    35    33    1
    68   127   125    1
    69    16    17    2
    70    16    21   am
    71   125   124    1
    72    58    59   ar
    73   124   121    1
    74    21    22    1
    75    33    30    1
    76    33    34    1
    77    29    30    1
    78   121   120    1
    79   121   122    1
    80    30    31    1
    81   119   117   ar
    82   119   118   ar
    83   144   143    2
    84    22    25    1
    85    22    23    1
    86   117   115   ar
    87   118   116   ar
    88   123   122    2
    89    26    25    1
    90    26    27    1
    91    26    28    1
    92   122   128   am
    93   115   113   ar
    94   115   114   ar
    95   116   113   ar
    96    23    24    2
    97   106   107    1
    98   143   145   am
    99   143   142    1
   100    31    32    2
   101    31    36   am
   102   113   111   ar
   103   114   112   ar
   104    75    74    1
   105    75    76    1
   106   138   139    1
   107   107   108    1
   108   107   110    1
   109   128   129    1
   110    74    73    1
   111   111   112   ar
   112   111   110    1
   113   139   142    1
   114   139   140    1
   115   109   108    2
   116    36    37    1
   117    84    83    1
   118    83    82    1
   119    82    81    1
   120   137   135   ar
   121   137   136   ar
   122   135   133   ar
   123   129   130    1
   124   129   132    1
   125    69    70    1
   126    73    70    1
   127   140   141    2
   128    41    42    1
   129   136   134   ar
   130    37    38    1
   131    37    40    1
   132   130   131    2
   133   133   132    1
   134   133   134   ar
   135    70    71    1
   136    46    48    1
   137    46    45    1
   138    81    78    1
   139    38    39    2
   140    42    45    1
   141    42    43    1
   142    91    90    2
   143    92    90   am
   144    45    47    1
   145    90    89    1
   146    78    77    1
   147    78    79    1
   148    71    72    2
   149   105   103    1
   150    43    44    2
   151    89    86    1
   152    79    80    2
   153   104   103    1
   154   103   100    1
   155    97    98    1
   156    97    94    1
   157    96    95    2
   158    86    87    1
   159    86    85    1
   160    87    88    2
   161   100    99    1
   162   100   101    1
   163    95    94    1
   164    95    99   am
   165    94    93    1
   166   101   102    2
