@<TRIPOS>MOLECULE
tmp/2ydvA04.pdb
 100 96 0 0 0
SMALL
GASTEIGER

@<TRIPOS>ATOM
      1  N         32.8440   24.5610  -19.7490 N.3    52  LEU52      -0.1245
      2  CA        34.0310   23.6980  -19.8020 C.3    52  LEU52       0.1561
      3  C         33.6850   22.2190  -20.0280 C.2    52  LEU52       0.2260
      4  O         34.4640   21.4920  -20.6420 O.2    52  LEU52      -0.2867
      5  CB        34.9110   23.8710  -18.5560 C.3    52  LEU52       0.0270
      6  CG        35.6220   25.2170  -18.3260 C.3    52  LEU52       0.0019
      7  CD1       36.4210   25.2090  -17.0210 C.3    52  LEU52       0.0001
      8  CD2       36.5350   25.5920  -19.4960 C.3    52  LEU52       0.0001
      9  N         35.5030   21.1430  -23.2320 N.3    56  LEU56      -0.1245
     10  CA        36.6200   20.2360  -22.9390 C.3    56  LEU56       0.1561
     11  C         36.1970   18.8080  -22.5760 C.2    56  LEU56       0.2260
     12  O         36.6900   17.8530  -23.1730 O.2    56  LEU56      -0.2867
     13  CB        37.5170   20.8210  -21.8390 C.3    56  LEU56       0.0270
     14  CG        38.1690   22.1920  -22.0480 C.3    56  LEU56       0.0019
     15  CD1       38.6470   22.7550  -20.7220 C.3    56  LEU56       0.0001
     16  CD2       39.3220   22.1340  -23.0480 C.3    56  LEU56       0.0001
     17  N         36.7020   15.1700  -24.8280 N.3    60  PHE60      -0.1241
     18  CA        37.5590   14.1720  -24.1780 C.3    60  PHE60       0.1605
     19  C         36.8330   12.8440  -23.9400 C.2    60  PHE60       0.2264
     20  O         37.4220   11.7750  -24.1010 O.2    60  PHE60      -0.2867
     21  CB        38.1040   14.6950  -22.8470 C.3    60  PHE60       0.0534
     22  CG        39.1210   15.7960  -22.9800 C.ar   60  PHE60      -0.0203
     23  CD1       39.7580   16.0500  -24.1910 C.ar   60  PHE60      -0.0042
     24  CD2       39.4680   16.5620  -21.8720 C.ar   60  PHE60      -0.0042
     25  CE1       40.6990   17.0680  -24.3020 C.ar   60  PHE60      -0.0003
     26  CE2       40.4170   17.5810  -21.9740 C.ar   60  PHE60      -0.0003
     27  CZ        41.0340   17.8320  -23.1930 C.ar   60  PHE60      -0.0000
     28  N         40.6210   14.1360  -16.4190 N.3    81  PHE81      -0.1241
     29  CA        40.2040   15.4890  -16.7430 C.3    81  PHE81       0.1605
     30  C         38.6950   15.5590  -16.9730 C.2    81  PHE81       0.2264
     31  O         38.0660   16.5680  -16.6640 O.2    81  PHE81      -0.2867
     32  CB        40.9960   16.0440  -17.9280 C.3    81  PHE81       0.0534
     33  CG        41.3590   17.4970  -17.7790 C.ar   81  PHE81      -0.0203
     34  CD1       42.1350   17.9270  -16.6980 C.ar   81  PHE81      -0.0042
     35  CD2       40.9260   18.4380  -18.7100 C.ar   81  PHE81      -0.0042
     36  CE1       42.4700   19.2740  -16.5450 C.ar   81  PHE81      -0.0003
     37  CE2       41.2600   19.7890  -18.5730 C.ar   81  PHE81      -0.0003
     38  CZ        42.0320   20.2080  -17.4870 C.ar   81  PHE81      -0.0000
     39  N         36.2830   18.0500  -14.3110 N.3    85  LEU85      -0.1245
     40  CA        35.4110   19.0740  -14.8970 C.3    85  LEU85       0.1561
     41  C         33.9310   18.8190  -14.6160 C.2    85  LEU85       0.2260
     42  O         33.1760   19.7580  -14.3200 O.2    85  LEU85      -0.2867
     43  CB        35.6560   19.2180  -16.4070 C.3    85  LEU85       0.0270
     44  CG        37.0240   19.7180  -16.8970 C.3    85  LEU85       0.0019
     45  CD1       37.0840   19.6600  -18.4160 C.3    85  LEU85       0.0001
     46  CD2       37.3550   21.1260  -16.3950 C.3    85  LEU85       0.0001
     47  N         33.5840   33.9410   -3.4940 N.3   120  LYS120     -0.1245
     48  CA        34.7590   33.5050   -4.2590 C.3   120  LYS120      0.1561
     49  C         35.5520   32.4470   -3.4900 C.2   120  LYS120      0.2260
     50  O         36.1600   31.5600   -4.0900 O.2   120  LYS120     -0.2867
     51  CB        35.6510   34.6940   -4.6090 C.3   120  LYS120      0.0271
     52  CG        35.0590   35.6340   -5.6430 C.3   120  LYS120      0.0035
     53  CD        35.8750   36.9010   -5.7360 C.3   120  LYS120      0.0206
     54  CE        35.2150   37.9110   -6.6420 C.3   120  LYS120      0.1093
     55  NZ        35.6170   39.2890   -6.2580 N.3   120  LYS120     -0.1314
     56  N         33.6110   29.3190   -4.2740 N.3   123  ILE123     -0.1231
     57  CA        33.9430   28.9410   -5.6530 C.3   123  ILE123      0.1692
     58  C         35.2860   28.2020   -5.7320 C.2   123  ILE123      0.2591
     59  O         35.3770   27.1440   -6.3630 O.2   123  ILE123     -0.2718
     60  CB        33.9700   30.1700   -6.5930 C.3   123  ILE123      0.0266
     61  CG1       32.5750   30.7960   -6.6960 C.3   123  ILE123      0.0019
     62  CG2       34.5210   29.7960   -7.9890 C.3   123  ILE123      0.0020
     63  CD1       32.5650   32.2270   -7.2460 C.3   123  ILE123      0.0001
     64  N         36.3140   28.7690   -5.0920 N.am  124  ALA124     -0.1980
     65  CA        37.6540   28.1760   -5.0550 C.3   124  ALA124      0.1597
     66  C         37.6460   26.7820   -4.4150 C.2   124  ALA124      0.2287
     67  O         38.2300   25.8420   -4.9620 O.2   124  ALA124     -0.2864
     68  CB        38.6290   29.0980   -4.3300 C.3   124  ALA124      0.0319
     69  N         36.5260   24.1040   -6.7250 N.3   127  TRP127     -0.1227
     70  CA        37.5700   23.6930   -7.6510 C.3   127  TRP127      0.1737
     71  C         38.7120   22.9190   -6.9990 C.2   127  TRP127      0.2595
     72  O         39.3150   22.0640   -7.6410 O.2   127  TRP127     -0.2718
     73  CB        38.0960   24.8930   -8.4240 C.3   127  TRP127      0.0564
     74  CG        37.2130   25.2370   -9.5750 C.ar  127  TRP127      0.0003
     75  CD1       36.2350   26.1910   -9.6070 C.ar  127  TRP127      0.0946
     76  CD2       37.2100   24.6140  -10.8620 C.ar  127  TRP127      0.0152
     77  NE1       35.6320   26.2090  -10.8420 N.ar  127  TRP127     -0.2442
     78  CE2       36.2100   25.2520  -11.6320 C.ar  127  TRP127      0.0810
     79  CE3       37.9610   23.5810  -11.4450 C.ar  127  TRP127      0.0012
     80  CZ2       35.9430   24.8950  -12.9540 C.ar  127  TRP127      0.0191
     81  CZ3       37.6910   23.2230  -12.7630 C.ar  127  TRP127      0.0001
     82  CH2       36.6900   23.8840  -13.5030 C.ar  127  TRP127      0.0015
     83  N         39.0050   23.2110   -5.7360 N.am  128  VAL128     -0.1980
     84  CA        40.0120   22.4450   -5.0010 C.3   128  VAL128      0.1595
     85  C         39.5330   20.9990   -4.8510 C.2   128  VAL128      0.2287
     86  O         40.2680   20.0650   -5.1850 O.2   128  VAL128     -0.2864
     87  CB        40.3470   23.0760   -3.6240 C.3   128  VAL128      0.0276
     88  CG1       41.1230   22.0930   -2.7340 C.3   128  VAL128      0.0022
     89  CG2       41.1290   24.3730   -3.8070 C.3   128  VAL128      0.0022
     90  N         39.7030   18.9840   -8.2510 N.3   131  PHE131     -0.1241
     91  CA        41.0510   18.5290   -8.6050 C.3   131  PHE131      0.1605
     92  C         41.5060   17.3860   -7.7060 C.2   131  PHE131      0.2264
     93  O         41.9340   16.3430   -8.1910 O.2   131  PHE131     -0.2867
     94  CB        42.0620   19.6870   -8.5540 C.3   131  PHE131      0.0534
     95  CG        42.0770   20.5470   -9.7980 C.ar  131  PHE131     -0.0203
     96  CD1       42.6140   20.0660  -10.9900 C.ar  131  PHE131     -0.0042
     97  CD2       41.5540   21.8370   -9.7770 C.ar  131  PHE131     -0.0042
     98  CE1       42.6250   20.8600  -12.1470 C.ar  131  PHE131     -0.0003
     99  CE2       41.5630   22.6410  -10.9280 C.ar  131  PHE131     -0.0003
    100  CZ        42.0990   22.1490  -12.1120 C.ar  131  PHE131     -0.0000
@<TRIPOS>BOND
     1    17    18    1
     2    25    23   ar
     3    25    27   ar
     4    23    22   ar
     5    18    19    1
     6    18    21    1
     7    20    19    2
     8     9    10    1
     9    27    26   ar
    10    12    11    2
    11    16    14    1
    12    22    21    1
    13    22    24   ar
    14    10    11    1
    15    10    13    1
    16    14    13    1
    17    14    15    1
    18    26    24   ar
    19     4     3    2
    20     3     2    1
    21     2     1    1
    22     2     5    1
    23     8     6    1
    24    35    37   ar
    25    35    33   ar
    26    37    38   ar
    27     5     6    1
    28    45    44    1
    29     6     7    1
    30    32    33    1
    31    32    29    1
    32    33    34   ar
    33    38    36   ar
    34    30    29    1
    35    30    31    2
    36    44    43    1
    37    44    46    1
    38    29    28    1
    39    34    36   ar
    40    43    40    1
    41    40    41    1
    42    40    39    1
    43    41    42    2
    44    82    80   ar
    45    82    81   ar
    46    80    78   ar
    47    81    79   ar
    48    98   100   ar
    49    98    96   ar
    50   100    99   ar
    51    78    76   ar
    52    78    77   ar
    53    79    76   ar
    54    96    95   ar
    55    99    97   ar
    56    76    74   ar
    57    77    75   ar
    58    95    97   ar
    59    95    94    1
    60    75    74   ar
    61    74    73    1
    62    91    94    1
    63    91    90    1
    64    91    92    1
    65    73    70    1
    66    93    92    2
    67    62    60    1
    68    70    71    1
    69    70    69    1
    70    72    71    2
    71    63    61    1
    72    71    83   am
    73    61    60    1
    74    54    55    1
    75    54    53    1
    76    60    57    1
    77    59    58    2
    78    53    52    1
    79    83    84    1
    80    58    57    1
    81    58    64   am
    82    57    56    1
    83    52    51    1
    84    86    85    2
    85    64    65    1
    86    65    66    1
    87    65    68    1
    88    84    85    1
    89    84    87    1
    90    67    66    2
    91    51    48    1
    92    48    47    1
    93    48    49    1
    94    50    49    2
    95    89    87    1
    96    87    88    1
