@<TRIPOS>MOLECULE
tmp/2ydwB00.pdb
 162 161 0 0 0
SMALL
GASTEIGER

@<TRIPOS>ATOM
      1  N          6.2460   15.0230   18.1280 N.3    21  TRP21      -0.1228
      2  CA         5.7870   14.2010   16.9880 C.3    21  TRP21       0.1722
      3  C          4.6090   13.2540   17.2490 C.2    21  TRP21       0.2437
      4  O          3.7410   13.1150   16.3820 O.2    21  TRP21      -0.2733
      5  CB         6.9520   13.4430   16.3100 C.3    21  TRP21       0.0563
      6  CG         7.6740   12.4590   17.1710 C.ar   21  TRP21       0.0003
      7  CD1        8.7240   12.7180   17.9890 C.ar   21  TRP21       0.0946
      8  CD2        7.4090   11.0550   17.2880 C.ar   21  TRP21       0.0152
      9  NE1        9.1260   11.5720   18.6240 N.ar   21  TRP21      -0.2442
     10  CE2        8.3380   10.5330   18.2070 C.ar   21  TRP21       0.0810
     11  CE3        6.4790   10.1890   16.7010 C.ar   21  TRP21       0.0012
     12  CZ2        8.3660    9.1820   18.5600 C.ar   21  TRP21       0.0191
     13  CZ3        6.5080    8.8440   17.0500 C.ar   21  TRP21       0.0001
     14  CH2        7.4440    8.3560   17.9700 C.ar   21  TRP21       0.0015
     15  N          4.5650   12.5910   18.4210 N.am   22  PRO22      -0.2718
     16  CA         3.4130   11.7100   18.6350 C.3    22  PRO22       0.1535
     17  C          2.0890   12.4580   18.7990 C.2    22  PRO22       0.2598
     18  O          1.0310   11.8850   18.5550 O.2    22  PRO22      -0.2715
     19  CB         3.7650   10.9750   19.9380 C.3    22  PRO22       0.0310
     20  CG         5.2250   11.2320   20.1640 C.3    22  PRO22       0.0237
     21  CD         5.4620   12.5800   19.5870 C.3    22  PRO22       0.0939
     22  N          2.1600   13.7260   19.2000 N.am   23  PHE23      -0.1974
     23  CA         0.9770   14.5270   19.4970 C.3    23  PHE23       0.1639
     24  C          0.5540   15.4650   18.3720 C.2    23  PHE23       0.2290
     25  O         -0.3910   16.2300   18.5380 O.2    23  PHE23      -0.2864
     26  CB         1.2300   15.3480   20.7620 C.3    23  PHE23       0.0560
     27  CG         1.6700   14.5250   21.9340 C.ar   23  PHE23      -0.0200
     28  CD1        0.7400   13.8350   22.7070 C.ar   23  PHE23      -0.0042
     29  CD2        3.0140   14.4250   22.2580 C.ar   23  PHE23      -0.0042
     30  CE1        1.1460   13.0700   23.7880 C.ar   23  PHE23      -0.0003
     31  CE2        3.4250   13.6620   23.3350 C.ar   23  PHE23      -0.0003
     32  CZ         2.4910   12.9860   24.1050 C.ar   23  PHE23      -0.0000
     33  N         -0.8320   14.8380   15.5020 N.3    25  GLN25      -0.1245
     34  CA        -2.0350   14.3950   14.7970 C.3    25  GLN25       0.1566
     35  C         -2.8640   13.4710   15.7050 C.2    25  GLN25       0.2260
     36  O         -2.3210   12.8830   16.6440 O.2    25  GLN25      -0.2867
     37  CB        -1.6550   13.6700   13.4950 C.3    25  GLN25       0.0367
     38  CG        -0.7610   12.4270   13.6750 C.3    25  GLN25       0.0905
     39  CD         0.6720   12.7600   14.0960 C.2    25  GLN25       0.2608
     40  OE1        1.3450   13.5840   13.4680 O.2    25  GLN25      -0.2717
     41  NE2        1.1420   12.1130   15.1590 N.am   25  GLN25      -0.0878
     42  N         -4.5290   10.3310   17.4130 N.3    27  VAL27      -0.1245
     43  CA        -4.1280    8.9290   17.5320 C.3    27  VAL27       0.1561
     44  C         -4.9450    8.0850   16.5480 C.2    27  VAL27       0.2260
     45  O         -6.1800    8.1080   16.5760 O.2    27  VAL27      -0.2867
     46  CB        -4.3370    8.4090   18.9790 C.3    27  VAL27       0.0252
     47  CG1       -4.1710    6.8940   19.0580 C.3    27  VAL27       0.0019
     48  CG2       -3.3790    9.1030   19.9380 C.3    27  VAL27       0.0019
     49  N         -1.9640    2.1800   14.6050 N.3    32  LEU32      -0.1231
     50  CA        -1.1390    1.8760   15.7790 C.3    32  LEU32       0.1693
     51  C         -1.4550    0.5060   16.3900 C.2    32  LEU32       0.2593
     52  O         -0.6850    0.0020   17.2080 O.2    32  LEU32      -0.2718
     53  CB        -1.2850    2.9780   16.8420 C.3    32  LEU32       0.0284
     54  CG        -0.8230    4.3810   16.4190 C.3    32  LEU32       0.0019
     55  CD1       -1.0450    5.3970   17.5330 C.3    32  LEU32       0.0001
     56  CD2        0.6360    4.3690   15.9910 C.3    32  LEU32       0.0001
     57  N         -2.5810   -0.0880   15.9960 N.am   33  GLY33      -0.1942
     58  CA        -2.9650   -1.4170   16.4650 C.3    33  GLY33       0.2014
     59  C         -3.4180   -1.4090   17.9120 C.2    33  GLY33       0.2639
     60  O         -3.0690   -2.3060   18.6820 O.2    33  GLY33      -0.2714
     61  N         -4.1940   -0.3880   18.2760 N.am   34  LEU34      -0.1963
     62  CA        -4.7360   -0.2390   19.6250 C.3    34  LEU34       0.1713
     63  C         -6.2580   -0.3980   19.5750 C.2    34  LEU34       0.2458
     64  O         -6.9810    0.5960   19.6200 O.2    34  LEU34      -0.2730
     65  CB        -4.3730    1.1380   20.1970 C.3    34  LEU34       0.0310
     66  CG        -2.9620    1.6500   19.9140 C.3    34  LEU34       0.0022
     67  CD1       -2.7070    2.9680   20.6380 C.3    34  LEU34       0.0001
     68  CD2       -1.9370    0.6090   20.3030 C.3    34  LEU34       0.0001
     69  N         -6.7540   -1.6470   19.4860 N.am   35  PRO35      -0.2716
     70  CA        -8.2010   -1.8740   19.3760 C.3    35  PRO35       0.1536
     71  C         -9.0430   -1.2570   20.5040 C.2    35  PRO35       0.2599
     72  O        -10.2000   -0.9120   20.2720 O.2    35  PRO35      -0.2715
     73  CB        -8.3280   -3.4090   19.3880 C.3    35  PRO35       0.0310
     74  CG        -7.0330   -3.9150   19.9050 C.3    35  PRO35       0.0237
     75  CD        -6.0060   -2.9170   19.4950 C.3    35  PRO35       0.0939
     76  N         -8.4660   -1.1110   21.6990 N.am   36  ASP36      -0.1958
     77  CA        -9.2060   -0.6180   22.8690 C.3    36  ASP36       0.1840
     78  C         -9.0340    0.8860   23.1460 C.2    36  ASP36       0.2622
     79  O         -9.5900    1.4030   24.1190 O.2    36  ASP36      -0.2715
     80  CB        -8.8200   -1.4250   24.1210 C.3    36  ASP36       0.1450
     81  CG        -7.3680   -1.2090   24.5460 C.2    36  ASP36       0.3671
     82  OD1       -6.5100   -0.9350   23.6760 O.co2  36  ASP36      -0.2456
     83  OD2       -7.0820   -1.3230   25.7560 O.co2  36  ASP36      -0.2456
     84  N         -8.2890    1.5910   22.2970 N.am   37  TYR37      -0.1974
     85  CA        -7.9760    2.9950   22.5700 C.3    37  TYR37       0.1639
     86  C         -9.2370    3.8310   22.7950 C.2    37  TYR37       0.2290
     87  O         -9.3330    4.5460   23.7840 O.2    37  TYR37      -0.2864
     88  CB        -7.1160    3.6230   21.4580 C.3    37  TYR37       0.0560
     89  CG        -6.6420    5.0230   21.8130 C.ar   37  TYR37      -0.0198
     90  CD1       -5.4530    5.2260   22.5100 C.ar   37  TYR37      -0.0009
     91  CD2       -7.4020    6.1410   21.4820 C.ar   37  TYR37      -0.0009
     92  CE1       -5.0290    6.5050   22.8560 C.ar   37  TYR37       0.0417
     93  CE2       -6.9870    7.4180   21.8220 C.ar   37  TYR37       0.0417
     94  CZ        -5.8010    7.5940   22.5110 C.ar   37  TYR37       0.1957
     95  OH        -5.3880    8.8620   22.8490 O.3    37  TYR37      -0.2866
     96  N         -2.9670   10.4870   27.3940 N.3    76  CYS76      -0.1235
     97  CA        -1.7230    9.7670   27.2680 C.3    76  CYS76       0.1677
     98  C         -1.3620    9.0410   28.5770 C.2    76  CYS76       0.2270
     99  O         -0.9600    7.8750   28.5530 O.2    76  CYS76      -0.2867
    100  CB        -0.6330   10.7450   26.8370 C.3    76  CYS76       0.0956
    101  SG         0.9800   10.0400   26.7410 S.3    76  CYS76      -0.0801
    102  N         -4.1110    6.0740   29.2350 N.3    79  TYR79      -0.1227
    103  CA        -4.0680    4.9060   28.3630 C.3    79  TYR79       0.1736
    104  C         -2.7800    4.0940   28.5280 C.2    79  TYR79       0.2595
    105  O         -2.8180    2.8610   28.5960 O.2    79  TYR79      -0.2718
    106  CB        -4.2410    5.2980   26.8920 C.3    79  TYR79       0.0548
    107  CG        -4.2300    4.0810   25.9960 C.ar   79  TYR79      -0.0200
    108  CD1       -5.3170    3.2160   25.9650 C.ar   79  TYR79      -0.0009
    109  CD2       -3.1150    3.7650   25.2230 C.ar   79  TYR79      -0.0009
    110  CE1       -5.3100    2.0860   25.1720 C.ar   79  TYR79       0.0417
    111  CE2       -3.1010    2.6350   24.4230 C.ar   79  TYR79       0.0417
    112  CZ        -4.2030    1.7980   24.4030 C.ar   79  TYR79       0.1957
    113  OH        -4.2010    0.6690   23.6170 O.3    79  TYR79      -0.2866
    114  N         -1.6450    4.7840   28.5930 N.am   80  ASN80      -0.1960
    115  CA        -0.3430    4.1230   28.5170 C.3    80  ASN80       0.1819
    116  C          0.1760    3.6220   29.8640 C.2    80  ASN80       0.2621
    117  O         -0.2810    4.0530   30.9210 O.2    80  ASN80      -0.2715
    118  CB         0.6720    5.0530   27.8620 C.3    80  ASN80       0.1195
    119  CG         0.3260    5.3510   26.4190 C.2    80  ASN80       0.2630
    120  OD1        0.5810    4.5380   25.5310 O.2    80  ASN80      -0.2716
    121  ND2       -0.2740    6.5110   26.1800 N.am   80  ASN80      -0.0877
    122  N          1.1250    2.6930   29.8110 N.am   81  LYS81      -0.1977
    123  CA         1.7460    2.1660   31.0230 C.3    81  LYS81       0.1596
    124  C          2.7380    3.2040   31.5660 C.2    81  LYS81       0.2287
    125  O          3.3010    3.9780   30.7880 O.2    81  LYS81      -0.2864
    126  CB         2.4470    0.8250   30.7490 C.3    81  LYS81       0.0298
    127  CG         1.5510   -0.2440   30.1020 C.3    81  LYS81       0.0038
    128  CD         0.4400   -0.7380   31.0450 C.3    81  LYS81       0.0206
    129  CE        -0.7440   -1.3510   30.2840 C.3    81  LYS81       0.1093
    130  NZ        -1.7830   -0.3430   29.9320 N.3    81  LYS81      -0.1314
    131  N          6.2520    3.5780   29.9440 N.3    84  ASP84      -0.1225
    132  CA         6.3260    3.9520   28.5290 C.3    84  ASP84       0.1805
    133  C          7.0120    5.2990   28.3320 C.2    84  ASP84       0.2598
    134  O          6.8430    6.2170   29.1380 O.2    84  ASP84      -0.2718
    135  CB         4.9280    4.0140   27.8950 C.3    84  ASP84       0.1424
    136  CG         4.3500    2.6420   27.5990 C.2    84  ASP84       0.3668
    137  OD1        5.1110    1.6510   27.6020 O.co2  84  ASP84      -0.2456
    138  OD2        3.1250    2.5580   27.3460 O.co2  84  ASP84      -0.2456
    139  N          7.7700    5.4040   27.2420 N.am   85  ASP85      -0.1960
    140  CA         8.4910    6.6270   26.8940 C.3    85  ASP85       0.1840
    141  C          7.5400    7.7960   26.6520 C.2    85  ASP85       0.2621
    142  O          7.8370    8.9220   27.0500 O.2    85  ASP85      -0.2715
    143  CB         9.3370    6.4220   25.6350 C.3    85  ASP85       0.1450
    144  CG        10.4560    5.3970   25.8200 C.2    85  ASP85       0.3671
    145  OD1       10.4900    4.6910   26.8510 O.co2  85  ASP85      -0.2456
    146  OD2       11.3070    5.3000   24.9130 O.co2  85  ASP85      -0.2456
    147  N          6.4080    7.5230   25.9960 N.am   86  ILE86      -0.1977
    148  CA         5.4010    8.5500   25.7040 C.3    86  ILE86       0.1596
    149  C          4.9750    9.2780   26.9820 C.2    86  ILE86       0.2287
    150  O          4.6970   10.4770   26.9520 O.2    86  ILE86      -0.2864
    151  CB         4.1440    7.9600   24.9650 C.3    86  ILE86       0.0276
    152  CG1        3.2500    9.0700   24.3990 C.3    86  ILE86       0.0022
    153  CG2        3.3170    7.0670   25.8900 C.3    86  ILE86       0.0022
    154  CD1        3.8660    9.8600   23.2670 C.3    86  ILE86       0.0001
    155  N          7.5860   11.7410   27.7310 N.3    89  MET89      -0.1245
    156  CA         7.4490   12.7650   26.6970 C.3    89  MET89       0.1570
    157  C          6.3200   13.7400   27.0190 C.2    89  MET89       0.2261
    158  O          6.4980   14.9530   26.9070 O.2    89  MET89      -0.2867
    159  CB         7.2120   12.1190   25.3320 C.3    89  MET89       0.0387
    160  CG         8.4210   11.3590   24.8170 C.3    89  MET89       0.0595
    161  SD         8.0410   10.2860   23.4380 S.3    89  MET89      -0.1393
    162  CE         8.0440   11.4500   22.0840 C.3    89  MET89       0.0692
@<TRIPOS>BOND
     1    40    39    2
     2    37    38    1
     3    37    34    1
     4    38    39    1
     5    39    41   am
     6    49    50    1
     7    34    33    1
     8    34    35    1
     9    35    36    2
    10    50    51    1
    11    50    53    1
    12    56    54    1
    13    57    51   am
    14    57    58    1
    15     5     2    1
    16     5     6    1
    17     4     3    2
    18    51    52    2
    19    54    53    1
    20    54    55    1
    21    58    59    1
    22    44    45    2
    23    44    43    1
    24    11    13   ar
    25    11     8   ar
    26     2     3    1
    27     2     1    1
    28    13    14   ar
    29     6     8   ar
    30     6     7   ar
    31     3    15   am
    32     8    10   ar
    33    42    43    1
    34    43    46    1
    35    59    61   am
    36    59    60    2
    37    14    12   ar
    38     7     9   ar
    39    10    12   ar
    40    10     9   ar
    41    61    62    1
    42    24    25    2
    43    24    23    1
    44    15    16    1
    45    15    21    1
    46    18    17    2
    47    16    17    1
    48    16    19    1
    49    17    22   am
    50    46    47    1
    51    46    48    1
    52    22    23    1
    53    70    73    1
    54    70    69    1
    55    70    71    1
    56    73    74    1
    57    69    75    1
    58    69    63   am
    59    75    74    1
    60    23    26    1
    61    63    64    2
    62    63    62    1
    63    21    20    1
    64    62    65    1
    65    66    65    1
    66    66    68    1
    67    66    67    1
    68    19    20    1
    69    72    71    2
    70    71    76   am
    71    26    27    1
    72    88    89    1
    73    88    85    1
    74    91    89   ar
    75    91    93   ar
    76    76    77    1
    77    89    90   ar
    78    93    94   ar
    79    27    29   ar
    80    27    28   ar
    81   162   161    1
    82    29    31   ar
    83    84    85    1
    84    84    78   am
    85    90    92   ar
    86    94    95    1
    87    94    92   ar
    88    85    86    1
    89    28    30   ar
    90    86    87    2
    91    77    78    1
    92    77    80    1
    93    78    79    2
    94   154   152    1
    95    31    32   ar
    96   161   160    1
    97   113   112    1
    98    82    81   ar
    99    30    32   ar
   100    80    81    1
   101   152   151    1
   102   112   111   ar
   103   112   110   ar
   104   111   109   ar
   105    81    83   ar
   106   160   159    1
   107   146   144   ar
   108   151   148    1
   109   151   153    1
   110   110   108   ar
   111   109   107   ar
   112   159   156    1
   113   120   119    2
   114   143   144    1
   115   143   140    1
   116   148   147    1
   117   148   149    1
   118   144   145   ar
   119   108   107   ar
   120   107   106    1
   121   147   141   am
   122   121   119   am
   123   119   118    1
   124   141   140    1
   125   141   142    2
   126   156   157    1
   127   156   155    1
   128   101   100    1
   129   100    97    1
   130   106   103    1
   131   140   139    1
   132   158   157    2
   133   150   149    2
   134   139   133   am
   135    97    96    1
   136    97    98    1
   137   138   136   ar
   138   136   137   ar
   139   136   135    1
   140   118   115    1
   141   135   132    1
   142   133   132    1
   143   133   134    2
   144   103   104    1
   145   103   102    1
   146   115   114    1
   147   115   116    1
   148   104   114   am
   149   104   105    2
   150   132   131    1
   151    99    98    2
   152   122   116   am
   153   122   123    1
   154   116   117    2
   155   130   129    1
   156   127   126    1
   157   127   128    1
   158   129   128    1
   159   126   123    1
   160   125   124    2
   161   123   124    1
