@<TRIPOS>MOLECULE
tmp/2ydxD00.pdb
 147 142 0 0 0
SMALL
GASTEIGER

@<TRIPOS>ATOM
      1  N         21.4960  -62.2390  -52.4490 N.3    71  ARG71      -0.1231
      2  CA        22.6490  -62.8420  -53.1350 C.3    71  ARG71       0.1694
      3  C         22.8780  -62.2790  -54.5460 C.2    71  ARG71       0.2592
      4  O         23.8360  -62.6720  -55.2270 O.2    71  ARG71      -0.2718
      5  CB        22.5420  -64.3850  -53.1620 C.3    71  ARG71       0.0321
      6  CG        21.2210  -64.9430  -53.6630 C.3    71  ARG71       0.0489
      7  CD        21.4910  -65.9130  -54.7730 C.3    71  ARG71       0.2205
      8  NE        20.2700  -66.5890  -55.2180 N.pl3  71  ARG71      -0.0865
      9  CZ        19.5450  -66.2160  -56.2690 C.cat  71  ARG71       0.5346
     10  NH1       19.9050  -65.1610  -56.9930 N.pl3  71  ARG71       0.1354
     11  NH2       18.4490  -66.8910  -56.6010 N.pl3  71  ARG71       0.1354
     12  N         22.0310  -61.3240  -54.9520 N.am   72  ARG72      -0.1966
     13  CA        22.1510  -60.6800  -56.2560 C.3    72  ARG72       0.1714
     14  C         23.1790  -59.5410  -56.1530 C.2    72  ARG72       0.2458
     15  O         22.9340  -58.5900  -55.3980 O.2    72  ARG72      -0.2730
     16  CB        20.7880  -60.1740  -56.7630 C.3    72  ARG72       0.0347
     17  CG        19.7820  -61.2880  -57.0150 C.3    72  ARG72       0.0492
     18  CD        18.3850  -60.7460  -57.2590 C.3    72  ARG72       0.2205
     19  NE        17.8340  -60.0520  -56.0930 N.pl3  72  ARG72      -0.0865
     20  CZ        16.5480  -59.7670  -55.9310 C.cat  72  ARG72       0.5346
     21  NH1       15.6600  -60.1290  -56.8490 N.pl3  72  ARG72       0.1354
     22  NH2       16.1350  -59.1290  -54.8440 N.pl3  72  ARG72       0.1354
     23  N         24.3350  -59.6210  -56.8830 N.am   73  PRO73      -0.2727
     24  CA        25.3390  -58.5340  -56.7970 C.3    73  PRO73       0.1402
     25  C         24.8090  -57.1960  -57.3420 C.2    73  PRO73       0.2269
     26  O         25.3500  -56.1430  -56.9960 O.2    73  PRO73      -0.2865
     27  CB        26.5220  -59.0670  -57.6150 C.3    73  PRO73       0.0296
     28  CG        25.9390  -60.0900  -58.5320 C.3    73  PRO73       0.0237
     29  CD        24.7670  -60.6880  -57.8160 C.3    73  PRO73       0.0939
     30  N         28.6060  -68.8350  -48.0820 N.3   110  SER110     -0.1202
     31  CA        29.0580  -68.9040  -49.4730 C.3   110  SER110      0.2020
     32  C         30.5620  -69.1880  -49.6460 C.2   110  SER110      0.2619
     33  O         31.3610  -68.8500  -48.7720 O.2   110  SER110     -0.2717
     34  CB        28.7480  -67.5540  -50.1080 C.3   110  SER110      0.2103
     35  OG        29.2220  -67.4410  -51.4350 O.3   110  SER110     -0.2182
     36  N         30.9590  -69.7340  -50.8130 N.am  111  ASP111     -0.1959
     37  CA        32.3810  -69.9470  -51.1200 C.3   111  ASP111      0.1840
     38  C         33.0470  -68.5870  -51.4490 C.2   111  ASP111      0.2622
     39  O         34.2780  -68.4840  -51.4580 O.2   111  ASP111     -0.2715
     40  CB        32.5790  -70.9740  -52.2680 C.3   111  ASP111      0.1450
     41  CG        32.0760  -70.5990  -53.6660 C.2   111  ASP111      0.3671
     42  OD1       31.1560  -69.7500  -53.7670 O.co2 111  ASP111     -0.2456
     43  OD2       32.5480  -71.2190  -54.6560 O.co2 111  ASP111     -0.2456
     44  N         32.2100  -67.5330  -51.6370 N.am  112  TYR112     -0.1974
     45  CA        32.6040  -66.1660  -51.9600 C.3   112  TYR112      0.1639
     46  C         33.2490  -65.4310  -50.7750 C.2   112  TYR112      0.2290
     47  O         33.6540  -64.2730  -50.9320 O.2   112  TYR112     -0.2864
     48  CB        31.4080  -65.3790  -52.5250 C.3   112  TYR112      0.0560
     49  CG        31.3870  -65.3540  -54.0420 C.ar  112  TYR112     -0.0198
     50  CD1       31.7390  -66.4790  -54.7860 C.ar  112  TYR112     -0.0009
     51  CD2       31.0180  -64.2060  -54.7350 C.ar  112  TYR112     -0.0009
     52  CE1       31.7420  -66.4540  -56.1810 C.ar  112  TYR112      0.0417
     53  CE2       30.9920  -64.1770  -56.1290 C.ar  112  TYR112      0.0417
     54  CZ        31.3570  -65.3030  -56.8480 C.ar  112  TYR112      0.1957
     55  OH        31.3460  -65.2630  -58.2200 O.3   112  TYR112     -0.2866
     56  N         29.1990  -58.7300  -51.4120 N.3   133  TYR133     -0.1241
     57  CA        28.3570  -59.8800  -51.1010 C.3   133  TYR133      0.1605
     58  C         29.1010  -60.8790  -50.1990 C.2   133  TYR133      0.2264
     59  O         28.5480  -61.2960  -49.1810 O.2   133  TYR133     -0.2867
     60  CB        27.8530  -60.5620  -52.3700 C.3   133  TYR133      0.0534
     61  CG        27.2130  -61.9120  -52.1160 C.ar  133  TYR133     -0.0201
     62  CD1       25.9680  -62.0120  -51.5000 C.ar  133  TYR133     -0.0009
     63  CD2       27.8590  -63.0920  -52.4790 C.ar  133  TYR133     -0.0009
     64  CE1       25.4000  -63.2520  -51.2170 C.ar  133  TYR133      0.0417
     65  CE2       27.2870  -64.3370  -52.2280 C.ar  133  TYR133      0.0417
     66  CZ        26.0490  -64.4130  -51.6090 C.ar  133  TYR133      0.1957
     67  OH        25.4740  -65.6370  -51.3610 O.3   133  TYR133     -0.2866
     68  N         28.6620  -73.2090  -49.0020 N.3   156  ILE156     -0.1231
     69  CA        28.3020  -73.9090  -50.2380 C.3   156  ILE156      0.1678
     70  C         28.6270  -73.0620  -51.4860 C.2   156  ILE156      0.2434
     71  O         28.6240  -71.8330  -51.3960 O.2   156  ILE156     -0.2733
     72  CB        26.8070  -74.3170  -50.2140 C.3   156  ILE156      0.0265
     73  CG1       25.8840  -73.1290  -49.8670 C.3   156  ILE156      0.0019
     74  CG2       26.5860  -75.5100  -49.2750 C.3   156  ILE156      0.0020
     75  CD1       24.5030  -73.2860  -50.3420 C.3   156  ILE156      0.0001
     76  N         28.8900  -73.6880  -52.6630 N.am  157  PRO157     -0.2718
     77  CA        29.1940  -72.9020  -53.8700 C.3   157  PRO157      0.1535
     78  C         27.9500  -72.6750  -54.7490 C.2   157  PRO157      0.2598
     79  O         26.8370  -72.9070  -54.2910 O.2   157  PRO157     -0.2715
     80  CB        30.2250  -73.7860  -54.5780 C.3   157  PRO157      0.0310
     81  CG        30.0070  -75.1890  -54.0210 C.3   157  PRO157      0.0237
     82  CD        28.9570  -75.1300  -52.9730 C.3   157  PRO157      0.0939
     83  N         28.1430  -72.2700  -56.0170 N.am  158  ILE158     -0.1964
     84  CA        27.0810  -71.9950  -56.9950 C.3   158  ILE158      0.1727
     85  C         25.9880  -73.0940  -56.9900 C.2   158  ILE158      0.2616
     86  O         26.2750  -74.2910  -57.1120 O.2   158  ILE158     -0.2715
     87  CB        27.6590  -71.7640  -58.4100 C.3   158  ILE158      0.0290
     88  CG1       26.6060  -71.1600  -59.3600 C.3   158  ILE158      0.0022
     89  CG2       28.3670  -73.0100  -58.9870 C.3   158  ILE158      0.0023
     90  CD1       27.1840  -70.6000  -60.5860 C.3   158  ILE158      0.0001
     91  N         24.7290  -72.6590  -56.8430 N.am  159  LEU159     -0.1977
     92  CA        23.5850  -73.5480  -56.7670 C.3   159  LEU159      0.1596
     93  C         22.7420  -73.5440  -57.9890 C.2   159  LEU159      0.2287
     94  O         22.5850  -72.5180  -58.6610 O.2   159  LEU159     -0.2864
     95  CB        22.6970  -73.1680  -55.5930 C.3   159  LEU159      0.0297
     96  CG        23.2970  -73.2720  -54.2340 C.3   159  LEU159      0.0022
     97  CD1       22.3260  -72.7430  -53.2290 C.3   159  LEU159      0.0001
     98  CD2       23.7340  -74.6940  -53.9480 C.3   159  LEU159      0.0001
     99  N         16.4370  -67.1970  -64.4560 N.3   167  GLU167     -0.1245
    100  CA        17.2630  -66.2080  -63.7540 C.3   167  GLU167      0.1567
    101  C         17.4690  -66.5620  -62.3060 C.2   167  GLU167      0.2260
    102  O         18.3970  -66.0250  -61.7060 O.2   167  GLU167     -0.2867
    103  CB        16.6890  -64.7810  -63.8610 C.3   167  GLU167      0.0388
    104  CG        15.1710  -64.6730  -63.9090 C.3   167  GLU167      0.1160
    105  CD        14.5230  -64.6770  -65.2890 C.2   167  GLU167      0.3649
    106  OE1       14.9940  -65.4110  -66.1900 O.co2 167  GLU167     -0.2457
    107  OE2       13.5040  -63.9680  -65.4520 O.co2 167  GLU167     -0.2457
    108  N         18.8150  -69.1470  -60.9570 N.3   169  SER169     -0.1202
    109  CA        20.1290  -69.7580  -60.7430 C.3   169  SER169      0.2020
    110  C         21.0940  -69.2970  -61.8050 C.2   169  SER169      0.2618
    111  O         20.7090  -69.1690  -62.9580 O.2   169  SER169     -0.2717
    112  CB        20.0500  -71.2800  -60.7450 C.3   169  SER169      0.2103
    113  OG        21.3350  -71.8740  -60.8420 O.3   169  SER169     -0.2182
    114  N         22.3560  -69.0850  -61.4240 N.am  170  ALA170     -0.1979
    115  CA        23.4250  -68.6390  -62.3070 C.3   170  ALA170      0.1597
    116  C         23.7820  -69.7270  -63.3190 C.2   170  ALA170      0.2287
    117  O         24.3070  -69.4130  -64.3920 O.2   170  ALA170     -0.2864
    118  CB        24.6460  -68.2560  -61.4880 C.3   170  ALA170      0.0319
    119  N         20.5080  -69.7600  -66.0070 N.3   173  VAL173     -0.1245
    120  CA        20.2640  -68.6380  -66.9490 C.3   173  VAL173      0.1561
    121  C         20.7770  -68.8990  -68.3680 C.2   173  VAL173      0.2260
    122  O         20.2020  -68.3970  -69.3400 O.2   173  VAL173     -0.2867
    123  CB        20.7930  -67.2770  -66.5190 C.3   173  VAL173      0.0252
    124  CG1       19.6570  -66.3010  -66.3350 C.3   173  VAL173      0.0019
    125  CG2       21.7000  -67.3510  -65.3090 C.3   173  VAL173      0.0019
    126  N         34.0920  -73.2100  -61.1630 N.3   193  ARG193     -0.1245
    127  CA        32.8940  -73.3590  -60.3370 C.3   193  ARG193      0.1563
    128  C         32.5980  -74.8260  -60.0280 C.2   193  ARG193      0.2260
    129  O         33.0470  -75.7340  -60.7390 O.2   193  ARG193     -0.2867
    130  CB        31.6770  -72.7260  -61.0330 C.3   193  ARG193      0.0307
    131  CG        31.8820  -71.2880  -61.4810 C.3   193  ARG193      0.0489
    132  CD        31.8150  -70.3190  -60.3320 C.3   193  ARG193      0.2205
    133  NE        30.8460  -69.2690  -60.6270 N.pl3 193  ARG193     -0.0865
    134  CZ        30.2810  -68.4990  -59.7080 C.cat 193  ARG193      0.5346
    135  NH1       30.5860  -68.6520  -58.4240 N.pl3 193  ARG193      0.1354
    136  NH2       29.3990  -67.5760  -60.0620 N.pl3 193  ARG193      0.1354
    137  N         35.9750  -61.3290  -58.3210 N.3   263  ARG263     -0.1245
    138  CA        35.4350  -62.6980  -58.3210 C.3   263  ARG263      0.1563
    139  C         36.5450  -63.7330  -58.0310 C.2   263  ARG263      0.2260
    140  O         37.6170  -63.6530  -58.6380 O.2   263  ARG263     -0.2867
    141  CB        34.7300  -63.0360  -59.6610 C.3   263  ARG263      0.0307
    142  CG        33.6660  -62.0400  -60.1560 C.3   263  ARG263      0.0489
    143  CD        32.2850  -62.2750  -59.5640 C.3   263  ARG263      0.2205
    144  NE        31.2280  -61.6480  -60.3650 N.pl3 263  ARG263     -0.0865
    145  CZ        29.9400  -61.6120  -60.0250 C.cat 263  ARG263      0.5346
    146  NH1       29.5290  -62.1610  -58.8860 N.pl3 263  ARG263      0.1354
    147  NH2       29.0540  -61.0210  -60.8180 N.pl3 263  ARG263      0.1354
@<TRIPOS>BOND
     1   122   121    2
     2   121   120    1
     3   120   123    1
     4   120   119    1
     5   123   124    1
     6   123   125    1
     7   106   105   ar
     8   107   105   ar
     9   105   104    1
    10    99   100    1
    11   117   116    2
    12   104   103    1
    13   103   100    1
    14   100   101    1
    15   116   115    1
    16   111   110    2
    17   115   118    1
    18   115   114    1
    19   101   102    2
    20   110   114   am
    21   110   109    1
    22   131   130    1
    23   131   132    1
    24   126   127    1
    25   130   127    1
    26   108   109    1
    27   113   112    1
    28   147   145    1
    29   112   109    1
    30   129   128    2
    31   133   132    1
    32   133   134    2
    33    90    88    1
    34   144   145    2
    35   144   143    1
    36   127   128    1
    37   142   141    1
    38   142   143    1
    39   136   134    1
    40   145   146    1
    41   134   135    1
    42   141   138    1
    43    88    87    1
    44    89    87    1
    45    94    93    2
    46   140   139    2
    47    28    29    1
    48    28    27    1
    49    87    84    1
    50   137   138    1
    51   138   139    1
    52    55    54    1
    53    93    92    1
    54    29    23    1
    55    27    24    1
    56    25    26    2
    57    25    24    1
    58    18    17    1
    59    18    19    1
    60    86    85    2
    61    17    16    1
    62    84    85    1
    63    84    83    1
    64    10     9    1
    65    85    91   am
    66    23    24    1
    67    23    14   am
    68    21    20    1
    69    54    52   ar
    70    54    53   ar
    71    91    92    1
    72    92    95    1
    73    16    13    1
    74    11     9    1
    75     9     8    2
    76    13    14    1
    77    13    12    1
    78    52    50   ar
    79    14    15    2
    80    53    51   ar
    81    19    20    2
    82    83    78   am
    83    20    22    1
    84    95    96    1
    85     4     3    2
    86     8     7    1
    87    12     3   am
    88    50    49   ar
    89     7     6    1
    90    78    79    2
    91    78    77    1
    92    51    49   ar
    93    43    41   ar
    94    80    81    1
    95    80    77    1
    96     3     2    1
    97    96    98    1
    98    96    97    1
    99    49    48    1
   100    81    82    1
   101    77    76    1
   102    42    41   ar
   103    41    40    1
   104     6     5    1
   105     5     2    1
   106     2     1    1
   107    82    76    1
   108    76    70   am
   109    48    45    1
   110    63    65   ar
   111    63    61   ar
   112    60    61    1
   113    60    57    1
   114    40    37    1
   115    65    66   ar
   116    61    62   ar
   117    45    44    1
   118    45    46    1
   119    44    38   am
   120    66    67    1
   121    66    64   ar
   122    62    64   ar
   123    70    71    2
   124    70    69    1
   125    39    38    2
   126    38    37    1
   127    35    34    1
   128    56    57    1
   129    37    36    1
   130    57    58    1
   131    47    46    2
   132    36    32   am
   133    75    73    1
   134    69    72    1
   135    69    68    1
   136    72    73    1
   137    72    74    1
   138    58    59    2
   139    34    31    1
   140    32    31    1
   141    32    33    2
   142    31    30    1
