@<TRIPOS>MOLECULE
tmp/2ye3A00.pdb
 123 112 0 0 0
SMALL
GASTEIGER

@<TRIPOS>ATOM
      1  N         64.0480   32.9140   33.8910 N.3    33  LEU33      -0.1245
      2  CA        63.4430   32.4540   32.6130 C.3    33  LEU33       0.1561
      3  C         62.1210   33.1590   32.2310 C.2    33  LEU33       0.2260
      4  O         61.8850   33.4800   31.0840 O.2    33  LEU33      -0.2867
      5  CB        63.2160   30.8990   32.6980 C.3    33  LEU33       0.0270
      6  CG        64.4920   30.0230   32.8280 C.3    33  LEU33       0.0019
      7  CD1       64.1440   28.5050   33.0230 C.3    33  LEU33       0.0001
      8  CD2       65.5220   30.3120   31.6650 C.3    33  LEU33       0.0001
      9  N         63.0140   36.5910   30.9750 N.3    36  ASN36      -0.1225
     10  CA        63.4650   36.5270   29.5840 C.3    36  ASN36       0.1785
     11  C         62.2620   36.3740   28.6540 C.2    36  ASN36       0.2597
     12  O         62.2310   36.9340   27.5840 O.2    36  ASN36      -0.2718
     13  CB        64.3540   35.2780   29.4260 C.3    36  ASN36       0.1169
     14  CG        65.7670   35.5360   29.9130 C.2    36  ASN36       0.2627
     15  OD1       66.0200   36.5580   30.5370 O.2    36  ASN36      -0.2716
     16  ND2       66.6510   34.5950   29.6960 N.am   36  ASN36      -0.0877
     17  N         61.3300   35.5180   29.0550 N.am   37  SER37      -0.1952
     18  CA        60.0580   35.3590   28.3140 C.3    37  SER37       0.1924
     19  C         59.3140   36.7110   28.2030 C.2    37  SER37       0.2314
     20  O         58.8360   37.1030   27.1320 O.2    37  SER37      -0.2863
     21  CB        59.1720   34.3240   29.0070 C.3    37  SER37       0.2116
     22  OG        59.5940   33.0200   28.6480 O.3    37  SER37      -0.2180
     23  N         61.0200   38.9050   25.6950 N.3    40  ALA40      -0.1245
     24  CA        60.6690   38.4190   24.3390 C.3    40  ALA40       0.1562
     25  C         59.2130   38.8150   23.9410 C.2    40  ALA40       0.2260
     26  O         58.8970   39.0840   22.7930 O.2    40  ALA40      -0.2867
     27  CB        60.8490   36.8830   24.3170 C.3    40  ALA40       0.0290
     28  N         59.1390   42.4830   23.0330 N.3    43  LYS43      -0.1245
     29  CA        59.6860   42.7660   21.6700 C.3    43  LYS43       0.1561
     30  C         58.6810   42.4830   20.5700 C.2    43  LYS43       0.2260
     31  O         58.5350   43.2580   19.6350 O.2    43  LYS43      -0.2867
     32  CB        61.0110   42.0280   21.3200 C.3    43  LYS43       0.0271
     33  CG        62.2730   42.3240   22.2440 C.3    43  LYS43       0.0035
     34  CD        63.4420   41.2600   21.9890 C.3    43  LYS43       0.0206
     35  CE        64.2910   40.8670   23.2910 C.3    43  LYS43       0.1093
     36  NZ        64.0450   39.4870   23.9770 N.3    43  LYS43      -0.1314
     37  N         56.6910   30.6790   26.1010 N.3    78  ASP78      -0.1239
     38  CA        56.1660   32.0030   25.8240 C.3    78  ASP78       0.1674
     39  C         55.7920   32.1160   24.3430 C.2    78  ASP78       0.2266
     40  O         56.2910   31.3750   23.4740 O.2    78  ASP78      -0.2867
     41  CB        57.1830   33.1220   26.2210 C.3    78  ASP78       0.1410
     42  CG        58.4450   33.0740   25.4020 C.2    78  ASP78       0.3668
     43  OD1       58.3950   33.3920   24.1730 O.co2  78  ASP78      -0.2456
     44  OD2       59.5120   32.7150   26.0040 O.co2  78  ASP78      -0.2456
     45  N         58.8750   36.8670   20.8460 N.3    81  ILE81      -0.1231
     46  CA        59.4820   37.1300   19.5190 C.3    81  ILE81       0.1692
     47  C         60.1560   35.8790   18.8600 C.2    81  ILE81       0.2593
     48  O         60.1550   35.7070   17.6470 O.2    81  ILE81      -0.2718
     49  CB        60.4300   38.3750   19.6110 C.3    81  ILE81       0.0266
     50  CG1       60.8960   38.8380   18.2270 C.3    81  ILE81       0.0019
     51  CG2       61.6820   38.0920   20.4690 C.3    81  ILE81       0.0020
     52  CD1       60.0500   39.7230   17.6180 C.3    81  ILE81       0.0001
     53  N         60.6940   34.9870   19.6780 N.am   82  GLY82      -0.1942
     54  CA        61.3400   33.8220   19.1520 C.3    82  GLY82       0.2014
     55  C         62.7580   34.1300   18.8400 C.2    82  GLY82       0.2638
     56  O         63.2330   35.2830   18.8560 O.2    82  GLY82      -0.2714
     57  N         63.4770   33.0820   18.5400 N.am   83  MET83      -0.1976
     58  CA        64.8810   33.3020   18.1510 C.3    83  MET83       0.1605
     59  C         65.1530   32.7300   16.7730 C.2    83  MET83       0.2287
     60  O         64.6430   31.6660   16.3840 O.2    83  MET83      -0.2864
     61  CB        65.8390   32.7140   19.2390 C.3    83  MET83       0.0413
     62  CG        65.8980   33.5320   20.5350 C.3    83  MET83       0.0598
     63  SD        66.8590   32.7520   21.7920 S.3    83  MET83      -0.1393
     64  CE        65.6610   31.5030   22.2950 C.3    83  MET83       0.0692
     65  N         70.4850   33.8120   16.2240 N.3    87  ASP87      -0.1239
     66  CA        70.2780   34.1880   17.6320 C.3    87  ASP87       0.1674
     67  C         70.6180   33.0300   18.5250 C.2    87  ASP87       0.2266
     68  O         71.3550   33.2150   19.4830 O.2    87  ASP87      -0.2867
     69  CB        68.8200   34.5880   17.9360 C.3    87  ASP87       0.1410
     70  CG        68.4470   35.9720   17.4130 C.2    87  ASP87       0.3668
     71  OD1       69.3420   36.8620   17.4130 O.co2  87  ASP87      -0.2456
     72  OD2       67.2430   36.1340   16.9820 O.co2  87  ASP87      -0.2456
     73  N         71.8520   32.4950   22.4580 N.3    92  LEU92      -0.1231
     74  CA        70.4080   32.7040   22.6390 C.3    92  LEU92       0.1693
     75  C         70.0180   34.2240   22.7310 C.2    92  LEU92       0.2593
     76  O         69.2580   34.6470   23.6000 O.2    92  LEU92      -0.2718
     77  CB        69.8670   31.8790   23.8610 C.3    92  LEU92       0.0284
     78  CG        70.2410   30.3430   23.9020 C.3    92  LEU92       0.0019
     79  CD1       71.4360   30.0320   24.7970 C.3    92  LEU92       0.0001
     80  CD2       69.0760   29.5240   24.3400 C.3    92  LEU92       0.0001
     81  N         70.5790   35.0170   21.8260 N.am   93  GLY93      -0.1942
     82  CA        70.2320   36.4200   21.6810 C.3    93  GLY93       0.2014
     83  C         70.7810   37.3460   22.7250 C.2    93  GLY93       0.2639
     84  O         70.3660   38.5200   22.7700 O.2    93  GLY93      -0.2714
     85  N         71.7740   36.8700   23.4960 N.am   94  THR94      -0.1950
     86  CA        72.3320   37.6250   24.6250 C.3    94  THR94       0.1897
     87  C         73.7520   38.0320   24.3250 C.2    94  THR94       0.2313
     88  O         74.3410   37.4770   23.4190 O.2    94  THR94      -0.2863
     89  CB        72.2940   36.7980   25.9610 C.3    94  THR94       0.1794
     90  OG1       73.2580   35.7380   25.9150 O.3    94  THR94      -0.2208
     91  CG2       70.9260   36.2420   26.2300 C.3    94  THR94       0.0378
     92  N         69.5230   33.2790   31.7560 N.3   123  PHE123     -0.1241
     93  CA        69.2590   31.9550   31.1550 C.3   123  PHE123      0.1605
     94  C         70.0460   30.7850   31.7660 C.2   123  PHE123      0.2264
     95  O         69.4980   29.7290   31.9810 O.2   123  PHE123     -0.2867
     96  CB        69.4580   31.9790   29.6050 C.3   123  PHE123      0.0534
     97  CG        69.3740   30.6320   28.9630 C.ar  123  PHE123     -0.0203
     98  CD1       68.1290   30.0700   28.6540 C.ar  123  PHE123     -0.0042
     99  CD2       70.5520   29.8940   28.6970 C.ar  123  PHE123     -0.0042
    100  CE1       68.0480   28.7810   28.0960 C.ar  123  PHE123     -0.0003
    101  CE2       70.5030   28.6380   28.1320 C.ar  123  PHE123     -0.0003
    102  CZ        69.2670   28.0560   27.8450 C.ar  123  PHE123     -0.0000
    103  N         65.8450   24.0450   24.0790 N.3   135  VAL135     -0.1245
    104  CA        65.1480   25.2900   23.7890 C.3   135  VAL135      0.1561
    105  C         64.5820   25.1210   22.4010 C.2   135  VAL135      0.2260
    106  O         65.3520   25.0720   21.4000 O.2   135  VAL135     -0.2867
    107  CB        66.0990   26.5470   23.8580 C.3   135  VAL135      0.0252
    108  CG1       65.3630   27.8850   23.4560 C.3   135  VAL135      0.0019
    109  CG2       66.7410   26.6750   25.2130 C.3   135  VAL135      0.0019
    110  N         59.1290   30.6940   22.2990 N.3   169  THR169     -0.1218
    111  CA        60.2330   29.8900   22.8060 C.3   169  THR169      0.1862
    112  C         59.6600   28.9520   23.8610 C.2   169  THR169      0.2287
    113  O         58.7650   29.3590   24.6430 O.2   169  THR169     -0.2866
    114  CB        61.3560   30.8360   23.3130 C.3   169  THR169      0.1770
    115  OG1       61.8510   31.5710   22.1900 O.3   169  THR169     -0.2211
    116  CG2       62.5820   30.1220   24.1120 C.3   169  THR169      0.0375
    117  N         61.3900   26.5500   26.8050 N.3   171  VAL171     -0.1245
    118  CA        62.6110   26.1060   27.5600 C.3   171  VAL171      0.1561
    119  C         62.2500   24.8460   28.3590 C.2   171  VAL171      0.2260
    120  O         61.4550   24.8760   29.3360 O.2   171  VAL171     -0.2867
    121  CB        63.1710   27.2320   28.4720 C.3   171  VAL171      0.0252
    122  CG1       64.4250   26.7350   29.3240 C.3   171  VAL171      0.0019
    123  CG2       63.5510   28.4370   27.6510 C.3   171  VAL171      0.0019
@<TRIPOS>BOND
     1    65    66    1
     2    60    59    2
     3    59    58    1
     4    72    70   ar
     5    70    71   ar
     6    70    69    1
     7    52    50    1
     8    66    69    1
     9    66    67    1
    10    48    47    2
    11    58    57    1
    12    58    61    1
    13    50    49    1
    14    67    68    2
    15    57    55   am
    16    55    56    2
    17    55    54    1
    18    47    46    1
    19    47    53   am
    20    54    53    1
    21    61    62    1
    22    46    49    1
    23    46    45    1
    24    49    51    1
    25    31    30    2
    26    62    63    1
    27    30    29    1
    28    32    29    1
    29    32    33    1
    30   106   105    2
    31    29    28    1
    32    82    81    1
    33    82    83    1
    34    63    64    1
    35    81    75   am
    36    34    33    1
    37    34    35    1
    38   115   114    1
    39   110   111    1
    40   105   104    1
    41    73    74    1
    42    74    75    1
    43    74    77    1
    44    83    84    2
    45    83    85   am
    46    75    76    2
    47    26    25    2
    48   111   114    1
    49   111   112    1
    50    35    36    1
    51   114   116    1
    52    88    87    2
    53   108   107    1
    54    40    39    2
    55    85    86    1
    56   104   107    1
    57   104   103    1
    58   107   109    1
    59    77    78    1
    60   112   113    2
    61    78    80    1
    62    78    79    1
    63    25    24    1
    64    43    42   ar
    65    27    24    1
    66    87    86    1
    67    24    23    1
    68    39    38    1
    69    86    89    1
    70    42    44   ar
    71    42    41    1
    72    38    37    1
    73    38    41    1
    74    90    89    1
    75    89    91    1
    76   117   118    1
    77    20    19    2
    78   118   119    1
    79   118   121    1
    80    12    11    2
    81   123   121    1
    82   102   100   ar
    83   102   101   ar
    84   100    98   ar
    85   101    99   ar
    86    19    18    1
    87    18    21    1
    88    18    17    1
    89   119   120    2
    90   121   122    1
    91    22    21    1
    92    11    17   am
    93    11    10    1
    94    98    97   ar
    95    99    97   ar
    96    97    96    1
    97    13    10    1
    98    13    14    1
    99    10     9    1
   100    96    93    1
   101    16    14   am
   102    14    15    2
   103     4     3    2
   104    93    92    1
   105    93    94    1
   106     8     6    1
   107    94    95    2
   108     3     2    1
   109     2     5    1
   110     2     1    1
   111     5     6    1
   112     6     7    1
