@<TRIPOS>MOLECULE
tmp/2ye4A00.pdb
 109 99 0 0 0
SMALL
GASTEIGER

@<TRIPOS>ATOM
      1  N         30.7660   11.1770   16.0210 N.3    33  LEU33      -0.1245
      2  CA        30.1020   11.6600   17.2060 C.3    33  LEU33       0.1561
      3  C         28.7750   10.9860   17.4950 C.2    33  LEU33       0.2260
      4  O         28.4840   10.6920   18.6400 O.2    33  LEU33      -0.2867
      5  CB        29.8810   13.1670   17.1280 C.3    33  LEU33       0.0270
      6  CG        31.0910   14.0860   16.9410 C.3    33  LEU33       0.0019
      7  CD1       30.5720   15.4760   16.9570 C.3    33  LEU33       0.0001
      8  CD2       32.1630   13.8530   18.0350 C.3    33  LEU33       0.0001
      9  N         29.6880    7.7160   18.9630 N.3    36  ASN36      -0.1225
     10  CA        30.1350    7.8880   20.3620 C.3    36  ASN36       0.1785
     11  C         28.9460    7.9460   21.3430 C.2    36  ASN36       0.2597
     12  O         28.9320    7.2930   22.4110 O.2    36  ASN36      -0.2718
     13  CB        30.9590    9.1730   20.5090 C.3    36  ASN36       0.1169
     14  CG        32.4130    9.0030   20.0730 C.2    36  ASN36       0.2627
     15  OD1       32.8210    7.9290   19.6060 O.2    36  ASN36      -0.2716
     16  ND2       33.2040   10.0770   20.2210 N.am   36  ASN36      -0.0877
     17  N         27.9620    8.7630   20.9720 N.am   37  SER37      -0.1952
     18  CA        26.6960    8.8720   21.6840 C.3    37  SER37       0.1924
     19  C         25.9620    7.5270   21.7340 C.2    37  SER37       0.2314
     20  O         25.4800    7.1140   22.7690 O.2    37  SER37      -0.2863
     21  CB        25.8480    9.9180   21.0070 C.3    37  SER37       0.2116
     22  OG        26.4140   11.2050   21.1990 O.3    37  SER37      -0.2180
     23  N         27.6340    5.3240   24.3960 N.3    40  ALA40      -0.1245
     24  CA        27.3950    5.7990   25.7380 C.3    40  ALA40       0.1562
     25  C         25.9640    5.4580   26.1320 C.2    40  ALA40       0.2260
     26  O         25.6350    5.2310   27.2920 O.2    40  ALA40      -0.2867
     27  CB        27.6000    7.3040   25.7710 C.3    40  ALA40       0.0290
     28  N         25.9110    1.9720   27.2630 N.3    43  LYS43      -0.1245
     29  CA        26.4800    1.7750   28.5750 C.3    43  LYS43       0.1561
     30  C         25.4470    2.0410   29.6370 C.2    43  LYS43       0.2260
     31  O         25.4050    1.3340   30.6230 O.2    43  LYS43      -0.2867
     32  CB        27.6910    2.6710   28.8200 C.3    43  LYS43       0.0271
     33  CG        28.9910    2.2180   28.1510 C.3    43  LYS43       0.0035
     34  CD        30.0990    3.2880   28.3020 C.3    43  LYS43       0.0206
     35  CE        31.1500    3.2200   27.1650 C.3    43  LYS43       0.1093
     36  NZ        31.6820    4.6130   26.7690 N.3    43  LYS43      -0.1314
     37  N         23.3280   13.7200   23.7000 N.3    78  ASP78      -0.1239
     38  CA        22.8280   12.3650   24.0240 C.3    78  ASP78       0.1674
     39  C         22.4930   12.1890   25.5010 C.2    78  ASP78       0.2266
     40  O         23.1670   12.7800   26.3750 O.2    78  ASP78      -0.2867
     41  CB        23.7680   11.2470   23.5700 C.3    78  ASP78       0.1410
     42  CG        25.0460   11.1790   24.3780 C.2    78  ASP78       0.3668
     43  OD1       25.0670   10.6970   25.5500 O.co2  78  ASP78      -0.2456
     44  OD2       26.0650   11.5900   23.7930 O.co2  78  ASP78      -0.2456
     45  N         25.4840    7.6460   29.2640 N.3    81  ILE81      -0.1231
     46  CA        26.0140    7.4010   30.5980 C.3    81  ILE81       0.1692
     47  C         26.7280    8.6180   31.2010 C.2    81  ILE81       0.2593
     48  O         26.8030    8.7490   32.4210 O.2    81  ILE81      -0.2718
     49  CB        26.8830    6.0960   30.6550 C.3    81  ILE81       0.0266
     50  CG1       27.1530    5.7030   32.1100 C.3    81  ILE81       0.0019
     51  CG2       28.2050    6.2690   29.9010 C.3    81  ILE81       0.0020
     52  CD1       27.1570    4.2340   32.3540 C.3    81  ILE81       0.0001
     53  N         27.2110    9.5280   30.3570 N.am   82  GLY82      -0.1942
     54  CA        27.8890   10.7280   30.8580 C.3    82  GLY82       0.2014
     55  C         29.3190   10.4340   31.2850 C.2    82  GLY82       0.2638
     56  O         29.7380    9.2630   31.3850 O.2    82  GLY82      -0.2714
     57  N         30.0720   11.4920   31.5490 N.am   83  MET83      -0.1976
     58  CA        31.4390   11.3130   31.9790 C.3    83  MET83       0.1605
     59  C         31.6630   11.8540   33.3900 C.2    83  MET83       0.2287
     60  O         31.1430   12.9130   33.7570 O.2    83  MET83      -0.2864
     61  CB        32.3500   11.9810   30.9710 C.3    83  MET83       0.0413
     62  CG        32.4460   11.2140   29.7110 C.3    83  MET83       0.0598
     63  SD        33.4310   11.9480   28.4120 S.3    83  MET83      -0.1393
     64  CE        32.1920   12.8190   27.5230 C.3    83  MET83       0.0692
     65  N         36.9130   11.0050   33.8890 N.3    87  ASP87      -0.1239
     66  CA        36.7480   10.6270   32.4750 C.3    87  ASP87       0.1674
     67  C         37.0240   11.7950   31.5500 C.2    87  ASP87       0.2266
     68  O         37.8230   11.6460   30.6250 O.2    87  ASP87      -0.2867
     69  CB        35.3790   10.0300   32.1720 C.3    87  ASP87       0.1410
     70  CG        35.1350    8.6870   32.9050 C.2    87  ASP87       0.3668
     71  OD1       36.1450    7.9580   33.1140 O.co2  87  ASP87      -0.2456
     72  OD2       33.9390    8.3840   33.2810 O.co2  87  ASP87      -0.2456
     73  N         38.4370   12.2700   27.4130 N.3    92  LEU92      -0.1231
     74  CA        37.0070   11.9700   27.2170 C.3    92  LEU92       0.1693
     75  C         36.6080   10.4750   27.2040 C.2    92  LEU92       0.2592
     76  O         35.8020   10.0510   26.3870 O.2    92  LEU92      -0.2718
     77  CB        36.4820   12.6880   25.9670 C.3    92  LEU92       0.0284
     78  CG        36.3510   14.2010   26.0700 C.3    92  LEU92       0.0019
     79  CD1       37.5540   14.8920   25.4690 C.3    92  LEU92       0.0001
     80  CD2       35.1130   14.5680   25.3400 C.3    92  LEU92       0.0001
     81  N         37.1800    9.6870   28.1090 N.am   93  GLY93      -0.1957
     82  CA        36.8820    8.2500   28.2060 C.3    93  GLY93       0.1869
     83  C         37.6150    7.2870   27.2500 C.2    93  GLY93       0.2309
     84  O         37.4760    6.0630   27.3870 O.2    93  GLY93      -0.2863
     85  N         36.2070   11.1310   18.5140 N.3   123  PHE123     -0.1241
     86  CA        35.7960   12.4410   19.0290 C.3   123  PHE123      0.1605
     87  C         36.6330   13.5540   18.4060 C.2   123  PHE123      0.2264
     88  O         36.0970   14.5910   18.0280 O.2   123  PHE123     -0.2867
     89  CB        35.8350   12.5220   20.5960 C.3   123  PHE123      0.0534
     90  CG        35.8060   13.9710   21.1530 C.ar  123  PHE123     -0.0203
     91  CD1       34.5960   14.6540   21.3300 C.ar  123  PHE123     -0.0042
     92  CD2       36.9910   14.6420   21.4750 C.ar  123  PHE123     -0.0042
     93  CE1       34.5520   15.9670   21.7780 C.ar  123  PHE123     -0.0003
     94  CE2       36.9690   15.9750   21.9260 C.ar  123  PHE123     -0.0003
     95  CZ        35.7390   16.6320   22.0810 C.ar  123  PHE123     -0.0000
     96  N         25.7750   13.8190   27.6320 N.3   169  THR169     -0.1218
     97  CA        26.8750   14.6210   27.1450 C.3   169  THR169      0.1862
     98  C         26.3570   15.4180   25.9400 C.2   169  THR169      0.2287
     99  O         25.6800   14.8960   25.0750 O.2   169  THR169     -0.2866
    100  CB        28.0260   13.7050   26.7030 C.3   169  THR169      0.1770
    101  OG1       28.4240   12.8370   27.7930 O.3   169  THR169     -0.2211
    102  CG2       29.1890   14.5100   26.1100 C.3   169  THR169      0.0375
    103  N         27.9160   17.7680   22.9550 N.3   171  VAL171     -0.1245
    104  CA        29.1330   18.2290   22.2470 C.3   171  VAL171      0.1561
    105  C         28.7290   19.4390   21.3790 C.2   171  VAL171      0.2260
    106  O         27.9620   19.2940   20.4320 O.2   171  VAL171     -0.2867
    107  CB        29.7950   17.1100   21.4330 C.3   171  VAL171      0.0252
    108  CG1       31.0080   17.6100   20.5780 C.3   171  VAL171      0.0019
    109  CG2       30.2410   15.9370   22.3510 C.3   171  VAL171      0.0019
@<TRIPOS>BOND
     1     1     2    1
     2     6     7    1
     3     6     5    1
     4     6     8    1
     5     5     2    1
     6     2     3    1
     7     3     4    2
     8    88    87    2
     9    87    86    1
    10    85    86    1
    11     9    10    1
    12    86    89    1
    13    15    14    2
    14    14    16   am
    15    14    13    1
    16    10    13    1
    17    10    11    1
    18   106   105    2
    19   108   107    1
    20    89    90    1
    21    17    11   am
    22    17    18    1
    23    21    22    1
    24    21    18    1
    25    90    91   ar
    26    90    92   ar
    27    91    93   ar
    28    11    12    2
    29   105   104    1
    30   107   104    1
    31   107   109    1
    32    92    94   ar
    33    18    19    1
    34    19    20    2
    35    93    95   ar
    36    94    95   ar
    37   104   103    1
    38    41    38    1
    39    41    42    1
    40    37    38    1
    41    44    42   ar
    42    38    39    1
    43    42    43   ar
    44    23    24    1
    45    99    98    2
    46    80    78    1
    47    79    78    1
    48    39    40    2
    49    24    27    1
    50    24    25    1
    51    98    97    1
    52    77    78    1
    53    77    74    1
    54   102   100    1
    55    25    26    2
    56    76    75    2
    57   100    97    1
    58   100   101    1
    59    36    35    1
    60    97    96    1
    61    35    34    1
    62    75    74    1
    63    75    81   am
    64    74    73    1
    65    83    84    2
    66    83    82    1
    67    28    29    1
    68    64    63    1
    69    81    82    1
    70    33    34    1
    71    33    32    1
    72    63    62    1
    73    29    32    1
    74    29    30    1
    75    45    46    1
    76    30    31    2
    77    62    61    1
    78    51    49    1
    79    53    54    1
    80    53    47   am
    81    46    49    1
    82    46    47    1
    83    68    67    2
    84    49    50    1
    85    54    55    1
    86    61    58    1
    87    47    48    2
    88    55    56    2
    89    55    57   am
    90    57    58    1
    91    67    66    1
    92    58    59    1
    93    50    52    1
    94    69    66    1
    95    69    70    1
    96    66    65    1
    97    70    71   ar
    98    70    72   ar
    99    59    60    2
