@<TRIPOS>MOLECULE
tmp/2ye5A00.pdb
 102 91 0 0 0
SMALL
GASTEIGER

@<TRIPOS>ATOM
      1  N         63.5310   32.9960   33.8940 N.3    33  LEU33      -0.1245
      2  CA        62.8710   32.5020   32.6870 C.3    33  LEU33       0.1561
      3  C         61.5530   33.2110   32.2880 C.2    33  LEU33       0.2260
      4  O         61.3410   33.4300   31.1440 O.2    33  LEU33      -0.2867
      5  CB        62.6930   30.9670   32.7550 C.3    33  LEU33       0.0270
      6  CG        63.9500   30.1330   32.8210 C.3    33  LEU33       0.0019
      7  CD1       63.5600   28.6680   33.0650 C.3    33  LEU33       0.0001
      8  CD2       64.9000   30.3470   31.5990 C.3    33  LEU33       0.0001
      9  N         62.4510   36.6110   31.0530 N.3    36  ASN36      -0.1225
     10  CA        62.9040   36.4560   29.7150 C.3    36  ASN36       0.1785
     11  C         61.7400   36.2990   28.7100 C.2    36  ASN36       0.2597
     12  O         61.7950   36.8480   27.6220 O.2    36  ASN36      -0.2718
     13  CB        63.7960   35.2060   29.6350 C.3    36  ASN36       0.1169
     14  CG        65.2280   35.4450   30.0340 C.2    36  ASN36       0.2627
     15  OD1       65.6540   36.5450   30.3450 O.2    36  ASN36      -0.2716
     16  ND2       65.9810   34.3800   30.0510 N.am   36  ASN36      -0.0877
     17  N         60.7340   35.5180   29.0680 N.am   37  SER37      -0.1952
     18  CA        59.4710   35.4030   28.3530 C.3    37  SER37       0.1924
     19  C         58.7350   36.7300   28.1960 C.2    37  SER37       0.2314
     20  O         58.2650   37.0600   27.1450 O.2    37  SER37      -0.2863
     21  CB        58.5380   34.4390   29.0840 C.3    37  SER37       0.2116
     22  OG        58.8760   33.0850   28.9100 O.3    37  SER37      -0.2180
     23  N         60.5100   38.8950   25.6550 N.3    40  ALA40      -0.1245
     24  CA        60.1660   38.3870   24.3320 C.3    40  ALA40       0.1562
     25  C         58.7310   38.7640   23.8510 C.2    40  ALA40       0.2260
     26  O         58.4720   38.9860   22.6930 O.2    40  ALA40      -0.2867
     27  CB        60.3800   36.8950   24.3270 C.3    40  ALA40       0.0290
     28  N         56.1520   30.7460   26.2760 N.3    78  ASP78      -0.1239
     29  CA        55.6330   32.0840   25.9290 C.3    78  ASP78       0.1674
     30  C         55.2770   32.1460   24.4380 C.2    78  ASP78       0.2266
     31  O         55.6860   31.3150   23.6330 O.2    78  ASP78      -0.2867
     32  CB        56.5960   33.2250   26.3090 C.3    78  ASP78       0.1410
     33  CG        57.8810   33.1340   25.6070 C.2    78  ASP78       0.3668
     34  OD1       58.0080   33.6150   24.4530 O.co2  78  ASP78      -0.2456
     35  OD2       58.8320   32.6000   26.2070 O.co2  78  ASP78      -0.2456
     36  N         60.0430   34.9040   19.6730 N.3    82  GLY82      -0.1210
     37  CA        60.7750   33.7400   19.2200 C.3    82  GLY82       0.1956
     38  C         62.1910   34.0940   18.9250 C.2    82  GLY82       0.2611
     39  O         62.6430   35.2060   19.2090 O.2    82  GLY82      -0.2717
     40  N         62.9010   33.1260   18.3890 N.am   83  MET83      -0.1979
     41  CA        64.3120   33.3230   18.0850 C.3    83  MET83       0.1605
     42  C         64.6080   32.6710   16.7670 C.2    83  MET83       0.2287
     43  O         64.1470   31.5920   16.4610 O.2    83  MET83      -0.2864
     44  CB        65.2150   32.7470   19.1920 C.3    83  MET83       0.0413
     45  CG        65.3130   33.5450   20.4980 C.3    83  MET83       0.0598
     46  SD        66.3340   32.7260   21.6310 S.3    83  MET83      -0.1393
     47  CE        65.3330   31.4170   22.2190 C.3    83  MET83       0.0692
     48  N         71.3740   32.3790   22.5080 N.3    92  LEU92      -0.1245
     49  CA        69.9560   32.5920   22.7310 C.3    92  LEU92       0.1561
     50  C         69.6380   34.0920   22.7890 C.2    92  LEU92       0.2260
     51  O         68.8770   34.5640   23.5830 O.2    92  LEU92      -0.2867
     52  CB        69.4340   31.7600   23.9410 C.3    92  LEU92       0.0270
     53  CG        69.7040   30.2360   23.8460 C.3    92  LEU92       0.0019
     54  CD1       70.8870   29.8920   24.6980 C.3    92  LEU92       0.0001
     55  CD2       68.5990   29.4830   24.3000 C.3    92  LEU92       0.0001
     56  N         71.4550   36.7590   23.6100 N.3    94  THR94      -0.1218
     57  CA        71.9890   37.5220   24.7130 C.3    94  THR94       0.1862
     58  C         73.3500   38.0090   24.2560 C.2    94  THR94       0.2287
     59  O         73.8840   37.4950   23.2730 O.2    94  THR94      -0.2866
     60  CB        72.1740   36.6800   25.9830 C.3    94  THR94       0.1770
     61  OG1       73.0410   35.6090   25.6960 O.3    94  THR94      -0.2211
     62  CG2       70.9040   36.1020   26.4240 C.3    94  THR94       0.0375
     63  N         72.1980   39.9570   32.1410 N.3   120  GLY120     -0.1225
     64  CA        71.6690   39.6020   30.8280 C.3   120  GLY120      0.1811
     65  C         71.7770   38.1590   30.4050 C.2   120  GLY120      0.2280
     66  O         71.5490   37.8100   29.2430 O.2   120  GLY120     -0.2866
     67  N         70.3290   35.4980   32.4070 N.3   122  GLY122     -0.1210
     68  CA        69.5010   34.7790   33.3380 C.3   122  GLY122      0.1956
     69  C         68.9980   33.4190   32.8720 C.2   122  GLY122      0.2611
     70  O         68.6680   32.6300   33.6940 O.2   122  GLY122     -0.2717
     71  N         68.9090   33.1880   31.5570 N.am  123  PHE123     -0.1976
     72  CA        68.6740   31.8760   30.9340 C.3   123  PHE123      0.1639
     73  C         69.4420   30.7380   31.5720 C.2   123  PHE123      0.2290
     74  O         68.8510   29.6720   31.8330 O.2   123  PHE123     -0.2864
     75  CB        68.9370   31.8910   29.3920 C.3   123  PHE123      0.0560
     76  CG        68.8730   30.5320   28.7520 C.ar  123  PHE123     -0.0200
     77  CD1       67.6760   29.9030   28.5560 C.ar  123  PHE123     -0.0042
     78  CD2       70.0350   29.8460   28.4100 C.ar  123  PHE123     -0.0042
     79  CE1       67.6360   28.5820   28.0140 C.ar  123  PHE123     -0.0003
     80  CE2       70.0140   28.5560   27.8710 C.ar  123  PHE123     -0.0003
     81  CZ        68.8260   27.9200   27.6610 C.ar  123  PHE123     -0.0000
     82  N         65.3740   24.0050   24.1450 N.3   135  VAL135     -0.1245
     83  CA        64.6550   25.2290   23.7670 C.3   135  VAL135      0.1561
     84  C         63.9620   25.0080   22.4540 C.2   135  VAL135      0.2260
     85  O         64.6080   24.7370   21.4700 O.2   135  VAL135     -0.2867
     86  CB        65.5740   26.5430   23.8220 C.3   135  VAL135      0.0252
     87  CG1       64.8570   27.7460   23.2970 C.3   135  VAL135      0.0019
     88  CG2       66.0370   26.7860   25.2380 C.3   135  VAL135      0.0019
     89  N         58.6970   30.6190   22.2830 N.3   169  THR169     -0.1218
     90  CA        59.8270   29.8720   22.8280 C.3   169  THR169      0.1862
     91  C         59.2760   28.9880   23.9470 C.2   169  THR169      0.2287
     92  O         58.4790   29.4620   24.7470 O.2   169  THR169     -0.2866
     93  CB        60.9490   30.8880   23.2930 C.3   169  THR169      0.1770
     94  OG1       61.4030   31.6310   22.1490 O.3   169  THR169     -0.2211
     95  CG2       62.1750   30.2460   24.0470 C.3   169  THR169      0.0375
     96  N         60.9100   26.5910   26.9040 N.3   171  VAL171     -0.1245
     97  CA        62.0950   26.1270   27.6190 C.3   171  VAL171      0.1561
     98  C         61.6990   24.8800   28.4340 C.2   171  VAL171      0.2260
     99  O         60.9930   24.9560   29.4190 O.2   171  VAL171     -0.2867
    100  CB        62.7450   27.2970   28.5090 C.3   171  VAL171      0.0252
    101  CG1       63.9420   26.8020   29.3030 C.3   171  VAL171      0.0019
    102  CG2       63.0910   28.5240   27.6710 C.3   171  VAL171      0.0019
@<TRIPOS>BOND
     1    43    42    2
     2    42    41    1
     3    41    40    1
     4    41    44    1
     5    40    38   am
     6    38    39    2
     7    38    37    1
     8    44    45    1
     9    37    36    1
    10    45    46    1
    11    85    84    2
    12    46    47    1
    13    94    93    1
    14    89    90    1
    15    84    83    1
    16    48    49    1
    17    26    25    2
    18    49    50    1
    19    49    52    1
    20    50    51    2
    21    90    93    1
    22    90    91    1
    23    59    58    2
    24    93    95    1
    25    87    86    1
    26    56    57    1
    27    31    30    2
    28    83    86    1
    29    83    82    1
    30    86    88    1
    31    53    52    1
    32    53    55    1
    33    53    54    1
    34    25    24    1
    35    91    92    2
    36    58    57    1
    37    27    24    1
    38    24    23    1
    39    30    29    1
    40    34    33   ar
    41    57    60    1
    42    33    35   ar
    43    33    32    1
    44    61    60    1
    45    29    28    1
    46    29    32    1
    47    60    62    1
    48    96    97    1
    49    20    19    2
    50    97    98    1
    51    97   100    1
    52    12    11    2
    53    81    80   ar
    54    81    79   ar
    55   102   100    1
    56    80    78   ar
    57    79    77   ar
    58    19    18    1
    59    18    17    1
    60    18    21    1
    61    78    76   ar
    62    98    99    2
    63   100   101    1
    64    77    76   ar
    65    11    17   am
    66    11    10    1
    67    76    75    1
    68    22    21    1
    69    66    65    2
    70    75    72    1
    71    13    10    1
    72    13    14    1
    73    10     9    1
    74    14    16   am
    75    14    15    2
    76    65    64    1
    77    64    63    1
    78    72    71    1
    79    72    73    1
    80     4     3    2
    81    71    69   am
    82    73    74    2
    83     8     6    1
    84     3     2    1
    85    67    68    1
    86     2     5    1
    87     2     1    1
    88     5     6    1
    89     6     7    1
    90    69    68    1
    91    69    70    2
