@<TRIPOS>MOLECULE
tmp/2ye6A00.pdb
 107 97 0 0 0
SMALL
GASTEIGER

@<TRIPOS>ATOM
      1  N         63.6460   32.9240   34.0730 N.3    33  LEU33      -0.1245
      2  CA        62.9400   32.4140   32.8850 C.3    33  LEU33       0.1561
      3  C         61.5910   33.0930   32.5600 C.2    33  LEU33       0.2260
      4  O         61.2600   33.2870   31.3860 O.2    33  LEU33      -0.2867
      5  CB        62.7380   30.9160   32.9840 C.3    33  LEU33       0.0270
      6  CG        64.0070   30.0830   33.0940 C.3    33  LEU33       0.0019
      7  CD1       63.5850   28.6440   33.1710 C.3    33  LEU33       0.0001
      8  CD2       65.0010   30.3510   31.9240 C.3    33  LEU33       0.0001
      9  N         62.5300   36.3480   30.8230 N.3    36  ASN36      -0.1225
     10  CA        62.8930   36.1860   29.4340 C.3    36  ASN36       0.1785
     11  C         61.6630   36.1180   28.5690 C.2    36  ASN36       0.2597
     12  O         61.6100   36.7520   27.4980 O.2    36  ASN36      -0.2718
     13  CB        63.7110   34.9260   29.2420 C.3    36  ASN36       0.1169
     14  CG        65.0990   35.0540   29.8130 C.2    36  ASN36       0.2627
     15  OD1       65.4210   36.0320   30.4830 O.2    36  ASN36      -0.2716
     16  ND2       65.9260   34.0620   29.5530 N.am   36  ASN36      -0.0877
     17  N         60.6760   35.3600   29.0460 N.am   37  SER37      -0.1952
     18  CA        59.3790   35.2610   28.3850 C.3    37  SER37       0.1924
     19  C         58.7000   36.6190   28.3410 C.2    37  SER37       0.2314
     20  O         58.1380   37.0040   27.3040 O.2    37  SER37      -0.2863
     21  CB        58.4840   34.2340   29.0920 C.3    37  SER37       0.2116
     22  OG        58.9200   32.9020   28.8200 O.3    37  SER37      -0.2180
     23  N         60.4590   38.6500   25.6610 N.3    40  ALA40      -0.1245
     24  CA        60.0600   38.1290   24.3500 C.3    40  ALA40       0.1562
     25  C         58.6840   38.6650   23.9220 C.2    40  ALA40       0.2260
     26  O         58.4640   39.0060   22.7740 O.2    40  ALA40      -0.2867
     27  CB        60.0710   36.6130   24.3760 C.3    40  ALA40       0.0290
     28  N         58.7580   42.3740   23.0350 N.3    43  LYS43      -0.1245
     29  CA        59.3120   42.5500   21.6960 C.3    43  LYS43       0.1561
     30  C         58.3110   42.2980   20.5960 C.2    43  LYS43       0.2260
     31  O         58.3070   43.0190   19.6280 O.2    43  LYS43      -0.2867
     32  CB        60.5460   41.6760   21.4640 C.3    43  LYS43       0.0271
     33  CG        61.8100   42.0190   22.3040 C.3    43  LYS43       0.0035
     34  CD        63.0370   41.2380   21.7730 C.3    43  LYS43       0.0206
     35  CE        64.2640   41.2570   22.7430 C.3    43  LYS43       0.1093
     36  NZ        64.3710   40.0340   23.6340 N.3    43  LYS43      -0.1314
     37  N         55.8520   30.5010   26.2520 N.3    78  ASP78      -0.1239
     38  CA        55.3390   31.8560   25.9300 C.3    78  ASP78       0.1674
     39  C         55.1140   32.0490   24.4490 C.2    78  ASP78       0.2266
     40  O         55.7910   31.4130   23.6020 O.2    78  ASP78      -0.2867
     41  CB        56.2410   32.9870   26.4330 C.3    78  ASP78       0.1410
     42  CG        57.5660   33.0490   25.7160 C.2    78  ASP78       0.3668
     43  OD1       57.6290   33.4130   24.5110 O.co2  78  ASP78      -0.2456
     44  OD2       58.5770   32.7420   26.3780 O.co2  78  ASP78      -0.2456
     45  N         59.9590   34.6260   19.9210 N.3    82  GLY82      -0.1210
     46  CA        60.7550   33.4250   19.5870 C.3    82  GLY82       0.1956
     47  C         62.1600   33.7420   19.1080 C.2    82  GLY82       0.2611
     48  O         62.5950   34.9120   19.1100 O.2    82  GLY82      -0.2717
     49  N         62.8910   32.7040   18.7220 N.am   83  MET83      -0.1979
     50  CA        64.2400   32.9270   18.2610 C.3    83  MET83       0.1605
     51  C         64.4870   32.3350   16.8590 C.2    83  MET83       0.2287
     52  O         63.9370   31.2880   16.5170 O.2    83  MET83      -0.2864
     53  CB        65.2160   32.4160   19.3100 C.3    83  MET83       0.0413
     54  CG        65.2950   33.2990   20.5440 C.3    83  MET83       0.0598
     55  SD        66.2070   32.5440   21.9210 S.3    83  MET83      -0.1393
     56  CE        65.0060   31.3550   22.5240 C.3    83  MET83       0.0692
     57  N         71.4000   32.0690   22.2540 N.3    92  LEU92      -0.1231
     58  CA        69.9580   32.1760   22.4730 C.3    92  LEU92       0.1693
     59  C         69.5180   33.6490   22.5970 C.2    92  LEU92       0.2593
     60  O         68.7370   34.0030   23.4710 O.2    92  LEU92      -0.2718
     61  CB        69.5200   31.3100   23.6800 C.3    92  LEU92       0.0284
     62  CG        69.9080   29.8270   23.6360 C.3    92  LEU92       0.0019
     63  CD1       71.1700   29.5780   24.4180 C.3    92  LEU92       0.0001
     64  CD2       68.8420   28.9800   24.2110 C.3    92  LEU92       0.0001
     65  N         70.0460   34.4930   21.7030 N.am   93  GLY93      -0.1942
     66  CA        69.7030   35.9270   21.6390 C.3    93  GLY93       0.2014
     67  C         70.3180   36.8410   22.6980 C.2    93  GLY93       0.2639
     68  O         70.1610   38.0700   22.6160 O.2    93  GLY93      -0.2714
     69  N         71.0050   36.2600   23.6960 N.am   94  THR94      -0.1950
     70  CA        71.6740   37.0350   24.7550 C.3    94  THR94       0.1897
     71  C         73.0560   37.5370   24.2920 C.2    94  THR94       0.2313
     72  O         73.5600   37.1220   23.2390 O.2    94  THR94      -0.2863
     73  CB        71.8400   36.2070   26.0630 C.3    94  THR94       0.1794
     74  OG1       72.7990   35.1660   25.8620 O.3    94  THR94      -0.2208
     75  CG2       70.5020   35.5980   26.5380 C.3    94  THR94       0.0378
     76  N         69.0660   33.2040   31.6490 N.3   123  PHE123     -0.1241
     77  CA        68.7320   31.8950   31.0940 C.3   123  PHE123      0.1605
     78  C         69.5090   30.7410   31.7340 C.2   123  PHE123      0.2264
     79  O         68.9100   29.7190   32.0010 O.2   123  PHE123     -0.2867
     80  CB        68.8570   31.8610   29.5540 C.3   123  PHE123      0.0534
     81  CG        68.8360   30.4600   28.9710 C.ar  123  PHE123     -0.0203
     82  CD1       67.6770   29.6710   29.0340 C.ar  123  PHE123     -0.0042
     83  CD2       69.9810   29.9250   28.3420 C.ar  123  PHE123     -0.0042
     84  CE1       67.6510   28.3620   28.4810 C.ar  123  PHE123     -0.0003
     85  CE2       69.9690   28.6360   27.8030 C.ar  123  PHE123     -0.0003
     86  CZ        68.7810   27.8510   27.8770 C.ar  123  PHE123     -0.0000
     87  N         65.1640   23.9270   24.4400 N.3   135  VAL135     -0.1245
     88  CA        64.4430   25.1610   24.0660 C.3   135  VAL135      0.1561
     89  C         63.8280   24.9500   22.6960 C.2   135  VAL135      0.2260
     90  O         64.5610   24.9230   21.7070 O.2   135  VAL135     -0.2867
     91  CB        65.3740   26.3940   24.0540 C.3   135  VAL135      0.0252
     92  CG1       64.6580   27.5850   23.5770 C.3   135  VAL135      0.0019
     93  CG2       65.9170   26.6440   25.4270 C.3   135  VAL135      0.0019
     94  N         58.3190   30.4850   22.4290 N.3   169  THR169     -0.1218
     95  CA        59.4550   29.7220   22.9240 C.3   169  THR169      0.1862
     96  C         59.0500   28.8780   24.1330 C.2   169  THR169      0.2287
     97  O         58.1870   29.2670   24.9590 O.2   169  THR169     -0.2866
     98  CB        60.6300   30.6510   23.2850 C.3   169  THR169      0.1770
     99  OG1       61.0660   31.3360   22.1070 O.3   169  THR169     -0.2211
    100  CG2       61.8050   29.8620   23.9160 C.3   169  THR169      0.0375
    101  N         60.7770   26.5310   27.0290 N.3   171  VAL171     -0.1245
    102  CA        61.9250   26.0340   27.7920 C.3   171  VAL171      0.1561
    103  C         61.4960   24.7880   28.5860 C.2   171  VAL171      0.2260
    104  O         60.7550   24.8910   29.5780 O.2   171  VAL171     -0.2867
    105  CB        62.4680   27.1130   28.7290 C.3   171  VAL171      0.0252
    106  CG1       63.6610   26.6050   29.5050 C.3   171  VAL171      0.0019
    107  CG2       62.8280   28.3400   27.9370 C.3   171  VAL171      0.0019
@<TRIPOS>BOND
     1    52    51    2
     2    51    50    1
     3    50    49    1
     4    50    53    1
     5    49    47   am
     6    47    48    2
     7    47    46    1
     8    53    54    1
     9    46    45    1
    10    31    30    2
    11    54    55    1
    12    30    29    1
    13    32    29    1
    14    32    33    1
    15    66    65    1
    16    66    67    1
    17    29    28    1
    18    65    59   am
    19    90    89    2
    20    34    33    1
    21    34    35    1
    22    55    56    1
    23    99    98    1
    24    57    58    1
    25    94    95    1
    26    58    59    1
    27    58    61    1
    28    59    60    2
    29    68    67    2
    30    89    88    1
    31    67    69   am
    32    35    36    1
    33    26    25    2
    34    95    98    1
    35    95    96    1
    36    72    71    2
    37    98   100    1
    38    92    91    1
    39    40    39    2
    40    62    61    1
    41    62    64    1
    42    62    63    1
    43    69    70    1
    44    25    24    1
    45    91    88    1
    46    91    93    1
    47    88    87    1
    48    96    97    2
    49    71    70    1
    50    24    27    1
    51    24    23    1
    52    39    38    1
    53    43    42   ar
    54    70    73    1
    55    42    44   ar
    56    42    41    1
    57    74    73    1
    58    38    37    1
    59    38    41    1
    60    73    75    1
    61   101   102    1
    62    20    19    2
    63    12    11    2
    64   102   103    1
    65   102   105    1
    66    85    86   ar
    67    85    83   ar
    68    86    84   ar
    69   107   105    1
    70    19    18    1
    71    83    81   ar
    72    18    17    1
    73    18    21    1
    74    84    82   ar
    75    11    17   am
    76    11    10    1
    77   103   104    2
    78   105   106    1
    79    22    21    1
    80    81    82   ar
    81    81    80    1
    82    13    10    1
    83    13    14    1
    84    10     9    1
    85    16    14   am
    86    80    77    1
    87    14    15    2
    88    77    76    1
    89    77    78    1
    90     4     3    2
    91    78    79    2
    92     8     6    1
    93     3     2    1
    94     2     5    1
    95     2     1    1
    96     5     6    1
    97     6     7    1
