@<TRIPOS>MOLECULE
tmp/2ye7A00.pdb
 137 128 0 0 0
SMALL
GASTEIGER

@<TRIPOS>ATOM
      1  N         32.3830   11.4900   16.0910 N.3    33  LEU33      -0.1245
      2  CA        31.8120   12.0720   17.3040 C.3    33  LEU33       0.1561
      3  C         30.4860   11.3850   17.7170 C.2    33  LEU33       0.2260
      4  O         30.3190   11.0190   18.8820 O.2    33  LEU33      -0.2867
      5  CB        31.6280   13.5860   17.1400 C.3    33  LEU33       0.0270
      6  CG        32.9200   14.4030   17.0630 C.3    33  LEU33       0.0019
      7  CD1       32.5550   15.8060   16.9070 C.3    33  LEU33       0.0001
      8  CD2       33.7350   14.2570   18.3280 C.3    33  LEU33       0.0001
      9  N         31.7110    8.1490   19.0760 N.3    36  ASN36      -0.1225
     10  CA        32.1050    8.4400   20.4510 C.3    36  ASN36       0.1785
     11  C         30.8740    8.5240   21.4100 C.2    36  ASN36       0.2597
     12  O         30.8410    7.8430   22.4440 O.2    36  ASN36      -0.2718
     13  CB        32.9870    9.7210   20.5450 C.3    36  ASN36       0.1169
     14  CG        34.4300    9.5280   19.9550 C.2    36  ASN36       0.2627
     15  OD1       34.9200    8.4100   19.7250 O.2    36  ASN36      -0.2716
     16  ND2       35.0780   10.6490   19.6730 N.am   36  ASN36      -0.0877
     17  N         29.8640    9.3160   21.0690 N.am   37  SER37      -0.1952
     18  CA        28.6320    9.3950   21.8750 C.3    37  SER37       0.1924
     19  C         27.9370    8.0240   22.1300 C.2    37  SER37       0.2314
     20  O         27.4880    7.7160   23.2560 O.2    37  SER37      -0.2863
     21  CB        27.6600   10.3280   21.1730 C.3    37  SER37       0.2116
     22  OG        27.9320   11.6940   21.4950 O.3    37  SER37      -0.2180
     23  N         29.7850    5.8710   24.6530 N.3    40  ALA40      -0.1245
     24  CA        29.4540    6.3950   26.0020 C.3    40  ALA40       0.1562
     25  C         28.0110    6.0860   26.5040 C.2    40  ALA40       0.2260
     26  O         27.7730    5.9230   27.7330 O.2    40  ALA40      -0.2867
     27  CB        29.7070    7.9190   26.0410 C.3    40  ALA40       0.0290
     28  N         27.2600   18.6180   19.6060 N.3    76  ILE76      -0.1245
     29  CA        26.7710   17.2670   19.8120 C.3    76  ILE76       0.1561
     30  C         26.5730   17.0170   21.3150 C.2    76  ILE76       0.2260
     31  O         27.5230   17.1450   22.0940 O.2    76  ILE76      -0.2867
     32  CB        27.7450   16.1670   19.2360 C.3    76  ILE76       0.0252
     33  CG1       28.0260   16.3790   17.7340 C.3    76  ILE76       0.0019
     34  CG2       27.1460   14.7680   19.4730 C.3    76  ILE76       0.0019
     35  CD1       29.1800   17.2790   17.4350 C.3    76  ILE76       0.0001
     36  N         25.1920   14.1790   24.2470 N.3    78  ASP78      -0.1239
     37  CA        24.7430   12.8650   24.5650 C.3    78  ASP78       0.1674
     38  C         24.4760   12.8240   26.0640 C.2    78  ASP78       0.2266
     39  O         24.9670   13.6860   26.8160 O.2    78  ASP78      -0.2867
     40  CB        25.7120   11.7520   24.0490 C.3    78  ASP78       0.1410
     41  CG        27.0550   11.7110   24.7740 C.2    78  ASP78       0.3668
     42  OD1       27.1100   11.3620   25.9730 O.co2  78  ASP78      -0.2456
     43  OD2       28.0690   12.0510   24.1450 O.co2  78  ASP78      -0.2456
     44  N         27.8790    8.1050   29.4910 N.3    81  ILE81      -0.1231
     45  CA        28.4430    7.9840   30.8330 C.3    81  ILE81       0.1692
     46  C         29.1520    9.2320   31.3330 C.2    81  ILE81       0.2593
     47  O         29.3720    9.3840   32.5290 O.2    81  ILE81      -0.2718
     48  CB        29.3590    6.7530   30.9490 C.3    81  ILE81       0.0266
     49  CG1       29.6380    6.4310   32.4250 C.3    81  ILE81       0.0019
     50  CG2       30.6330    6.9310   30.1110 C.3    81  ILE81       0.0020
     51  CD1       29.7010    5.0120   32.7070 C.3    81  ILE81       0.0001
     52  N         29.5500   10.0940   30.4200 N.am   82  GLY82      -0.1942
     53  CA        30.2840   11.2980   30.8140 C.3    82  GLY82       0.2014
     54  C         31.7290   11.0410   31.1530 C.2    82  GLY82       0.2638
     55  O         32.1840    9.8900   31.1240 O.2    82  GLY82      -0.2714
     56  N         32.4540   12.1210   31.4760 N.am   83  MET83      -0.1976
     57  CA        33.8320   11.9790   31.9090 C.3    83  MET83       0.1605
     58  C         34.2000   12.5830   33.2690 C.2    83  MET83       0.2287
     59  O         33.9040   13.7410   33.5720 O.2    83  MET83      -0.2864
     60  CB        34.7540   12.5270   30.8020 C.3    83  MET83       0.0413
     61  CG        34.6980   11.7270   29.4880 C.3    83  MET83       0.0598
     62  SD        35.3490   12.6600   28.1190 S.3    83  MET83      -0.1393
     63  CE        34.2280   14.1000   27.9790 C.3    83  MET83       0.0692
     64  N         39.4990   13.3350   31.5860 N.3    88  LEU88      -0.1245
     65  CA        39.8710   14.5280   30.8100 C.3    88  LEU88       0.1561
     66  C         41.3830   14.9080   30.7450 C.2    88  LEU88       0.2260
     67  O         41.9000   15.2500   29.6790 O.2    88  LEU88      -0.2867
     68  CB        39.0880   15.7380   31.2970 C.3    88  LEU88       0.0270
     69  CG        37.6030   15.7390   31.0320 C.3    88  LEU88       0.0019
     70  CD1       36.9190   16.9730   31.7190 C.3    88  LEU88       0.0001
     71  CD2       37.3430   15.7130   29.5180 C.3    88  LEU88       0.0001
     72  N         42.1750    9.3210   29.1180 N.3    92  LEU92      -0.1245
     73  CA        41.8070    9.3200   27.6980 C.3    92  LEU92       0.1561
     74  C         43.0560    9.5300   26.8330 C.2    92  LEU92       0.2260
     75  O         43.2980    8.7730   25.8960 O.2    92  LEU92      -0.2867
     76  CB        40.6900   10.3430   27.3860 C.3    92  LEU92       0.0270
     77  CG        39.3070   10.0650   28.0640 C.3    92  LEU92       0.0019
     78  CD1       38.2550   11.0420   27.6120 C.3    92  LEU92       0.0001
     79  CD2       38.7550    8.6410   27.8580 C.3    92  LEU92       0.0001
     80  N         37.9290   11.2120   18.0940 N.3   123  PHE123     -0.1227
     81  CA        37.5160   12.4660   18.7370 C.3   123  PHE123      0.1736
     82  C         38.3140   13.6280   18.1470 C.2   123  PHE123      0.2595
     83  O         37.7400   14.7030   17.8640 O.2   123  PHE123     -0.2718
     84  CB        37.6110   12.4290   20.2890 C.3   123  PHE123      0.0547
     85  CG        37.6260   13.8210   20.9290 C.ar  123  PHE123     -0.0202
     86  CD1       36.4280   14.5280   21.1470 C.ar  123  PHE123     -0.0042
     87  CD2       38.8450   14.4520   21.2640 C.ar  123  PHE123     -0.0042
     88  CE1       36.4480   15.8050   21.6810 C.ar  123  PHE123     -0.0003
     89  CE2       38.8620   15.7460   21.8170 C.ar  123  PHE123     -0.0003
     90  CZ        37.6900   16.4210   21.9990 C.ar  123  PHE123     -0.0000
     91  N         39.6070   13.4210   17.8860 N.am  124  TYR124     -0.1976
     92  CA        40.4160   14.5100   17.3160 C.3   124  TYR124      0.1639
     93  C         40.1180   14.9080   15.8990 C.2   124  TYR124      0.2290
     94  O         40.6080   15.9820   15.4100 O.2   124  TYR124     -0.2864
     95  CB        41.8990   14.1910   17.4240 C.3   124  TYR124      0.0560
     96  CG        42.2500   13.8450   18.8150 C.ar  124  TYR124     -0.0198
     97  CD1       42.4090   14.8400   19.7780 C.ar  124  TYR124     -0.0009
     98  CD2       42.3630   12.5240   19.1940 C.ar  124  TYR124     -0.0009
     99  CE1       42.7330   14.5070   21.1130 C.ar  124  TYR124      0.0417
    100  CE2       42.6670   12.1690   20.4900 C.ar  124  TYR124      0.0417
    101  CZ        42.8510   13.1480   21.4420 C.ar  124  TYR124      0.1957
    102  OH        43.1330   12.7540   22.7260 O.3   124  TYR124     -0.2866
    103  N         34.1790   21.2540   25.6270 N.3   135  VAL135     -0.1245
    104  CA        33.4840   19.9930   25.9350 C.3   135  VAL135      0.1561
    105  C         33.0180   20.0930   27.3640 C.2   135  VAL135      0.2260
    106  O         33.8510   20.2000   28.2410 O.2   135  VAL135     -0.2867
    107  CB        34.3600   18.7310   25.7570 C.3   135  VAL135      0.0252
    108  CG1       33.5930   17.5060   26.1860 C.3   135  VAL135      0.0019
    109  CG2       34.7790   18.5690   24.2960 C.3   135  VAL135      0.0019
    110  N         36.1740   21.3330   29.4060 N.3   147  TRP147     -0.1241
    111  CA        37.4770   21.0920   28.8010 C.3   147  TRP147      0.1605
    112  C         37.4840   21.9180   27.5340 C.2   147  TRP147      0.2264
    113  O         36.4420   22.1260   26.8890 O.2   147  TRP147     -0.2867
    114  CB        37.6020   19.6150   28.4490 C.3   147  TRP147      0.0550
    115  CG        38.7940   19.1750   27.6710 C.ar  147  TRP147      0.0003
    116  CD1       39.9500   18.5040   28.1850 C.ar  147  TRP147      0.0946
    117  CD2       38.9750   19.2400   26.2620 C.ar  147  TRP147      0.0152
    118  NE1       40.7790   18.1860   27.1480 N.ar  147  TRP147     -0.2442
    119  CE2       40.2270   18.6190   25.9670 C.ar  147  TRP147      0.0810
    120  CE3       38.2010   19.7570   25.1950 C.ar  147  TRP147      0.0012
    121  CZ2       40.7090   18.4750   24.6600 C.ar  147  TRP147      0.0191
    122  CZ3       38.7210   19.6520   23.8790 C.ar  147  TRP147      0.0001
    123  CH2       39.9650   19.0060   23.6360 C.ar  147  TRP147      0.0015
    124  N         27.7680   14.3710   27.9120 N.3   169  THR169     -0.1218
    125  CA        28.8320   15.1510   27.2980 C.3   169  THR169      0.1862
    126  C         28.2500   16.0370   26.2170 C.2   169  THR169      0.2287
    127  O         27.3700   15.6600   25.4740 O.2   169  THR169     -0.2866
    128  CB        29.9220   14.2210   26.6960 C.3   169  THR169      0.1770
    129  OG1       30.4360   13.4200   27.7450 O.3   169  THR169     -0.2211
    130  CG2       31.1140   14.9890   25.9590 C.3   169  THR169      0.0375
    131  N         29.7110   18.3290   23.1220 N.3   171  VAL171     -0.1245
    132  CA        30.8980   18.7460   22.3390 C.3   171  VAL171      0.1561
    133  C         30.4860   19.9120   21.4850 C.2   171  VAL171      0.2260
    134  O         29.6040   19.7900   20.6130 O.2   171  VAL171     -0.2867
    135  CB        31.4670   17.6050   21.4840 C.3   171  VAL171      0.0252
    136  CG1       32.5950   18.1090   20.5170 C.3   171  VAL171      0.0019
    137  CG2       31.9680   16.4860   22.4300 C.3   171  VAL171      0.0019
@<TRIPOS>BOND
     1    94    93    2
     2    93    92    1
     3     1     2    1
     4     7     6    1
     5     6     5    1
     6     6     8    1
     7     5     2    1
     8     2     3    1
     9    92    95    1
    10    92    91    1
    11    95    96    1
    12    35    33    1
    13     3     4    2
    14    33    32    1
    15    83    82    2
    16    91    82   am
    17    80    81    1
    18    82    81    1
    19    81    84    1
    20    96    98   ar
    21    96    97   ar
    22     9    10    1
    23    98   100   ar
    24    32    34    1
    25    32    29    1
    26    28    29    1
    27    16    14   am
    28    15    14    2
    29    97    99   ar
    30    29    30    1
    31    14    13    1
    32    84    85    1
    33    10    13    1
    34    10    11    1
    35   100   101   ar
    36   136   135    1
    37   134   133    2
    38    85    86   ar
    39    85    87   ar
    40    17    11   am
    41    17    18    1
    42    99   101   ar
    43    86    88   ar
    44    21    22    1
    45    21    18    1
    46    87    89   ar
    47    30    31    2
    48    11    12    2
    49   101   102    1
    50   135   132    1
    51   135   137    1
    52   133   132    1
    53    88    90   ar
    54    89    90   ar
    55    18    19    1
    56    19    20    2
    57   132   131    1
    58   123   122   ar
    59   123   121   ar
    60   122   120   ar
    61    40    37    1
    62    40    41    1
    63    43    41   ar
    64    36    37    1
    65   109   107    1
    66    37    38    1
    67    23    24    1
    68   121   119   ar
    69    41    42   ar
    70   120   117   ar
    71   127   126    2
    72   103   104    1
    73   107   104    1
    74   107   108    1
    75    75    74    2
    76   104   105    1
    77   130   128    1
    78   119   117   ar
    79   119   118   ar
    80    24    27    1
    81    24    25    1
    82    38    39    2
    83   126   125    1
    84   117   115   ar
    85    25    26    2
    86   128   125    1
    87   128   129    1
    88    74    73    1
    89   113   112    2
    90   118   116   ar
    91   125   124    1
    92   105   106    2
    93    76    73    1
    94    76    77    1
    95   112   111    1
    96    78    77    1
    97   115   116   ar
    98   115   114    1
    99    73    72    1
   100    79    77    1
   101    63    62    1
   102    62    61    1
   103   114   111    1
   104   111   110    1
   105    61    60    1
   106    44    45    1
   107    71    69    1
   108    67    66    2
   109    50    48    1
   110    52    53    1
   111    52    46   am
   112    66    65    1
   113    60    57    1
   114    65    68    1
   115    65    64    1
   116    53    54    1
   117    45    48    1
   118    45    46    1
   119    48    49    1
   120    69    68    1
   121    69    70    1
   122    55    54    2
   123    54    56   am
   124    46    47    2
   125    56    57    1
   126    57    58    1
   127    49    51    1
   128    58    59    2
