@<TRIPOS>MOLECULE
tmp/2ye9A00.pdb
 139 127 0 0 0
SMALL
GASTEIGER

@<TRIPOS>ATOM
      1  N         31.7110   11.7990   16.0550 N.3    33  LEU33      -0.1245
      2  CA        31.0780   12.2850   17.2890 C.3    33  LEU33       0.1561
      3  C         29.8110   11.5220   17.6350 C.2    33  LEU33       0.2260
      4  O         29.6020   11.1740   18.7750 O.2    33  LEU33      -0.2867
      5  CB        30.7700   13.8000   17.2000 C.3    33  LEU33       0.0270
      6  CG        32.0530   14.6510   16.9920 C.3    33  LEU33       0.0019
      7  CD1       31.7870   16.1710   16.9840 C.3    33  LEU33       0.0001
      8  CD2       33.0770   14.3180   18.0530 C.3    33  LEU33       0.0001
      9  N         30.5320    8.1830   18.8690 N.3    36  ASN36      -0.1225
     10  CA        30.9480    8.2000   20.2880 C.3    36  ASN36       0.1785
     11  C         29.7270    8.3280   21.2280 C.2    36  ASN36       0.2597
     12  O         29.6920    7.7640   22.2930 O.2    36  ASN36      -0.2718
     13  CB        31.9320    9.3530   20.5950 C.3    36  ASN36       0.1169
     14  CG        33.3430    9.0970   20.1100 C.2    36  ASN36       0.2627
     15  OD1       33.6390    8.1020   19.4420 O.2    36  ASN36      -0.2716
     16  ND2       34.2390   10.0550   20.4090 N.am   36  ASN36      -0.0877
     17  N         28.7670    9.1550   20.8510 N.am   37  SER37      -0.1952
     18  CA        27.5550    9.3090   21.6440 C.3    37  SER37       0.1924
     19  C         26.8290    7.9060   21.7780 C.2    37  SER37       0.2314
     20  O         26.4620    7.4680   22.8990 O.2    37  SER37      -0.2863
     21  CB        26.6510   10.3310   20.9470 C.3    37  SER37       0.2116
     22  OG        27.1150   11.6980   21.0250 O.3    37  SER37      -0.2180
     23  N         28.1530    4.9160   21.5180 N.3    39  ASP39      -0.1225
     24  CA        28.8900    4.0840   22.4730 C.3    39  ASP39       0.1805
     25  C         28.6300    4.4550   23.9400 C.2    39  ASP39       0.2597
     26  O         28.5240    3.5560   24.7820 O.2    39  ASP39      -0.2718
     27  CB        30.3730    3.9370   22.1340 C.3    39  ASP39       0.1424
     28  CG        30.5800    3.3140   20.7110 C.2    39  ASP39       0.3668
     29  OD1       29.5580    2.8440   20.0710 O.co2  39  ASP39      -0.2456
     30  OD2       31.7380    3.3290   20.1950 O.co2  39  ASP39      -0.2456
     31  N         28.4630    5.7520   24.2430 N.am   40  ALA40      -0.1979
     32  CA        28.2030    6.1840   25.6310 C.3    40  ALA40       0.1597
     33  C         26.8000    5.7800   26.0140 C.2    40  ALA40       0.2287
     34  O         26.5180    5.4230   27.1680 O.2    40  ALA40      -0.2864
     35  CB        28.3490    7.7030   25.7870 C.3    40  ALA40       0.0319
     36  N         26.5830    2.1150   26.7750 N.3    43  LYS43      -0.1245
     37  CA        27.1090    1.8460   28.1140 C.3    43  LYS43       0.1561
     38  C         26.1880    2.0320   29.2740 C.2    43  LYS43       0.2260
     39  O         26.2070    1.2110   30.2180 O.2    43  LYS43      -0.2867
     40  CB        28.3870    2.6120   28.3690 C.3    43  LYS43       0.0271
     41  CG        29.5540    2.1140   27.5090 C.3    43  LYS43       0.0035
     42  CD        30.8040    2.7400   28.0090 C.3    43  LYS43       0.0206
     43  CE        31.8740    2.6940   26.9620 C.3    43  LYS43       0.1093
     44  NZ        32.8130    3.7860   27.3660 N.3    43  LYS43      -0.1314
     45  N         26.3290   18.7140   19.6950 N.3    76  ILE76      -0.1245
     46  CA        25.9400   17.3200   19.7750 C.3    76  ILE76       0.1561
     47  C         25.7740   16.9050   21.2830 C.2    76  ILE76       0.2260
     48  O         26.7810   16.8200   22.0010 O.2    76  ILE76      -0.2867
     49  CB        27.0130   16.4350   19.1120 C.3    76  ILE76       0.0252
     50  CG1       27.1370   16.8360   17.6460 C.3    76  ILE76       0.0019
     51  CG2       26.6300   14.9400   19.2150 C.3    76  ILE76       0.0019
     52  CD1       28.5360   16.9260   17.1570 C.3    76  ILE76       0.0001
     53  N         24.3090   14.0650   23.9660 N.3    78  ASP78      -0.1239
     54  CA        23.7460   12.7580   24.2000 C.3    78  ASP78       0.1674
     55  C         23.4900   12.5900   25.6650 C.2    78  ASP78       0.2266
     56  O         24.0610   13.2930   26.4780 O.2    78  ASP78      -0.2867
     57  CB        24.6800   11.6940   23.6800 C.3    78  ASP78       0.1410
     58  CG        25.9500   11.6200   24.4630 C.2    78  ASP78       0.3668
     59  OD1       25.9230   11.2120   25.6580 O.co2  78  ASP78      -0.2456
     60  OD2       26.9970   11.9470   23.8440 O.co2  78  ASP78      -0.2456
     61  N         26.3910    7.6630   29.1480 N.3    81  ILE81      -0.1231
     62  CA        26.9560    7.4930   30.4730 C.3    81  ILE81       0.1692
     63  C         27.7720    8.6960   30.9930 C.2    81  ILE81       0.2593
     64  O         27.8920    8.8680   32.1770 O.2    81  ILE81      -0.2718
     65  CB        27.7940    6.1960   30.5300 C.3    81  ILE81       0.0266
     66  CG1       27.8930    5.6850   31.9710 C.3    81  ILE81       0.0019
     67  CG2       29.1330    6.4010   29.8950 C.3    81  ILE81       0.0020
     68  CD1       28.5420    4.3740   32.0920 C.3    81  ILE81       0.0001
     69  N         28.3210    9.5090   30.1050 N.am   82  GLY82      -0.1942
     70  CA        29.1010   10.6920   30.5120 C.3    82  GLY82       0.2014
     71  C         30.4810   10.3150   31.0000 C.2    82  GLY82       0.2638
     72  O         30.8940    9.1540   30.9340 O.2    82  GLY82      -0.2714
     73  N         31.2000   11.2930   31.5130 N.am   83  MET83      -0.1976
     74  CA        32.5970   11.0590   31.8640 C.3    83  MET83       0.1605
     75  C         32.9170   11.6520   33.2130 C.2    83  MET83       0.2287
     76  O         32.3690   12.6800   33.5760 O.2    83  MET83      -0.2864
     77  CB        33.5220   11.6390   30.7740 C.3    83  MET83       0.0413
     78  CG        33.6110   10.7510   29.5050 C.3    83  MET83       0.0598
     79  SD        34.7040   11.5100   28.2670 S.3    83  MET83      -0.1393
     80  CE        33.6190   12.8200   27.6030 C.3    83  MET83       0.0692
     81  N         39.7060   11.8260   27.3250 N.3    92  LEU92      -0.1231
     82  CA        38.2530   11.6700   27.1330 C.3    92  LEU92       0.1693
     83  C         37.8270   10.1550   27.0980 C.2    92  LEU92       0.2593
     84  O         37.1000    9.6970   26.2040 O.2    92  LEU92      -0.2718
     85  CB        37.7330   12.5420   25.9210 C.3    92  LEU92       0.0284
     86  CG        38.1250   14.0630   25.9610 C.3    92  LEU92       0.0019
     87  CD1       39.4660   14.3670   25.3050 C.3    92  LEU92       0.0001
     88  CD2       37.1510   14.9820   25.3590 C.3    92  LEU92       0.0001
     89  N         38.2840    9.4210   28.1080 N.am   93  GLY93      -0.1942
     90  CA        37.9960    8.0000   28.2850 C.3    93  GLY93       0.2014
     91  C         38.4660    7.0820   27.1620 C.2    93  GLY93       0.2639
     92  O         37.8490    6.0420   26.9190 O.2    93  GLY93      -0.2714
     93  N         39.5600    7.4530   26.4820 N.am   94  THR94      -0.1950
     94  CA        40.0700    6.7000   25.3380 C.3    94  THR94       0.1897
     95  C         41.5210    6.3130   25.6150 C.2    94  THR94       0.2313
     96  O         42.2040    6.9340   26.4610 O.2    94  THR94      -0.2863
     97  CB        39.9890    7.5190   23.9890 C.3    94  THR94       0.1794
     98  OG1       41.0540    8.4880   23.9030 O.3    94  THR94      -0.2208
     99  CG2       38.6930    8.2460   23.8650 C.3    94  THR94       0.0378
    100  N         40.1910    4.3840   17.3350 N.3   120  GLY120     -0.1225
    101  CA        39.6560    4.8040   18.6430 C.3   120  GLY120      0.1811
    102  C         39.8590    6.2850   18.9820 C.2   120  GLY120      0.2280
    103  O         39.6600    6.6800   20.1390 O.2   120  GLY120     -0.2866
    104  N         38.4810    9.0810   17.0660 N.3   122  GLY122     -0.1210
    105  CA        37.5550    9.8380   16.2310 C.3   122  GLY122      0.1956
    106  C         37.2460   11.2240   16.7680 C.2   122  GLY122      0.2611
    107  O         37.0660   12.1650   15.9930 O.2   122  GLY122     -0.2717
    108  N         37.1990   11.3610   18.0880 N.am  123  PHE123     -0.1976
    109  CA        36.9410   12.6790   18.6490 C.3   123  PHE123      0.1639
    110  C         37.7780   13.8120   18.0420 C.2   123  PHE123      0.2290
    111  O         37.2350   14.9280   17.7770 O.2   123  PHE123     -0.2864
    112  CB        37.0380   12.6920   20.2000 C.3   123  PHE123      0.0560
    113  CG        37.0670   14.1030   20.8040 C.ar  123  PHE123     -0.0200
    114  CD1       35.8870   14.8300   20.9820 C.ar  123  PHE123     -0.0042
    115  CD2       38.2700   14.7050   21.1480 C.ar  123  PHE123     -0.0042
    116  CE1       35.9190   16.1330   21.5440 C.ar  123  PHE123     -0.0003
    117  CE2       38.3110   15.9830   21.7160 C.ar  123  PHE123     -0.0003
    118  CZ        37.1530   16.7030   21.9070 C.ar  123  PHE123     -0.0000
    119  N         33.7310   20.3490   25.6900 N.3   135  VAL135     -0.1245
    120  CA        32.9950   19.1370   26.0080 C.3   135  VAL135      0.1561
    121  C         32.4460   19.3690   27.3950 C.2   135  VAL135      0.2260
    122  O         33.2010   19.5230   28.3280 O.2   135  VAL135     -0.2867
    123  CB        33.8810   17.8500   26.0050 C.3   135  VAL135      0.0252
    124  CG1       33.0470   16.6320   26.4200 C.3   135  VAL135      0.0019
    125  CG2       34.4900   17.6090   24.6450 C.3   135  VAL135      0.0019
    126  N         26.8160   14.0630   27.7350 N.3   169  THR169     -0.1218
    127  CA        27.9510   14.7890   27.2070 C.3   169  THR169      0.1862
    128  C         27.3920   15.7130   26.1640 C.2   169  THR169      0.2287
    129  O         26.4370   15.3170   25.4370 O.2   169  THR169     -0.2866
    130  CB        28.9560   13.8140   26.5980 C.3   169  THR169      0.1770
    131  OG1       29.4620   12.9900   27.6320 O.3   169  THR169     -0.2211
    132  CG2       30.1820   14.5340   25.8610 C.3   169  THR169      0.0375
    133  N         29.0010   18.1490   23.1640 N.3   171  VAL171     -0.1245
    134  CA        30.2160   18.5540   22.4910 C.3   171  VAL171      0.1561
    135  C         29.8600   19.8430   21.7270 C.2   171  VAL171      0.2260
    136  O         29.0150   19.8310   20.8580 O.2   171  VAL171     -0.2867
    137  CB        30.7000   17.4690   21.5220 C.3   171  VAL171      0.0252
    138  CG1       31.9980   17.9690   20.7470 C.3   171  VAL171      0.0019
    139  CG2       30.9870   16.1980   22.2420 C.3   171  VAL171      0.0019
@<TRIPOS>BOND
     1   107   106    2
     2     1     2    1
     3   105   106    1
     4   105   104    1
     5   106   108   am
     6     7     6    1
     7     6     5    1
     8     6     8    1
     9    52    50    1
    10     5     2    1
    11     2     3    1
    12   100   101    1
    13     3     4    2
    14    50    49    1
    15   111   110    2
    16   110   109    1
    17   108   109    1
    18   101   102    1
    19   109   112    1
    20     9    10    1
    21   102   103    2
    22    49    51    1
    23    49    46    1
    24    15    14    2
    25    45    46    1
    26    46    47    1
    27    29    28   ar
    28    14    16   am
    29    14    13    1
    30    30    28   ar
    31   112   113    1
    32    10    13    1
    33    10    11    1
    34    28    27    1
    35   138   137    1
    36   113   114   ar
    37   113   115   ar
    38    17    11   am
    39    17    18    1
    40   136   135    2
    41    21    22    1
    42    21    18    1
    43   114   116   ar
    44   115   117   ar
    45    11    12    2
    46    47    48    2
    47    23    24    1
    48   137   139    1
    49   137   134    1
    50   116   118   ar
    51    18    19    1
    52   117   118   ar
    53   135   134    1
    54    19    20    2
    55    27    24    1
    56    24    25    1
    57   134   133    1
    58    57    54    1
    59    57    58    1
    60    60    58   ar
    61    99    97    1
    62    98    97    1
    63    25    31   am
    64    25    26    2
    65    53    54    1
    66    97    94    1
    67    54    55    1
    68    31    32    1
    69    58    59   ar
    70   125   123    1
    71    87    86    1
    72    94    95    1
    73    94    93    1
    74    88    86    1
    75   129   128    2
    76    95    96    2
    77    32    35    1
    78    32    33    1
    79    55    56    2
    80   119   120    1
    81   132   130    1
    82    85    86    1
    83    85    82    1
    84   123   120    1
    85   123   124    1
    86   120   121    1
    87    33    34    2
    88   128   127    1
    89    84    83    2
    90    93    91   am
    91   130   127    1
    92   130   131    1
    93    36    37    1
    94    92    91    2
    95    43    44    1
    96    43    42    1
    97    83    82    1
    98    83    89   am
    99    82    81    1
   100    91    90    1
   101   127   126    1
   102   121   122    2
   103    41    42    1
   104    41    40    1
   105    80    79    1
   106    89    90    1
   107    37    40    1
   108    37    38    1
   109    79    78    1
   110    61    62    1
   111    38    39    2
   112    78    77    1
   113    67    65    1
   114    69    70    1
   115    69    63   am
   116    62    65    1
   117    62    63    1
   118    70    71    1
   119    65    66    1
   120    77    74    1
   121    72    71    2
   122    63    64    2
   123    71    73   am
   124    73    74    1
   125    74    75    1
   126    66    68    1
   127    75    76    2
