@<TRIPOS>MOLECULE
tmp/2yeaA00.pdb
 101 92 0 0 0
SMALL
GASTEIGER

@<TRIPOS>ATOM
      1  N         63.7910   33.1920   33.8050 N.3    33  LEU33      -0.1245
      2  CA        63.1170   32.6690   32.5970 C.3    33  LEU33       0.1561
      3  C         61.8110   33.4140   32.2200 C.2    33  LEU33       0.2260
      4  O         61.6290   33.7250   31.0910 O.2    33  LEU33      -0.2867
      5  CB        62.8690   31.1530   32.6940 C.3    33  LEU33       0.0270
      6  CG        64.1550   30.3180   32.8520 C.3    33  LEU33       0.0019
      7  CD1       63.8420   28.8660   33.0750 C.3    33  LEU33       0.0001
      8  CD2       65.2480   30.5740   31.7080 C.3    33  LEU33       0.0001
      9  N         62.8760   36.9030   30.8290 N.3    36  ASN36      -0.1225
     10  CA        63.2090   36.7000   29.4360 C.3    36  ASN36       0.1785
     11  C         61.9610   36.6050   28.5650 C.2    36  ASN36       0.2597
     12  O         61.9020   37.2230   27.5530 O.2    36  ASN36      -0.2718
     13  CB        64.0970   35.4390   29.2320 C.3    36  ASN36       0.1169
     14  CG        65.4950   35.6040   29.7310 C.2    36  ASN36       0.2627
     15  OD1       65.9220   36.6820   30.0380 O.2    36  ASN36      -0.2716
     16  ND2       66.2180   34.5250   29.8080 N.am   36  ASN36      -0.0877
     17  N         61.0070   35.7810   28.9590 N.am   37  SER37      -0.1952
     18  CA        59.6960   35.6720   28.3490 C.3    37  SER37       0.1924
     19  C         58.9160   37.0070   28.2240 C.2    37  SER37       0.2314
     20  O         58.5200   37.3620   27.1310 O.2    37  SER37      -0.2863
     21  CB        58.8610   34.5960   29.0410 C.3    37  SER37       0.2116
     22  OG        59.3110   33.3370   28.7290 O.3    37  SER37      -0.2180
     23  N         60.6480   39.3190   25.5630 N.3    40  ALA40      -0.1245
     24  CA        60.3490   38.8340   24.2650 C.3    40  ALA40       0.1562
     25  C         58.8720   39.1030   23.8010 C.2    40  ALA40       0.2260
     26  O         58.6180   39.3810   22.6670 O.2    40  ALA40      -0.2867
     27  CB        60.7250   37.3340   24.2360 C.3    40  ALA40       0.0290
     28  N         58.7240   42.8180   22.8750 N.3    43  LYS43      -0.1245
     29  CA        59.3100   42.9870   21.5460 C.3    43  LYS43       0.1561
     30  C         58.3500   42.7180   20.4150 C.2    43  LYS43       0.2260
     31  O         58.2820   43.4870   19.5220 O.2    43  LYS43      -0.2867
     32  CB        60.5830   42.1420   21.3820 C.3    43  LYS43       0.0271
     33  CG        61.9200   42.7940   21.7360 C.3    43  LYS43       0.0035
     34  CD        63.0740   41.7680   21.7320 C.3    43  LYS43       0.0206
     35  CE        63.5070   41.2440   23.1110 C.3    43  LYS43       0.1093
     36  NZ        63.7440   39.7170   23.2840 N.3    43  LYS43      -0.1314
     37  N         56.4320   30.8930   26.1220 N.3    78  ASP78      -0.1239
     38  CA        55.9880   32.2440   25.7610 C.3    78  ASP78       0.1674
     39  C         55.5750   32.3240   24.2790 C.2    78  ASP78       0.2266
     40  O         55.9770   31.5050   23.4210 O.2    78  ASP78      -0.2867
     41  CB        57.0070   33.3600   26.1450 C.3    78  ASP78       0.1410
     42  CG        58.2900   33.3110   25.3470 C.2    78  ASP78       0.3668
     43  OD1       58.3350   33.6990   24.1700 O.co2  78  ASP78      -0.2456
     44  OD2       59.3360   32.9090   25.9130 O.co2  78  ASP78      -0.2456
     45  N         58.5850   37.2210   20.6980 N.3    81  ILE81      -0.1227
     46  CA        59.2220   37.3830   19.4070 C.3    81  ILE81       0.1732
     47  C         59.9250   36.1120   18.8150 C.2    81  ILE81       0.2596
     48  O         60.0060   35.9430   17.6260 O.2    81  ILE81      -0.2718
     49  CB        60.1030   38.6610   19.3670 C.3    81  ILE81       0.0485
     50  CG1       60.3680   39.0410   17.9210 C.2    81  ILE81      -0.0245
     51  CG2       61.3790   38.5270   20.2410 C.3    81  ILE81       0.0067
     52  CD1       60.3150   40.3220   17.6600 C.2    81  ILE81      -0.0049
     53  N         60.3780   35.2090   19.6540 N.am   82  GLY82      -0.1942
     54  CA        61.2090   34.1220   19.1830 C.3    82  GLY82       0.2014
     55  C         62.5950   34.5090   18.7850 C.2    82  GLY82       0.2641
     56  O         62.9700   35.6840   18.6850 O.2    82  GLY82      -0.2714
     57  N         63.3710   33.4880   18.5140 N.am   83  MET83      -0.1931
     58  CA        64.6980   33.7170   18.0100 C.3    83  MET83       0.1821
     59  C         64.9500   33.1110   16.6070 C.2    83  MET83       0.2332
     60  O         64.4310   32.0410   16.2360 O.2    83  MET83      -0.2860
     61  CB        65.7240   33.1910   19.0160 C.2    83  MET83       0.0096
     62  CG        65.6900   33.7540   20.4450 C.2    83  MET83       0.0285
     63  SD        66.7550   32.9830   21.5880 S.3    83  MET83      -0.1125
     64  CE        65.6850   31.7280   22.1380 C.3    83  MET83       0.0742
     65  N         71.5900   32.8150   22.5360 N.3    92  LEU92      -0.1231
     66  CA        70.1720   33.1320   22.7630 C.3    92  LEU92       0.1693
     67  C         69.8780   34.6610   22.8070 C.2    92  LEU92       0.2592
     68  O         69.1120   35.1460   23.5910 O.2    92  LEU92      -0.2718
     69  CB        69.5580   32.3010   23.9280 C.3    92  LEU92       0.0284
     70  CG        69.5900   30.7490   23.8100 C.3    92  LEU92       0.0019
     71  CD1       70.9190   30.1680   24.2520 C.3    92  LEU92       0.0001
     72  CD2       68.4770   30.1420   24.6430 C.3    92  LEU92       0.0001
     73  N         70.4900   35.3740   21.8820 N.am   93  GLY93      -0.1957
     74  CA        70.2040   36.7730   21.6030 C.3    93  GLY93       0.1869
     75  C         70.8110   37.7330   22.5700 C.2    93  GLY93       0.2309
     76  O         70.4770   38.9190   22.5420 O.2    93  GLY93      -0.2863
     77  N         69.1590   33.5460   31.4560 N.3   123  PHE123     -0.1241
     78  CA        68.9740   32.1950   30.8540 C.3   123  PHE123      0.1605
     79  C         69.7690   31.0650   31.5490 C.2   123  PHE123      0.2264
     80  O         69.2180   30.0010   31.8340 O.2   123  PHE123     -0.2867
     81  CB        69.2260   32.1820   29.2960 C.3   123  PHE123      0.0534
     82  CG        69.1410   30.8190   28.6970 C.ar  123  PHE123     -0.0203
     83  CD1       67.9080   30.1610   28.6290 C.ar  123  PHE123     -0.0042
     84  CD2       70.3150   30.1290   28.3450 C.ar  123  PHE123     -0.0042
     85  CE1       67.8350   28.8360   28.1720 C.ar  123  PHE123     -0.0003
     86  CE2       70.2620   28.8450   27.8650 C.ar  123  PHE123     -0.0003
     87  CZ        69.0410   28.1760   27.7820 C.ar  123  PHE123     -0.0000
     88  N         58.9390   30.9590   22.2010 N.3   169  THR169     -0.1218
     89  CA        60.0650   30.2050   22.7760 C.3   169  THR169      0.1862
     90  C         59.5150   29.3060   23.8490 C.2   169  THR169      0.2287
     91  O         58.6550   29.6620   24.6670 O.2   169  THR169     -0.2866
     92  CB        61.2730   31.1540   23.2450 C.3   169  THR169      0.1770
     93  OG1       61.8050   31.8550   22.1070 O.3   169  THR169     -0.2211
     94  CG2       62.4500   30.4490   23.9820 C.3   169  THR169      0.0375
     95  N         61.1570   26.8370   26.7450 N.3   171  VAL171     -0.1245
     96  CA        62.3240   26.3390   27.5510 C.3   171  VAL171      0.1561
     97  C         61.9540   25.0360   28.2910 C.2   171  VAL171      0.2260
     98  O         61.1830   25.0340   29.1950 O.2   171  VAL171     -0.2867
     99  CB        62.9730   27.4560   28.4980 C.3   171  VAL171      0.0252
    100  CG1       64.1640   26.9310   29.2220 C.3   171  VAL171      0.0019
    101  CG2       63.3810   28.6610   27.7380 C.3   171  VAL171      0.0019
@<TRIPOS>BOND
     1    60    59    2
     2    59    58    1
     3    48    47    2
     4    52    50    2
     5    50    49    1
     6    58    57    1
     7    58    61    1
     8    57    55   am
     9    56    55    2
    10    55    54    1
    11    47    46    1
    12    47    53   am
    13    61    62    2
    14    54    53    1
    15    49    46    1
    16    49    51    1
    17    46    45    1
    18    31    30    2
    19    30    29    1
    20    62    63    1
    21    32    29    1
    22    32    33    1
    23    29    28    1
    24    63    64    1
    25    74    73    1
    26    74    75    1
    27    34    33    1
    28    34    35    1
    29    73    67   am
    30    93    92    1
    31    88    89    1
    32    65    66    1
    33    76    75    2
    34    26    25    2
    35    66    67    1
    36    66    69    1
    37    89    92    1
    38    89    90    1
    39    67    68    2
    40    35    36    1
    41    92    94    1
    42    40    39    2
    43    25    24    1
    44    70    69    1
    45    70    71    1
    46    70    72    1
    47    90    91    2
    48    43    42   ar
    49    27    24    1
    50    24    23    1
    51    39    38    1
    52    42    44   ar
    53    42    41    1
    54    38    37    1
    55    38    41    1
    56    95    96    1
    57    20    19    2
    58    96    97    1
    59    96    99    1
    60    12    11    2
    61   101    99    1
    62    87    86   ar
    63    87    85   ar
    64    86    84   ar
    65    85    83   ar
    66    19    18    1
    67    97    98    2
    68    84    82   ar
    69    18    17    1
    70    18    21    1
    71    99   100    1
    72    11    17   am
    73    11    10    1
    74    83    82   ar
    75    82    81    1
    76    22    21    1
    77    13    10    1
    78    13    14    1
    79    81    78    1
    80    10     9    1
    81    14    16   am
    82    14    15    2
    83    78    77    1
    84    78    79    1
    85     4     3    2
    86    79    80    2
    87     8     6    1
    88     3     2    1
    89     2     5    1
    90     2     1    1
    91     5     6    1
    92     6     7    1
