@<TRIPOS>MOLECULE
tmp/2yecA00.pdb
 102 92 0 0 0
SMALL
GASTEIGER

@<TRIPOS>ATOM
      1  N         31.1330   11.5180   15.8370 N.3    33  LEU33      -0.1245
      2  CA        30.5420   12.0220   17.0970 C.3    33  LEU33       0.1561
      3  C         29.2010   11.3790   17.4770 C.2    33  LEU33       0.2260
      4  O         28.9190   11.1910   18.6820 O.2    33  LEU33      -0.2867
      5  CB        30.3820   13.5460   17.0770 C.3    33  LEU33       0.0270
      6  CG        31.6620   14.3930   17.0080 C.3    33  LEU33       0.0019
      7  CD1       31.2230   15.8150   16.9130 C.3    33  LEU33       0.0001
      8  CD2       32.5760   14.1590   18.2160 C.3    33  LEU33       0.0001
      9  N         30.2340    7.8630   18.9020 N.3    36  ASN36      -0.1225
     10  CA        30.6190    8.0830   20.2930 C.3    36  ASN36       0.1785
     11  C         29.4230    8.1930   21.2750 C.2    36  ASN36       0.2597
     12  O         29.4040    7.4980   22.3170 O.2    36  ASN36      -0.2718
     13  CB        31.4960    9.3510   20.4050 C.3    36  ASN36       0.1169
     14  CG        32.9230    9.1080   19.9440 C.2    36  ASN36       0.2627
     15  OD1       33.2820    8.0060   19.4820 O.2    36  ASN36      -0.2716
     16  ND2       33.7320   10.1310   20.0480 N.am   36  ASN36      -0.0877
     17  N         28.4550    9.0350   20.9290 N.am   37  SER37      -0.1952
     18  CA        27.1700    9.1550   21.6450 C.3    37  SER37       0.1924
     19  C         26.4110    7.8120   21.7770 C.2    37  SER37       0.2314
     20  O         25.9510    7.4450   22.8670 O.2    37  SER37      -0.2863
     21  CB        26.2810   10.1780   20.9520 C.3    37  SER37       0.2116
     22  OG        26.6800   11.5210   21.2660 O.3    37  SER37      -0.2180
     23  N         28.1810    5.6290   24.3310 N.3    40  ALA40      -0.1245
     24  CA        27.8370    6.1130   25.6650 C.3    40  ALA40       0.1562
     25  C         26.3800    5.7620   26.0910 C.2    40  ALA40       0.2260
     26  O         26.1170    5.5340   27.2600 O.2    40  ALA40      -0.2867
     27  CB        28.0990    7.6360   25.7610 C.3    40  ALA40       0.0290
     28  N         23.6420   13.8880   23.8440 N.3    78  ASP78      -0.1239
     29  CA        23.2040   12.5140   24.1270 C.3    78  ASP78       0.1674
     30  C         22.9000   12.3690   25.6110 C.2    78  ASP78       0.2266
     31  O         23.4310   13.1260   26.4700 O.2    78  ASP78      -0.2867
     32  CB        24.2160   11.4360   23.6610 C.3    78  ASP78       0.1410
     33  CG        25.4900   11.4000   24.4910 C.2    78  ASP78       0.3668
     34  OD1       25.4880   10.9280   25.6840 O.co2  78  ASP78      -0.2456
     35  OD2       26.5350   11.8510   23.9240 O.co2  78  ASP78      -0.2456
     36  N         25.9290    7.6110   29.2140 N.3    81  ILE81      -0.1231
     37  CA        26.5480    7.4580   30.5140 C.3    81  ILE81       0.1692
     38  C         27.2190    8.7400   31.0490 C.2    81  ILE81       0.2593
     39  O         27.3590    8.9240   32.2670 O.2    81  ILE81      -0.2718
     40  CB        27.5270    6.2210   30.5280 C.3    81  ILE81       0.0266
     41  CG1       27.8890    5.8530   31.9820 C.3    81  ILE81       0.0019
     42  CG2       28.7660    6.4960   29.7520 C.3    81  ILE81       0.0020
     43  CD1       27.7200    4.4720   32.2640 C.3    81  ILE81       0.0001
     44  N         27.6020    9.6290   30.1500 N.am   82  GLY82      -0.1942
     45  CA        28.3120   10.8800   30.5570 C.3    82  GLY82       0.2014
     46  C         29.7250   10.5750   31.0540 C.2    82  GLY82       0.2638
     47  O         30.1160    9.4160   31.0690 O.2    82  GLY82      -0.2714
     48  N         30.4990   11.6010   31.4290 N.am   83  MET83      -0.1976
     49  CA        31.8830   11.3380   31.9050 C.3    83  MET83       0.1605
     50  C         32.2110   11.9740   33.2870 C.2    83  MET83       0.2287
     51  O         31.8510   13.1400   33.5590 O.2    83  MET83      -0.2864
     52  CB        32.9080   11.8030   30.8650 C.3    83  MET83       0.0413
     53  CG        32.9630   10.9950   29.5560 C.3    83  MET83       0.0598
     54  SD        34.0040   11.8300   28.3540 S.3    83  MET83      -0.1393
     55  CE        32.8770   13.0760   27.7350 C.3    83  MET83       0.0692
     56  N         38.8790   12.2470   27.5360 N.3    92  LEU92      -0.1245
     57  CA        37.4610   12.0350   27.2920 C.3    92  LEU92       0.1561
     58  C         37.1460   10.5350   27.2360 C.2    92  LEU92       0.2260
     59  O         36.4810   10.0540   26.3300 O.2    92  LEU92      -0.2867
     60  CB        36.9880   12.7660   25.9950 C.3    92  LEU92       0.0270
     61  CG        37.1090   14.3070   26.1050 C.3    92  LEU92       0.0019
     62  CD1       38.4760   14.7320   25.7230 C.3    92  LEU92       0.0001
     63  CD2       36.1620   14.9810   25.2340 C.3    92  LEU92       0.0001
     64  N         38.8510    7.8670   26.4180 N.3    94  THR94      -0.1218
     65  CA        39.4500    7.0510   25.3250 C.3    94  THR94       0.1862
     66  C         40.8320    6.5340   25.7700 C.2    94  THR94       0.2287
     67  O         41.4110    7.0750   26.7320 O.2    94  THR94      -0.2866
     68  CB        39.6130    7.8770   24.0090 C.3    94  THR94       0.1770
     69  OG1       40.5760    8.9280   24.2100 O.3    94  THR94      -0.2211
     70  CG2       38.2650    8.4650   23.4890 C.3    94  THR94       0.0375
     71  N         36.5500   11.1530   18.2800 N.3   123  PHE123     -0.1241
     72  CA        36.2500   12.4620   18.8590 C.3   123  PHE123      0.1605
     73  C         37.1100   13.5900   18.2490 C.2   123  PHE123      0.2264
     74  O         36.5810   14.6750   17.9440 O.2   123  PHE123     -0.2867
     75  CB        36.3690   12.4540   20.4140 C.3   123  PHE123      0.0534
     76  CG        36.3810   13.8310   20.9980 C.ar  123  PHE123     -0.0203
     77  CD1       35.1600   14.5490   21.1860 C.ar  123  PHE123     -0.0042
     78  CD2       37.6090   14.4730   21.2910 C.ar  123  PHE123     -0.0042
     79  CE1       35.1770   15.8850   21.7260 C.ar  123  PHE123     -0.0003
     80  CE2       37.6320   15.7960   21.7940 C.ar  123  PHE123     -0.0003
     81  CZ        36.4180   16.4960   22.0010 C.ar  123  PHE123     -0.0000
     82  N         32.8710   20.5370   25.6780 N.3   135  VAL135     -0.1245
     83  CA        32.1610   19.3610   26.0780 C.3   135  VAL135      0.1561
     84  C         31.5870   19.6160   27.4810 C.2   135  VAL135      0.2260
     85  O         32.3490   19.7390   28.4820 O.2   135  VAL135     -0.2867
     86  CB        33.0860   18.0680   26.0680 C.3   135  VAL135      0.0252
     87  CG1       32.3040   16.8200   26.4090 C.3   135  VAL135      0.0019
     88  CG2       33.7740   17.8910   24.7190 C.3   135  VAL135      0.0019
     89  N         26.1900   14.0120   27.7750 N.3   169  THR169     -0.1218
     90  CA        27.3090   14.7650   27.2300 C.3   169  THR169      0.1862
     91  C         26.7480   15.6510   26.0500 C.2   169  THR169      0.2287
     92  O         25.9680   15.1350   25.1750 O.2   169  THR169     -0.2866
     93  CB        28.4100   13.7630   26.7610 C.3   169  THR169      0.1770
     94  OG1       28.9040   12.9840   27.8860 O.3   169  THR169     -0.2211
     95  CG2       29.6350   14.4390   25.9760 C.3   169  THR169      0.0375
     96  N         28.4020   18.0140   23.1080 N.3   171  VAL171     -0.1245
     97  CA        29.5980   18.4540   22.3720 C.3   171  VAL171      0.1561
     98  C         29.2240   19.7000   21.5290 C.2   171  VAL171      0.2260
     99  O         28.4610   19.6190   20.5780 O.2   171  VAL171     -0.2867
    100  CB        30.1490   17.3270   21.4930 C.3   171  VAL171      0.0252
    101  CG1       31.3410   17.7640   20.6480 C.3   171  VAL171      0.0019
    102  CG2       30.4870   16.0950   22.3520 C.3   171  VAL171      0.0019
@<TRIPOS>BOND
     1     1     2    1
     2     7     6    1
     3     6     5    1
     4     6     8    1
     5     5     2    1
     6     2     3    1
     7     3     4    2
     8    74    73    2
     9    73    72    1
    10    71    72    1
    11    72    75    1
    12     9    10    1
    13    15    14    2
    14    14    16   am
    15    14    13    1
    16    10    13    1
    17    10    11    1
    18    75    76    1
    19    99    98    2
    20   101   100    1
    21    17    11   am
    22    17    18    1
    23    21    22    1
    24    21    18    1
    25    76    77   ar
    26    76    78   ar
    27    77    79   ar
    28    11    12    2
    29    78    80   ar
    30   100   102    1
    31   100    97    1
    32    98    97    1
    33    18    19    1
    34    79    81   ar
    35    19    20    2
    36    80    81   ar
    37    97    96    1
    38    70    68    1
    39    32    29    1
    40    32    33    1
    41    28    29    1
    42    35    33   ar
    43    68    69    1
    44    68    65    1
    45    29    30    1
    46    23    24    1
    47    33    34   ar
    48    88    86    1
    49    92    91    2
    50    63    61    1
    51    65    66    1
    52    65    64    1
    53    30    31    2
    54    24    27    1
    55    24    25    1
    56    82    83    1
    57    62    61    1
    58    66    67    2
    59    95    93    1
    60    60    61    1
    61    60    57    1
    62    91    90    1
    63    86    83    1
    64    86    87    1
    65    83    84    1
    66    25    26    2
    67    59    58    2
    68    93    90    1
    69    93    94    1
    70    90    89    1
    71    58    57    1
    72    57    56    1
    73    84    85    2
    74    55    54    1
    75    54    53    1
    76    36    37    1
    77    53    52    1
    78    42    40    1
    79    44    45    1
    80    44    38   am
    81    37    40    1
    82    37    38    1
    83    40    41    1
    84    45    46    1
    85    52    49    1
    86    38    39    2
    87    46    47    2
    88    46    48   am
    89    48    49    1
    90    49    50    1
    91    41    43    1
    92    50    51    2
