@<TRIPOS>MOLECULE
tmp/2yedA00.pdb
 115 105 0 0 0
SMALL
GASTEIGER

@<TRIPOS>ATOM
      1  N         31.0200   11.3920   15.9180 N.3    33  LEU33      -0.1245
      2  CA        30.3860   11.9000   17.1510 C.3    33  LEU33       0.1561
      3  C         29.0490   11.2310   17.4940 C.2    33  LEU33       0.2260
      4  O         28.7790   10.9350   18.6810 O.2    33  LEU33      -0.2867
      5  CB        30.1970   13.4220   17.0830 C.3    33  LEU33       0.0270
      6  CG        31.4130   14.3320   16.8290 C.3    33  LEU33       0.0019
      7  CD1       30.9080   15.7890   16.7490 C.3    33  LEU33       0.0001
      8  CD2       32.6070   14.1320   17.8220 C.3    33  LEU33       0.0001
      9  N         29.9650    7.8850   18.7840 N.3    36  ASN36      -0.1225
     10  CA        30.4350    8.0510   20.1840 C.3    36  ASN36       0.1785
     11  C         29.2600    8.1150   21.1930 C.2    36  ASN36       0.2597
     12  O         29.2730    7.5050   22.2870 O.2    36  ASN36      -0.2718
     13  CB        31.2580    9.3520   20.2770 C.3    36  ASN36       0.1169
     14  CG        32.7030    9.2180   19.7730 C.2    36  ASN36       0.2627
     15  OD1       33.1650    8.1530   19.4180 O.2    36  ASN36      -0.2716
     16  ND2       33.4350   10.3160   19.8350 N.am   36  ASN36      -0.0877
     17  N         28.2690    8.9160   20.8340 N.am   37  SER37      -0.1952
     18  CA        26.9840    9.0270   21.5390 C.3    37  SER37       0.1924
     19  C         26.2380    7.6730   21.6400 C.2    37  SER37       0.2314
     20  O         25.7310    7.3000   22.6950 O.2    37  SER37      -0.2863
     21  CB        26.1000   10.0430   20.8440 C.3    37  SER37       0.2116
     22  OG        26.5020   11.3620   21.1530 O.3    37  SER37      -0.2180
     23  N         28.0690    5.4490   24.1690 N.3    40  ALA40      -0.1245
     24  CA        27.7060    6.0030   25.4920 C.3    40  ALA40       0.1562
     25  C         26.2760    5.5730   25.8740 C.2    40  ALA40       0.2260
     26  O         25.9890    5.2840   26.9950 O.2    40  ALA40      -0.2867
     27  CB        27.8020    7.5400   25.4420 C.3    40  ALA40       0.0290
     28  N         26.1640    1.8640   26.8940 N.3    43  LYS43      -0.1245
     29  CA        26.7520    1.6250   28.2280 C.3    43  LYS43       0.1561
     30  C         25.7650    1.8270   29.3230 C.2    43  LYS43       0.2260
     31  O         25.5980    0.9580   30.1470 O.2    43  LYS43      -0.2867
     32  CB        27.9890    2.5060   28.5010 C.3    43  LYS43       0.0271
     33  CG        29.3510    1.8640   28.0920 C.3    43  LYS43       0.0035
     34  CD        30.5080    2.8830   28.0320 C.3    43  LYS43       0.0206
     35  CE        31.6680    2.3450   27.2350 C.3    43  LYS43       0.1093
     36  NZ        32.5150    3.4920   26.7600 N.3    43  LYS43      -0.1314
     37  N         23.6590   13.7390   23.6740 N.3    78  ASP78      -0.1239
     38  CA        23.1060   12.4150   24.0010 C.3    78  ASP78       0.1674
     39  C         22.8110   12.3560   25.4980 C.2    78  ASP78       0.2266
     40  O         23.3130   13.2100   26.2670 O.2    78  ASP78      -0.2867
     41  CB        24.0600   11.2610   23.6010 C.3    78  ASP78       0.1410
     42  CG        25.3660   11.2830   24.3580 C.2    78  ASP78       0.3668
     43  OD1       25.3940   10.9430   25.5990 O.co2  78  ASP78      -0.2456
     44  OD2       26.4010   11.6370   23.6880 O.co2  78  ASP78      -0.2456
     45  N         25.8770    7.4360   29.0260 N.3    81  ILE81      -0.1231
     46  CA        26.5170    7.2920   30.3170 C.3    81  ILE81       0.1692
     47  C         27.1560    8.5860   30.8850 C.2    81  ILE81       0.2593
     48  O         27.3330    8.7320   32.1180 O.2    81  ILE81      -0.2718
     49  CB        27.5380    6.0790   30.3120 C.3    81  ILE81       0.0266
     50  CG1       28.0580    5.7780   31.7090 C.3    81  ILE81       0.0019
     51  CG2       28.7280    6.2900   29.4430 C.3    81  ILE81       0.0020
     52  CD1       27.4550    4.5790   32.2270 C.3    81  ILE81       0.0001
     53  N         27.5520    9.4990   29.9940 N.am   82  GLY82      -0.1942
     54  CA        28.2980   10.7060   30.4150 C.3    82  GLY82       0.2014
     55  C         29.6970   10.3860   30.8680 C.2    82  GLY82       0.2638
     56  O         30.1570    9.2280   30.7660 O.2    82  GLY82      -0.2714
     57  N         30.4120   11.4150   31.3190 N.am   83  MET83      -0.1976
     58  CA        31.8250   11.2250   31.7730 C.3    83  MET83       0.1605
     59  C         32.1120   11.8580   33.1760 C.2    83  MET83       0.2287
     60  O         31.6350   12.9610   33.5060 O.2    83  MET83      -0.2864
     61  CB        32.7890   11.7910   30.7460 C.3    83  MET83       0.0413
     62  CG        33.0450   10.9640   29.5200 C.3    83  MET83       0.0598
     63  SD        33.9500   11.9450   28.2880 S.3    83  MET83      -0.1393
     64  CE        32.6830   13.1540   27.8760 C.3    83  MET83       0.0692
     65  N         38.8640   12.0530   27.4020 N.3    92  LEU92      -0.1231
     66  CA        37.3950   11.8440   27.1820 C.3    92  LEU92       0.1693
     67  C         37.0250   10.3710   27.1280 C.2    92  LEU92       0.2593
     68  O         36.2750    9.9260   26.2760 O.2    92  LEU92      -0.2718
     69  CB        36.8690   12.6780   25.9820 C.3    92  LEU92       0.0284
     70  CG        37.2100   14.1900   26.1010 C.3    92  LEU92       0.0019
     71  CD1       38.4690   14.6040   25.3060 C.3    92  LEU92       0.0001
     72  CD2       36.0910   15.0260   25.6330 C.3    92  LEU92       0.0001
     73  N         37.5560    9.6140   28.0800 N.am   93  GLY93      -0.1942
     74  CA        37.3060    8.1730   28.1780 C.3    93  GLY93       0.2014
     75  C         37.8710    7.3180   27.0300 C.2    93  GLY93       0.2639
     76  O         37.5040    6.1430   26.9020 O.2    93  GLY93      -0.2714
     77  N         38.7520    7.8860   26.1890 N.am   94  THR94      -0.1950
     78  CA        39.3030    7.1240   25.0930 C.3    94  THR94       0.1897
     79  C         40.6670    6.6450   25.5420 C.2    94  THR94       0.2313
     80  O         41.2390    7.1920   26.5220 O.2    94  THR94      -0.2863
     81  CB        39.5340    7.9830   23.8370 C.3    94  THR94       0.1794
     82  OG1       40.5310    8.9760   24.1360 O.3    94  THR94      -0.2208
     83  CG2       38.1990    8.6480   23.2850 C.3    94  THR94       0.0378
     84  N         36.4770   11.1190   18.3550 N.3   123  PHE123     -0.1241
     85  CA        36.1420   12.4160   18.8900 C.3   123  PHE123      0.1605
     86  C         36.9750   13.5170   18.2100 C.2   123  PHE123      0.2264
     87  O         36.4330   14.5950   17.8830 O.2   123  PHE123     -0.2867
     88  CB        36.2920   12.4340   20.4670 C.3   123  PHE123      0.0534
     89  CG        36.2050   13.8120   21.0670 C.ar  123  PHE123     -0.0203
     90  CD1       34.9640   14.4420   21.2690 C.ar  123  PHE123     -0.0042
     91  CD2       37.4070   14.5250   21.3860 C.ar  123  PHE123     -0.0042
     92  CE1       34.9190   15.8050   21.8270 C.ar  123  PHE123     -0.0003
     93  CE2       37.3940   15.8150   21.9130 C.ar  123  PHE123     -0.0003
     94  CZ        36.1720   16.4900   22.0910 C.ar  123  PHE123     -0.0000
     95  N         32.7100   20.4220   25.7000 N.3   135  VAL135     -0.1245
     96  CA        31.9910   19.2000   26.0440 C.3   135  VAL135      0.1561
     97  C         31.4120   19.4480   27.4090 C.2   135  VAL135      0.2260
     98  O         32.1570   19.6930   28.3760 O.2   135  VAL135     -0.2867
     99  CB        32.9490   17.9290   26.0300 C.3   135  VAL135      0.0252
    100  CG1       32.2040   16.6800   26.4750 C.3   135  VAL135      0.0019
    101  CG2       33.5610   17.7410   24.6600 C.3   135  VAL135      0.0019
    102  N         26.0220   13.8150   27.5790 N.3   169  THR169     -0.1218
    103  CA        27.1780   14.5450   27.0570 C.3   169  THR169      0.1862
    104  C         26.7090   15.4460   25.9220 C.2   169  THR169      0.2287
    105  O         25.9280   14.9640   25.0570 O.2   169  THR169     -0.2866
    106  CB        28.2490   13.5230   26.6050 C.3   169  THR169      0.1770
    107  OG1       28.7330   12.8420   27.7690 O.3   169  THR169     -0.2211
    108  CG2       29.4700   14.1520   25.7910 C.3   169  THR169      0.0375
    109  N         28.3470   17.7170   23.0130 N.3   171  VAL171     -0.1245
    110  CA        29.5480   18.1720   22.2600 C.3   171  VAL171      0.1561
    111  C         29.2290   19.4750   21.4580 C.2   171  VAL171      0.2260
    112  O         28.4170   19.4740   20.5570 O.2   171  VAL171     -0.2867
    113  CB        30.1860   17.0260   21.3690 C.3   171  VAL171      0.0252
    114  CG1       31.4590   17.5090   20.6940 C.3   171  VAL171      0.0019
    115  CG2       30.5450   15.8210   22.2350 C.3   171  VAL171      0.0019
@<TRIPOS>BOND
     1     1     2    1
     2     7     6    1
     3     6     5    1
     4     6     8    1
     5     5     2    1
     6     2     3    1
     7     3     4    2
     8    87    86    2
     9    86    85    1
    10    84    85    1
    11     9    10    1
    12    85    88    1
    13    15    14    2
    14    14    16   am
    15    14    13    1
    16    10    13    1
    17    10    11    1
    18    88    89    1
    19   112   111    2
    20   114   113    1
    21    17    11   am
    22    17    18    1
    23    21    22    1
    24    21    18    1
    25    89    90   ar
    26    89    91   ar
    27    11    12    2
    28    90    92   ar
    29   113   115    1
    30   113   110    1
    31    91    93   ar
    32   111   110    1
    33    18    19    1
    34    19    20    2
    35    92    94   ar
    36    93    94   ar
    37   110   109    1
    38    83    81    1
    39    41    38    1
    40    41    42    1
    41    37    38    1
    42    44    42   ar
    43    81    82    1
    44    81    78    1
    45    38    39    1
    46    23    24    1
    47    42    43   ar
    48   101    99    1
    49   105   104    2
    50    78    79    1
    51    78    77    1
    52    71    70    1
    53    27    24    1
    54    24    25    1
    55    39    40    2
    56    79    80    2
    57    72    70    1
    58    95    96    1
    59   108   106    1
    60    25    26    2
    61   104   103    1
    62    69    70    1
    63    69    66    1
    64    99    96    1
    65    99   100    1
    66    96    97    1
    67    77    75   am
    68    68    67    2
    69   106   103    1
    70   106   107    1
    71    36    35    1
    72    28    29    1
    73    76    75    2
    74    75    74    1
    75   103   102    1
    76    67    66    1
    77    67    73   am
    78    66    65    1
    79    35    34    1
    80    97    98    2
    81    64    63    1
    82    34    33    1
    83    73    74    1
    84    33    32    1
    85    29    32    1
    86    29    30    1
    87    63    62    1
    88    45    46    1
    89    30    31    2
    90    51    49    1
    91    62    61    1
    92    53    54    1
    93    53    47   am
    94    49    46    1
    95    49    50    1
    96    46    47    1
    97    54    55    1
    98    61    58    1
    99    56    55    2
   100    55    57   am
   101    47    48    2
   102    57    58    1
   103    50    52    1
   104    58    59    1
   105    59    60    2
