@<TRIPOS>MOLECULE
tmp/2yeeA00.pdb
 92 83 0 0 0
SMALL
GASTEIGER

@<TRIPOS>ATOM
      1  N         -0.9240   11.6530   16.0860 N.3    33  LEU33      -0.1245
      2  CA        -1.2610   12.1660   17.4360 C.3    33  LEU33       0.1561
      3  C         -2.6360   11.7140   17.8540 C.2    33  LEU33       0.2260
      4  O         -2.8810   11.5600   19.0190 O.2    33  LEU33      -0.2867
      5  CB        -1.1720   13.6910   17.5450 C.3    33  LEU33       0.0270
      6  CG         0.0750   14.4400   17.1490 C.3    33  LEU33       0.0019
      7  CD1       -0.3490   15.8920   17.0710 C.3    33  LEU33       0.0001
      8  CD2        1.2040   14.2760   18.1430 C.3    33  LEU33       0.0001
      9  N         -1.8970    8.3710   19.1610 N.3    36  ASN36      -0.1225
     10  CA        -1.3500    8.4520   20.4930 C.3    36  ASN36       0.1785
     11  C         -2.4710    8.6620   21.5490 C.2    36  ASN36       0.2597
     12  O         -2.4790    8.0180   22.5870 O.2    36  ASN36      -0.2718
     13  CB        -0.2940    9.5470   20.5180 C.3    36  ASN36       0.1169
     14  CG         1.0710    9.0590   20.0050 C.2    36  ASN36       0.2627
     15  OD1        1.2320    7.8900   19.5840 O.2    36  ASN36      -0.2716
     16  ND2        2.0770    9.9490   20.0550 N.am   36  ASN36      -0.0877
     17  N         -3.4500    9.5090   21.2420 N.am   37  SER37      -0.1952
     18  CA        -4.6020    9.7280   22.1040 C.3    37  SER37       0.1924
     19  C         -5.4380    8.4740   22.2520 C.2    37  SER37       0.2314
     20  O         -5.8170    8.1050   23.3690 O.2    37  SER37      -0.2863
     21  CB        -5.4620   10.8620   21.5540 C.3    37  SER37       0.2116
     22  OG        -4.7180   12.0620   21.7000 O.3    37  SER37      -0.2180
     23  N         -3.6320    6.1920   24.8240 N.3    40  ALA40      -0.1245
     24  CA        -3.7980    6.7790   26.1530 C.3    40  ALA40       0.1562
     25  C         -5.1670    6.4560   26.7550 C.2    40  ALA40       0.2260
     26  O         -5.2940    6.1920   27.9590 O.2    40  ALA40      -0.2867
     27  CB        -3.6540    8.2960   26.0660 C.3    40  ALA40       0.0290
     28  N         -7.1610   14.9180   24.6480 N.3    78  ASP78      -0.1239
     29  CA        -7.7090   13.6220   24.9780 C.3    78  ASP78       0.1674
     30  C         -7.7700   13.5330   26.4800 C.2    78  ASP78       0.2266
     31  O         -7.0390   14.2500   27.2010 O.2    78  ASP78      -0.2867
     32  CB        -6.8990   12.4790   24.3850 C.3    78  ASP78       0.1410
     33  CG        -5.5570   12.2980   25.0530 C.2    78  ASP78       0.3668
     34  OD1       -5.5310   11.9500   26.2650 O.co2  78  ASP78      -0.2456
     35  OD2       -4.5250   12.4770   24.3510 O.co2  78  ASP78      -0.2456
     36  N         -4.8810    8.5140   29.8620 N.3    81  ILE81      -0.1231
     37  CA        -4.1770    8.3580   31.1250 C.3    81  ILE81       0.1692
     38  C         -3.2130    9.4830   31.5130 C.2    81  ILE81       0.2593
     39  O         -2.6910    9.4940   32.6300 O.2    81  ILE81      -0.2718
     40  CB        -3.3940    6.9910   31.1430 C.3    81  ILE81       0.0266
     41  CG1       -3.3560    6.4450   32.5870 C.3    81  ILE81       0.0019
     42  CG2       -2.0330    7.1290   30.4970 C.3    81  ILE81       0.0020
     43  CD1       -2.3510    5.2990   32.8450 C.3    81  ILE81       0.0001
     44  N         -2.8830   10.3670   30.5890 N.am   82  GLY82      -0.1942
     45  CA        -1.9500   11.4370   30.9120 C.3    82  GLY82       0.2014
     46  C         -0.5330   10.9630   31.1930 C.2    82  GLY82       0.2638
     47  O         -0.1840    9.7530   31.0760 O.2    82  GLY82      -0.2714
     48  N          0.3030   11.9490   31.5400 N.am   83  MET83      -0.1976
     49  CA         1.7570   11.7560   31.6760 C.3    83  MET83       0.1605
     50  C          2.2930   12.4290   32.8790 C.2    83  MET83       0.2287
     51  O          1.9050   13.5610   33.1840 O.2    83  MET83      -0.2864
     52  CB         2.4650   12.2800   30.4530 C.3    83  MET83       0.0413
     53  CG         2.5210   11.2600   29.3540 C.3    83  MET83       0.0598
     54  SD         3.0280   11.9750   27.7960 S.3    83  MET83      -0.1393
     55  CE         1.8640   13.3480   27.6500 C.3    83  MET83       0.0692
     56  N          9.6580    8.2060   28.8260 N.3    92  LEU92      -0.1245
     57  CA         9.2120    8.0900   27.4590 C.3    92  LEU92       0.1561
     58  C         10.4150    8.1370   26.5100 C.2    92  LEU92       0.2260
     59  O         10.5100    7.3100   25.5970 O.2    92  LEU92      -0.2867
     60  CB         8.0920    9.0920   27.1380 C.3    92  LEU92       0.0270
     61  CG         6.8260    8.9110   28.0070 C.3    92  LEU92       0.0019
     62  CD1        5.7680    9.9450   27.6750 C.3    92  LEU92       0.0001
     63  CD2        6.2470    7.5060   27.9220 C.3    92  LEU92       0.0001
     64  N          6.8090    3.5350   17.0470 N.3   120  GLY120     -0.1225
     65  CA         6.3880    4.1100   18.3280 C.3   120  GLY120      0.1811
     66  C          6.9110    5.5050   18.6770 C.2   120  GLY120      0.2280
     67  O          7.0170    5.8440   19.8690 O.2   120  GLY120     -0.2866
     68  N          4.8570   10.8670   17.7900 N.3   123  PHE123     -0.1241
     69  CA         4.6100   12.1670   18.4040 C.3   123  PHE123      0.1605
     70  C          5.4420   13.1920   17.6810 C.2   123  PHE123      0.2264
     71  O          4.9680   14.3060   17.4840 O.2   123  PHE123     -0.2867
     72  CB         4.9250   12.2000   19.9150 C.3   123  PHE123      0.0534
     73  CG         5.0330   13.6150   20.4910 C.ar  123  PHE123     -0.0203
     74  CD1        3.8890   14.3990   20.6880 C.ar  123  PHE123     -0.0042
     75  CD2        6.2900   14.1750   20.7830 C.ar  123  PHE123     -0.0042
     76  CE1        3.9770   15.6720   21.2090 C.ar  123  PHE123     -0.0003
     77  CE2        6.4140   15.4590   21.2760 C.ar  123  PHE123     -0.0003
     78  CZ         5.2460   16.2240   21.5100 C.ar  123  PHE123     -0.0000
     79  N         -4.3360   14.8940   28.2420 N.3   169  THR169     -0.1218
     80  CA        -3.2740   15.5150   27.4870 C.3   169  THR169      0.1862
     81  C         -3.8440   16.3760   26.3800 C.2   169  THR169      0.2287
     82  O         -4.8580   16.0470   25.7450 O.2   169  THR169     -0.2866
     83  CB        -2.3160   14.4140   26.9730 C.3   169  THR169      0.1770
     84  OG1       -1.7130   13.7810   28.1230 O.3   169  THR169     -0.2211
     85  CG2       -1.2390   14.9380   26.0070 C.3   169  THR169      0.0375
     86  N         -2.0990   18.4630   23.3460 N.3   171  VAL171     -0.1245
     87  CA        -0.9840   18.8110   22.5000 C.3   171  VAL171      0.1561
     88  C         -1.2740   20.0870   21.6580 C.2   171  VAL171      0.2260
     89  O         -2.1040   20.0720   20.7050 O.2   171  VAL171     -0.2867
     90  CB        -0.5600   17.6220   21.5940 C.3   171  VAL171      0.0252
     91  CG1        0.5820   18.0430   20.7050 C.3   171  VAL171      0.0019
     92  CG2       -0.2540   16.3250   22.4200 C.3   171  VAL171      0.0019
@<TRIPOS>BOND
     1     1     2    1
     2    64    65    1
     3     7     6    1
     4     6     5    1
     5     6     8    1
     6     2     5    1
     7     2     3    1
     8    71    70    2
     9    70    69    1
    10    68    69    1
    11     3     4    2
    12    65    66    1
    13    69    72    1
    14    66    67    2
    15     9    10    1
    16    15    14    2
    17    72    73    1
    18    14    16   am
    19    14    13    1
    20    73    74   ar
    21    73    75   ar
    22    10    13    1
    23    10    11    1
    24    74    76   ar
    25    89    88    2
    26    91    90    1
    27    75    77   ar
    28    76    78   ar
    29    17    11   am
    30    17    18    1
    31    77    78   ar
    32    11    12    2
    33    21    22    1
    34    21    18    1
    35    90    92    1
    36    90    87    1
    37    88    87    1
    38    18    19    1
    39    19    20    2
    40    87    86    1
    41    35    33   ar
    42    32    29    1
    43    32    33    1
    44    28    29    1
    45    23    24    1
    46    29    30    1
    47    33    34   ar
    48    59    58    2
    49    82    81    2
    50    85    83    1
    51    27    24    1
    52    24    25    1
    53    81    80    1
    54    30    31    2
    55    58    57    1
    56    25    26    2
    57    83    80    1
    58    83    84    1
    59    60    57    1
    60    60    61    1
    61    57    56    1
    62    80    79    1
    63    55    54    1
    64    62    61    1
    65    54    53    1
    66    63    61    1
    67    53    52    1
    68    36    37    1
    69    52    49    1
    70    42    40    1
    71    44    45    1
    72    44    38   am
    73    45    46    1
    74    47    46    2
    75    37    40    1
    76    37    38    1
    77    40    41    1
    78    46    48   am
    79    38    39    2
    80    48    49    1
    81    49    50    1
    82    41    43    1
    83    50    51    2
