@<TRIPOS>MOLECULE
tmp/2yegB00.pdb
 113 103 0 0 0
SMALL
GASTEIGER

@<TRIPOS>ATOM
      1  N         28.7800   55.6470   90.2970 N.3    33  LEU33      -0.1245
      2  CA        28.0010   56.1870   91.4210 C.3    33  LEU33       0.1561
      3  C         26.6330   55.4910   91.6500 C.2    33  LEU33       0.2260
      4  O         26.1650   55.2750   92.7920 O.2    33  LEU33      -0.2867
      5  CB        27.7660   57.6610   91.1740 C.3    33  LEU33       0.0270
      6  CG        28.9440   58.5980   90.9730 C.3    33  LEU33       0.0019
      7  CD1       28.4230   59.9890   91.0300 C.3    33  LEU33       0.0001
      8  CD2       29.9790   58.4030   92.0470 C.3    33  LEU33       0.0001
      9  N         27.9010   52.1390   93.3070 N.3    36  ASN36      -0.1225
     10  CA        28.0920   52.4360   94.7440 C.3    36  ASN36       0.1785
     11  C         26.7490   52.5860   95.5230 C.2    36  ASN36       0.2597
     12  O         26.5720   51.9860   96.5700 O.2    36  ASN36      -0.2718
     13  CB        29.0150   53.6530   94.9590 C.3    36  ASN36       0.1169
     14  CG        30.4660   53.4350   94.4110 C.2    36  ASN36       0.2627
     15  OD1       30.8480   52.3340   93.9720 O.2    36  ASN36      -0.2716
     16  ND2       31.2560   54.4970   94.4270 N.am   36  ASN36      -0.0877
     17  N         25.7850   53.3340   94.9990 N.am   37  SER37      -0.1952
     18  CA        24.4820   53.4540   95.6850 C.3    37  SER37       0.1924
     19  C         23.7850   52.1020   95.9200 C.2    37  SER37       0.2314
     20  O         23.2720   51.8390   97.0210 O.2    37  SER37      -0.2863
     21  CB        23.5180   54.3830   94.9230 C.3    37  SER37       0.2116
     22  OG        23.7360   55.7380   95.2380 O.3    37  SER37      -0.2180
     23  N         25.4920   50.1690   98.6710 N.3    40  ALA40      -0.1245
     24  CA        25.0760   50.7800   99.9190 C.3    40  ALA40       0.1562
     25  C         23.6420   50.3550  100.3050 C.2    40  ALA40       0.2260
     26  O         23.3450   50.1240  101.4800 O.2    40  ALA40      -0.2867
     27  CB        25.1670   52.2900   99.8040 C.3    40  ALA40       0.0290
     28  N         23.6810   46.7340  101.6390 N.3    43  LYS43      -0.1245
     29  CA        24.1430   46.5830  103.0090 C.3    43  LYS43       0.1561
     30  C         23.0130   46.7970  104.0160 C.2    43  LYS43       0.2260
     31  O         22.8120   45.9690  104.9060 O.2    43  LYS43      -0.2867
     32  CB        25.3240   47.5020  103.3240 C.3    43  LYS43       0.0271
     33  CG        26.5110   47.2570  102.4470 C.3    43  LYS43       0.0035
     34  CD        27.7980   47.6560  103.1630 C.3    43  LYS43       0.0206
     35  CE        29.0260   47.3040  102.3160 C.3    43  LYS43       0.1093
     36  NZ        29.0150   48.0200  100.9810 N.3    43  LYS43      -0.1314
     37  N         23.5410   62.5250   93.2090 N.3    76  ILE76      -0.1245
     38  CA        23.0650   61.1520   93.3040 C.3    76  ILE76       0.1561
     39  C         22.8320   60.8900   94.7810 C.2    76  ILE76       0.2260
     40  O         23.7940   60.9270   95.5490 O.2    76  ILE76      -0.2867
     41  CB        24.1150   60.1840   92.7960 C.3    76  ILE76       0.0252
     42  CG1       24.3060   60.3240   91.2960 C.3    76  ILE76       0.0019
     43  CG2       23.6900   58.7460   93.0710 C.3    76  ILE76       0.0019
     44  CD1       24.7640   61.6910   90.8660 C.3    76  ILE76       0.0001
     45  N         21.0880   58.2100   97.7490 N.3    78  ASP78      -0.1239
     46  CA        20.5610   56.8810   98.1090 C.3    78  ASP78       0.1674
     47  C         20.1860   56.8080   99.5770 C.2    78  ASP78       0.2266
     48  O         20.6610   57.5870  100.4130 O.2    78  ASP78      -0.2867
     49  CB        21.5420   55.7580   97.7690 C.3    78  ASP78       0.1410
     50  CG        22.8550   55.8730   98.5320 C.2    78  ASP78       0.3668
     51  OD1       22.8730   55.5700   99.7550 O.co2  78  ASP78      -0.2456
     52  OD2       23.8610   56.2520   97.8930 O.co2  78  ASP78      -0.2456
     53  N         23.1310   52.2150  103.5980 N.3    81  ILE81      -0.1231
     54  CA        23.7900   52.1430  104.9100 C.3    81  ILE81       0.1692
     55  C         24.3400   53.5020  105.4790 C.2    81  ILE81       0.2593
     56  O         24.3500   53.7400  106.7140 O.2    81  ILE81      -0.2718
     57  CB        24.9160   51.0880  104.8370 C.3    81  ILE81       0.0266
     58  CG1       25.3620   50.6170  106.2240 C.3    81  ILE81       0.0019
     59  CG2       26.0690   51.6150  104.0240 C.3    81  ILE81       0.0020
     60  CD1       24.3040   49.8290  106.9920 C.3    81  ILE81       0.0001
     61  N         24.7830   54.3700  104.5780 N.am   82  GLY82      -0.1942
     62  CA        25.4580   55.5920  104.9650 C.3    82  GLY82       0.2014
     63  C         26.8980   55.3200  105.3730 C.2    82  GLY82       0.2638
     64  O         27.3230   54.1610  105.4760 O.2    82  GLY82      -0.2714
     65  N         27.6440   56.3920  105.6250 N.am   83  MET83      -0.1976
     66  CA        29.0020   56.2740  106.1750 C.3    83  MET83       0.1605
     67  C         29.1820   57.0470  107.5130 C.2    83  MET83       0.2287
     68  O         28.8270   58.2210  107.6340 O.2    83  MET83      -0.2864
     69  CB        30.0430   56.7530  105.1420 C.3    83  MET83       0.0413
     70  CG        30.3260   55.8460  103.9180 C.3    83  MET83       0.0598
     71  SD        31.1950   56.7730  102.5880 S.3    83  MET83      -0.1393
     72  CE        29.8990   57.9030  102.0620 C.3    83  MET83       0.0692
     73  N         37.4650   55.3240  103.5790 N.3    91  ASN91      -0.1225
     74  CA        36.9090   54.8310  102.3260 C.3    91  ASN91       0.1785
     75  C         37.1740   55.7800  101.2050 C.2    91  ASN91       0.2597
     76  O         37.5310   55.3660  100.1050 O.2    91  ASN91      -0.2718
     77  CB        35.4060   54.5520  102.4300 C.3    91  ASN91       0.1169
     78  CG        35.0830   53.3050  103.2800 C.2    91  ASN91       0.2627
     79  OD1       35.9920   52.6260  103.8230 O.2    91  ASN91      -0.2716
     80  ND2       33.7710   52.9940  103.3940 N.am   91  ASN91      -0.0877
     81  N         37.0100   57.0650  101.4780 N.am   92  LEU92      -0.1980
     82  CA        37.2850   58.0670  100.4490 C.3    92  LEU92       0.1596
     83  C         38.6940   58.6410  100.5090 C.2    92  LEU92       0.2287
     84  O         39.1270   59.2290   99.5400 O.2    92  LEU92      -0.2864
     85  CB        36.2530   59.1890  100.4780 C.3    92  LEU92       0.0297
     86  CG        34.8120   58.7260  100.3710 C.3    92  LEU92       0.0022
     87  CD1       33.9600   59.9390  100.4610 C.3    92  LEU92       0.0001
     88  CD2       34.5900   58.0040   99.0820 C.3    92  LEU92       0.0001
     89  N         34.1330   55.4840   92.6470 N.3   123  PHE123     -0.1241
     90  CA        33.7640   56.7900   93.2200 C.3   123  PHE123      0.1605
     91  C         34.4960   57.9210   92.5290 C.2   123  PHE123      0.2264
     92  O         33.9080   58.8760   92.0940 O.2   123  PHE123     -0.2867
     93  CB        33.9920   56.8590   94.7530 C.3   123  PHE123      0.0534
     94  CG        33.9680   58.2750   95.3010 C.ar  123  PHE123     -0.0203
     95  CD1       32.7650   58.9160   95.5640 C.ar  123  PHE123     -0.0042
     96  CD2       35.1440   58.9840   95.4940 C.ar  123  PHE123     -0.0042
     97  CE1       32.7400   60.2300   96.0340 C.ar  123  PHE123     -0.0003
     98  CE2       35.1070   60.3020   95.9710 C.ar  123  PHE123     -0.0003
     99  CZ        33.8990   60.9180   96.2370 C.ar  123  PHE123     -0.0000
    100  N         23.4730   58.5420  101.7470 N.3   169  THR169     -0.1218
    101  CA        24.5750   59.2930  101.2100 C.3   169  THR169      0.1862
    102  C         24.0190   60.1050  100.0760 C.2   169  THR169      0.2287
    103  O         23.1860   59.6130   99.3110 O.2   169  THR169     -0.2866
    104  CB        25.6230   58.3390  100.6110 C.3   169  THR169      0.1770
    105  OG1       26.2620   57.6060  101.6500 O.3   169  THR169     -0.2211
    106  CG2       26.6570   59.1030   99.8100 C.3   169  THR169      0.0375
    107  N         25.7260   62.3680   96.8770 N.3   171  VAL171     -0.1245
    108  CA        26.9490   62.6930   96.2070 C.3   171  VAL171      0.1561
    109  C         26.6340   63.8790   95.3120 C.2   171  VAL171      0.2260
    110  O         25.8710   63.7520   94.3670 O.2   171  VAL171     -0.2867
    111  CB        27.4450   61.5170   95.3900 C.3   171  VAL171      0.0252
    112  CG1       28.7050   61.9120   94.6250 C.3   171  VAL171      0.0019
    113  CG2       27.7080   60.3320   96.2900 C.3   171  VAL171      0.0019
@<TRIPOS>BOND
     1     1     2    1
     2    44    42    1
     3     6     7    1
     4     6     5    1
     5     6     8    1
     6     5     2    1
     7    42    41    1
     8     2     3    1
     9     3     4    2
    10    92    91    2
    11    91    90    1
    12    89    90    1
    13    41    43    1
    14    41    38    1
    15    37    38    1
    16    90    93    1
    17    38    39    1
    18     9    10    1
    19    15    14    2
    20   110   109    2
    21    14    16   am
    22    14    13    1
    23   112   111    1
    24    10    13    1
    25    10    11    1
    26    93    94    1
    27    39    40    2
    28    21    22    1
    29    21    18    1
    30    17    11   am
    31    17    18    1
    32    94    96   ar
    33    94    95   ar
    34   109   108    1
    35   111   108    1
    36   111   113    1
    37    96    98   ar
    38    11    12    2
    39    95    97   ar
    40    18    19    1
    41    19    20    2
    42    98    99   ar
    43    97    99   ar
    44   108   107    1
    45    45    46    1
    46    49    46    1
    47    49    50    1
    48    52    50   ar
    49    46    47    1
    50    50    51   ar
    51    23    24    1
    52    88    86    1
    53   103   102    2
    54    84    83    2
    55    47    48    2
    56    27    24    1
    57   106   104    1
    58    24    25    1
    59   102   101    1
    60    76    75    2
    61    25    26    2
    62    86    87    1
    63    86    85    1
    64    82    85    1
    65    82    83    1
    66    82    81    1
    67   104   101    1
    68   104   105    1
    69    36    35    1
    70    75    81   am
    71    75    74    1
    72   101   100    1
    73    28    29    1
    74    72    71    1
    75    35    34    1
    76    74    77    1
    77    74    73    1
    78    77    78    1
    79    33    34    1
    80    33    32    1
    81    71    70    1
    82    29    32    1
    83    29    30    1
    84    78    80   am
    85    78    79    2
    86    53    54    1
    87    70    69    1
    88    30    31    2
    89    59    57    1
    90    61    62    1
    91    61    55   am
    92    57    54    1
    93    57    58    1
    94    54    55    1
    95    62    63    1
    96    69    66    1
    97    63    64    2
    98    63    65   am
    99    55    56    2
   100    65    66    1
   101    66    67    1
   102    58    60    1
   103    67    68    2
