@<TRIPOS>MOLECULE
tmp/2yehA00.pdb
 120 110 0 0 0
SMALL
GASTEIGER

@<TRIPOS>ATOM
      1  N         30.3660   11.3020   15.9680 N.3    33  LEU33      -0.1245
      2  CA        29.6950   11.8740   17.1400 C.3    33  LEU33       0.1561
      3  C         28.4100   11.1620   17.5100 C.2    33  LEU33       0.2260
      4  O         28.2320   10.7320   18.6760 O.2    33  LEU33      -0.2867
      5  CB        29.4090   13.3320   16.8990 C.3    33  LEU33       0.0270
      6  CG        30.6760   14.1780   16.7730 C.3    33  LEU33       0.0019
      7  CD1       30.2820   15.6270   16.7070 C.3    33  LEU33       0.0001
      8  CD2       31.7420   13.8650   17.9220 C.3    33  LEU33       0.0001
      9  N         29.3650    7.9480   18.8430 N.3    36  ASN36      -0.1225
     10  CA        29.7940    8.0360   20.2480 C.3    36  ASN36       0.1785
     11  C         28.5640    8.0440   21.1630 C.2    36  ASN36       0.2597
     12  O         28.5660    7.4360   22.2610 O.2    36  ASN36      -0.2718
     13  CB        30.6510    9.2840   20.5130 C.3    36  ASN36       0.1169
     14  CG        32.0980    9.1520   19.9880 C.2    36  ASN36       0.2627
     15  OD1       32.5110    8.0900   19.5230 O.2    36  ASN36      -0.2716
     16  ND2       32.8560   10.2690   20.0300 N.am   36  ASN36      -0.0877
     17  N         27.5030    8.7250   20.7260 N.am   37  SER37      -0.1952
     18  CA        26.3020    8.8860   21.5620 C.3    37  SER37       0.1924
     19  C         25.5770    7.5450   21.6710 C.2    37  SER37       0.2314
     20  O         25.1040    7.2030   22.7230 O.2    37  SER37      -0.2863
     21  CB        25.3220    9.9270   20.9660 C.3    37  SER37       0.2116
     22  OG        25.8080   11.2900   21.1120 O.3    37  SER37      -0.2180
     23  N         26.9310    4.5010   21.4680 N.3    39  ASP39      -0.1225
     24  CA        27.7330    3.7780   22.5190 C.3    39  ASP39       0.1805
     25  C         27.4550    4.1820   23.9730 C.2    39  ASP39       0.2597
     26  O         27.4380    3.3370   24.8560 O.2    39  ASP39      -0.2718
     27  CB        29.2210    3.9060   22.2670 C.3    39  ASP39       0.1424
     28  CG        29.6280    3.4090   20.9100 C.2    39  ASP39       0.3668
     29  OD1       28.7710    2.8400   20.1370 O.co2  39  ASP39      -0.2456
     30  OD2       30.8470    3.6260   20.6000 O.co2  39  ASP39      -0.2456
     31  N         27.2690    5.4680   24.2220 N.am   40  ALA40      -0.1979
     32  CA        26.8880    5.9990   25.5440 C.3    40  ALA40       0.1597
     33  C         25.4910    5.5630   25.9780 C.2    40  ALA40       0.2287
     34  O         25.2320    5.3360   27.1620 O.2    40  ALA40      -0.2864
     35  CB        26.9560    7.4990   25.5270 C.3    40  ALA40       0.0319
     36  N         25.5200    1.9990   26.8660 N.3    43  LYS43      -0.1245
     37  CA        26.1680    1.8310   28.1560 C.3    43  LYS43       0.1561
     38  C         25.1570    2.0450   29.2520 C.2    43  LYS43       0.2260
     39  O         25.0790    1.2530   30.2080 O.2    43  LYS43      -0.2867
     40  CB        27.3180    2.8290   28.2900 C.3    43  LYS43       0.0271
     41  CG        28.5820    2.2040   28.8790 C.3    43  LYS43       0.0035
     42  CD        29.8540    2.9880   28.5490 C.3    43  LYS43       0.0206
     43  CE        30.3880    2.5810   27.1740 C.3    43  LYS43       0.1093
     44  NZ        31.5130    3.4710   26.7300 N.3    43  LYS43      -0.1314
     45  N         22.9800   13.6180   23.6830 N.3    78  ASP78      -0.1239
     46  CA        22.4230   12.2900   23.9970 C.3    78  ASP78       0.1674
     47  C         22.1590   12.1610   25.4900 C.2    78  ASP78       0.2266
     48  O         22.7080   12.9150   26.3060 O.2    78  ASP78      -0.2867
     49  CB        23.3680   11.1940   23.5530 C.3    78  ASP78       0.1410
     50  CG        24.6310   11.1820   24.3420 C.2    78  ASP78       0.3668
     51  OD1       24.5740   10.9430   25.5740 O.co2  78  ASP78      -0.2456
     52  OD2       25.7000   11.4150   23.6970 O.co2  78  ASP78      -0.2456
     53  N         25.1960    7.5420   29.1090 N.3    81  ILE81      -0.1231
     54  CA        25.6510    7.3390   30.4670 C.3    81  ILE81       0.1692
     55  C         26.3450    8.5730   31.0490 C.2    81  ILE81       0.2593
     56  O         26.3650    8.7650   32.2590 O.2    81  ILE81      -0.2718
     57  CB        26.4920    6.0000   30.6130 C.3    81  ILE81       0.0266
     58  CG1       26.2770    5.4060   32.0050 C.3    81  ILE81       0.0019
     59  CG2       27.9530    6.2210   30.3020 C.3    81  ILE81       0.0020
     60  CD1       27.1300    4.1870   32.3100 C.3    81  ILE81       0.0001
     61  N         26.8600    9.4420   30.1740 N.am   82  GLY82      -0.1942
     62  CA        27.4950   10.6980   30.5990 C.3    82  GLY82       0.2014
     63  C         28.8790   10.4160   31.1170 C.2    82  GLY82       0.2638
     64  O         29.2980    9.2710   31.1270 O.2    82  GLY82      -0.2714
     65  N         29.6200   11.4640   31.4950 N.am   83  MET83      -0.1976
     66  CA        30.9690   11.2200   32.0060 C.3    83  MET83       0.1605
     67  C         31.2190   11.8000   33.3730 C.2    83  MET83       0.2287
     68  O         30.7010   12.8660   33.7040 O.2    83  MET83      -0.2864
     69  CB        32.0150   11.7240   31.0320 C.3    83  MET83       0.0413
     70  CG        32.0630   10.9940   29.7020 C.3    83  MET83       0.0598
     71  SD        33.0970   11.8880   28.4530 S.3    83  MET83      -0.1393
     72  CE        32.0030   13.0750   27.7590 C.3    83  MET83       0.0692
     73  N         37.9650   12.0750   27.6970 N.3    92  LEU92      -0.1231
     74  CA        36.5270   11.8660   27.4460 C.3    92  LEU92       0.1693
     75  C         36.1550   10.3730   27.3750 C.2    92  LEU92       0.2593
     76  O         35.3710    9.9440   26.5400 O.2    92  LEU92      -0.2718
     77  CB        36.0880   12.6650   26.1990 C.3    92  LEU92       0.0284
     78  CG        36.1020   14.2190   26.2790 C.3    92  LEU92       0.0019
     79  CD1       37.4330   14.7900   25.9480 C.3    92  LEU92       0.0001
     80  CD2       35.1370   14.7990   25.3060 C.3    92  LEU92       0.0001
     81  N         36.7220    9.5770   28.2790 N.am   93  GLY93      -0.1942
     82  CA        36.4750    8.1270   28.2930 C.3    93  GLY93       0.2014
     83  C         37.2900    7.3120   27.2870 C.2    93  GLY93       0.2639
     84  O         37.1700    6.0700   27.2350 O.2    93  GLY93      -0.2714
     85  N         38.1430    7.9550   26.4920 N.am   94  THR94      -0.1950
     86  CA        38.8000    7.1840   25.4380 C.3    94  THR94       0.1897
     87  C         40.1950    6.6070   25.7910 C.2    94  THR94       0.2313
     88  O         40.8960    7.0610   26.7110 O.2    94  THR94      -0.2863
     89  CB        38.9570    7.9890   24.1230 C.3    94  THR94       0.1794
     90  OG1       39.8580    9.0840   24.3490 O.3    94  THR94      -0.2208
     91  CG2       37.6230    8.5140   23.6300 C.3    94  THR94       0.0378
     92  N         38.9180    4.3920   18.1830 N.3   120  GLY120     -0.1225
     93  CA        38.2850    4.8420   19.4380 C.3   120  GLY120      0.1811
     94  C         38.5400    6.3140   19.7260 C.2   120  GLY120      0.2280
     95  O         38.3800    6.7620   20.8460 O.2   120  GLY120     -0.2866
     96  N         35.8140   11.0910   18.4010 N.3   123  PHE123     -0.1241
     97  CA        35.4060   12.3440   18.9960 C.3   123  PHE123      0.1605
     98  C         36.2090   13.5120   18.4070 C.2   123  PHE123      0.2264
     99  O         35.6380   14.5840   18.1050 O.2   123  PHE123     -0.2867
    100  CB        35.5320   12.3360   20.5340 C.3   123  PHE123      0.0534
    101  CG        35.4870   13.7170   21.1190 C.ar  123  PHE123     -0.0203
    102  CD1       34.2980   14.4140   21.1640 C.ar  123  PHE123     -0.0042
    103  CD2       36.6710   14.3760   21.5190 C.ar  123  PHE123     -0.0042
    104  CE1       34.2820   15.7370   21.6330 C.ar  123  PHE123     -0.0003
    105  CE2       36.6490   15.6810   21.9680 C.ar  123  PHE123     -0.0003
    106  CZ        35.4580   16.3590   22.0290 C.ar  123  PHE123     -0.0000
    107  N         25.3530   13.8130   27.6630 N.3   169  THR169     -0.1218
    108  CA        26.4490   14.5910   27.1210 C.3   169  THR169      0.1862
    109  C         25.9410   15.4940   26.0020 C.2   169  THR169      0.2287
    110  O         25.1310   15.0670   25.1540 O.2   169  THR169     -0.2866
    111  CB        27.5640   13.6310   26.6170 C.3   169  THR169      0.1770
    112  OG1       28.0410   12.8560   27.7260 O.3   169  THR169     -0.2211
    113  CG2       28.7340   14.3490   25.9350 C.3   169  THR169      0.0375
    114  N         27.6490   17.8670   23.0460 N.3   171  VAL171     -0.1245
    115  CA        28.8560   18.2240   22.3200 C.3   171  VAL171      0.1561
    116  C         28.5130   19.4130   21.4350 C.2   171  VAL171      0.2260
    117  O         27.8840   19.2530   20.3940 O.2   171  VAL171     -0.2867
    118  CB        29.3610   17.0620   21.4620 C.3   171  VAL171      0.0252
    119  CG1       30.6390   17.4670   20.6200 C.3   171  VAL171      0.0019
    120  CG2       29.6420   15.8370   22.3300 C.3   171  VAL171      0.0019
@<TRIPOS>BOND
     1     1     2    1
     2     7     6    1
     3     6     5    1
     4     6     8    1
     5     5     2    1
     6     2     3    1
     7     3     4    2
     8    99    98    2
     9    92    93    1
    10    96    97    1
    11    98    97    1
    12     9    10    1
    13    97   100    1
    14    93    94    1
    15    15    14    2
    16    94    95    2
    17    14    16   am
    18    14    13    1
    19    29    28   ar
    20    10    13    1
    21    10    11    1
    22   117   116    2
    23   100   101    1
    24    30    28   ar
    25   119   118    1
    26    17    11   am
    27    17    18    1
    28    28    27    1
    29    21    22    1
    30    21    18    1
    31   101   102   ar
    32   101   103   ar
    33    11    12    2
    34   102   104   ar
    35   116   115    1
    36   118   115    1
    37   118   120    1
    38    23    24    1
    39   103   105   ar
    40    18    19    1
    41   104   106   ar
    42    19    20    2
    43   105   106   ar
    44    27    24    1
    45   115   114    1
    46    24    25    1
    47    49    46    1
    48    49    50    1
    49    91    89    1
    50    45    46    1
    51    52    50   ar
    52    25    31   am
    53    25    26    2
    54    46    47    1
    55    89    90    1
    56    89    86    1
    57    31    32    1
    58    50    51   ar
    59   110   109    2
    60    80    78    1
    61    86    87    1
    62    86    85    1
    63    47    48    2
    64    35    32    1
    65    32    33    1
    66    87    88    2
    67   113   111    1
    68    79    78    1
    69    33    34    2
    70   109   108    1
    71    77    78    1
    72    77    74    1
    73    85    83   am
    74    76    75    2
    75   111   108    1
    76   111   112    1
    77    44    43    1
    78    36    37    1
    79   108   107    1
    80    43    42    1
    81    84    83    2
    82    83    82    1
    83    75    74    1
    84    75    81   am
    85    74    73    1
    86    72    71    1
    87    37    40    1
    88    37    38    1
    89    81    82    1
    90    40    41    1
    91    71    70    1
    92    42    41    1
    93    53    54    1
    94    38    39    2
    95    70    69    1
    96    61    62    1
    97    61    55   am
    98    59    57    1
    99    54    57    1
   100    54    55    1
   101    62    63    1
   102    57    58    1
   103    69    66    1
   104    55    56    2
   105    63    64    2
   106    63    65   am
   107    65    66    1
   108    58    60    1
   109    66    67    1
   110    67    68    2
