@<TRIPOS>MOLECULE
tmp/2yeiA01.pdb
 92 83 0 0 0
SMALL
GASTEIGER

@<TRIPOS>ATOM
      1  N         -1.0500   11.3310   16.2620 N.3    33  LEU33      -0.1245
      2  CA        -1.6500   11.8670   17.4620 C.3    33  LEU33       0.1561
      3  C         -2.9890   11.2350   17.7200 C.2    33  LEU33       0.2260
      4  O         -3.2580   10.8100   18.8280 O.2    33  LEU33      -0.2867
      5  CB        -1.8180   13.3620   17.3270 C.3    33  LEU33       0.0270
      6  CG        -0.5210   14.1030   17.0390 C.3    33  LEU33       0.0019
      7  CD1       -0.9340   15.5250   16.8950 C.3    33  LEU33       0.0001
      8  CD2        0.5890   13.9250   18.1440 C.3    33  LEU33       0.0001
      9  N         -1.6730    7.8870   18.9470 N.3    36  ASN36      -0.1225
     10  CA        -1.2000    8.2070   20.3020 C.3    36  ASN36       0.1785
     11  C         -2.3050    8.3350   21.3620 C.2    36  ASN36       0.2597
     12  O         -2.2090    7.7340   22.4420 O.2    36  ASN36      -0.2718
     13  CB        -0.3980    9.4970   20.2840 C.3    36  ASN36       0.1169
     14  CG         1.1210    9.2810   20.1250 C.2    36  ASN36       0.2627
     15  OD1        1.6140    8.1560   20.0600 O.2    36  ASN36      -0.2716
     16  ND2        1.8660   10.3880   20.0850 N.am   36  ASN36      -0.0877
     17  N         -3.3270    9.1410   21.0710 N.am   37  SER37      -0.1952
     18  CA        -4.5640    9.2860   21.8980 C.3    37  SER37       0.1924
     19  C         -5.3890    8.0000   22.1460 C.2    37  SER37       0.2314
     20  O         -5.8910    7.7790   23.2510 O.2    37  SER37      -0.2863
     21  CB        -5.4920   10.3330   21.2720 C.3    37  SER37       0.2116
     22  OG        -5.0290   11.6730   21.5030 O.3    37  SER37      -0.2180
     23  N         -3.9250    4.9760   22.0010 N.3    39  ASP39      -0.1225
     24  CA        -3.0480    4.2860   22.9560 C.3    39  ASP39       0.1805
     25  C         -3.2390    4.7190   24.4220 C.2    39  ASP39       0.2597
     26  O         -2.9140    3.9610   25.3270 O.2    39  ASP39      -0.2718
     27  CB        -1.5630    4.4460   22.5600 C.3    39  ASP39       0.1424
     28  CG        -1.1900    3.6180   21.3260 C.2    39  ASP39       0.3668
     29  OD1       -1.9730    2.7000   20.9680 O.co2  39  ASP39      -0.2456
     30  OD2       -0.1090    3.8640   20.7210 O.co2  39  ASP39      -0.2456
     31  N         -3.7420    5.9250   24.6760 N.am   40  ALA40      -0.1979
     32  CA        -3.9160    6.4090   26.0820 C.3    40  ALA40       0.1597
     33  C         -5.3660    6.2770   26.5890 C.2    40  ALA40       0.2287
     34  O         -5.6330    6.3240   27.7930 O.2    40  ALA40      -0.2864
     35  CB        -3.4270    7.8460   26.2190 C.3    40  ALA40       0.0319
     36  N         -7.9330   14.5440   24.4050 N.3    78  ASP78      -0.1239
     37  CA        -8.2730   13.1360   24.6450 C.3    78  ASP78       0.1674
     38  C         -8.4210   12.7920   26.1180 C.2    78  ASP78       0.2266
     39  O         -7.6550   13.2820   26.9450 O.2    78  ASP78      -0.2867
     40  CB        -7.3000   12.1910   23.9070 C.3    78  ASP78       0.1410
     41  CG        -6.0520   11.8520   24.6920 C.2    78  ASP78       0.3668
     42  OD1       -6.1330   11.5590   25.9100 O.co2  78  ASP78      -0.2456
     43  OD2       -4.9680   11.8390   24.0610 O.co2  78  ASP78      -0.2456
     44  N         -3.2450    9.8130   30.6370 N.3    82  GLY82      -0.1210
     45  CA        -2.5390   11.0510   30.9630 C.3    82  GLY82       0.1956
     46  C         -1.0680   10.8790   31.2730 C.2    82  GLY82       0.2611
     47  O         -0.5580    9.7890   31.2220 O.2    82  GLY82      -0.2717
     48  N         -0.3960   11.9820   31.5660 N.am   83  MET83      -0.1979
     49  CA         1.0400   11.9730   31.8320 C.3    83  MET83       0.1605
     50  C          1.3880   12.6070   33.1830 C.2    83  MET83       0.2287
     51  O          0.7740   13.5860   33.6420 O.2    83  MET83      -0.2864
     52  CB         1.8240   12.6080   30.6900 C.3    83  MET83       0.0413
     53  CG         2.0170   11.6940   29.4690 C.3    83  MET83       0.0598
     54  SD         2.3360   12.5940   27.9500 S.3    83  MET83      -0.1393
     55  CE         0.8440   13.6210   27.8010 C.3    83  MET83       0.0692
     56  N          9.3490    9.6100   29.4380 N.3    92  LEU92      -0.1245
     57  CA         9.1460    9.7110   27.9910 C.3    92  LEU92       0.1561
     58  C         10.4680    9.9060   27.2810 C.2    92  LEU92       0.2260
     59  O         10.8400    9.1020   26.4310 O.2    92  LEU92      -0.2867
     60  CB         8.1070   10.7750   27.6840 C.3    92  LEU92       0.0270
     61  CG         6.7860   10.0470   27.9470 C.3    92  LEU92       0.0019
     62  CD1        5.7900   10.9020   28.7290 C.3    92  LEU92       0.0001
     63  CD2        6.2240    9.4860   26.6180 C.3    92  LEU92       0.0001
     64  N          7.7910    4.3390   17.8400 N.3   120  GLY120     -0.1225
     65  CA         7.4250    4.9250   19.1290 C.3   120  GLY120      0.1811
     66  C          7.6090    6.4390   19.2650 C.2   120  GLY120      0.2280
     67  O          7.4630    6.9940   20.3670 O.2   120  GLY120     -0.2866
     68  N          4.4100   11.3090   18.3170 N.3   123  PHE123     -0.1241
     69  CA         4.2630   12.6550   18.8620 C.3   123  PHE123      0.1605
     70  C          5.1750   13.6750   18.1850 C.2   123  PHE123      0.2264
     71  O          4.7010   14.7070   17.6760 O.2   123  PHE123     -0.2867
     72  CB         4.5170   12.6740   20.3830 C.3   123  PHE123      0.0534
     73  CG         4.6560   14.0590   20.9380 C.ar  123  PHE123     -0.0203
     74  CD1        3.5340   14.8620   21.1090 C.ar  123  PHE123     -0.0042
     75  CD2        5.9090   14.5830   21.2340 C.ar  123  PHE123     -0.0042
     76  CE1        3.6410   16.1450   21.5980 C.ar  123  PHE123     -0.0003
     77  CE2        6.0360   15.8650   21.7210 C.ar  123  PHE123     -0.0003
     78  CZ         4.8840   16.6540   21.9020 C.ar  123  PHE123     -0.0000
     79  N         -5.1010   14.3500   27.9760 N.3   169  THR169     -0.1218
     80  CA        -4.0200   15.0810   27.3180 C.3   169  THR169      0.1862
     81  C         -4.7150   15.9760   26.2980 C.2   169  THR169      0.2287
     82  O         -5.5980   15.4920   25.6120 O.2   169  THR169     -0.2866
     83  CB        -3.0410   14.0950   26.6430 C.3   169  THR169      0.1770
     84  OG1       -2.4530   13.2750   27.6510 O.3   169  THR169     -0.2211
     85  CG2       -1.9600   14.8070   25.9200 C.3   169  THR169      0.0375
     86  N         -3.2130   18.4540   23.2110 N.3   171  VAL171     -0.1245
     87  CA        -1.9850   18.8460   22.5110 C.3   171  VAL171      0.1561
     88  C         -2.2690   19.9840   21.5140 C.2   171  VAL171      0.2260
     89  O         -2.8790   19.7730   20.4620 O.2   171  VAL171     -0.2867
     90  CB        -1.3340   17.6650   21.7730 C.3   171  VAL171      0.0252
     91  CG1       -0.2730   18.1460   20.8420 C.3   171  VAL171      0.0019
     92  CG2       -0.7460   16.6470   22.7690 C.3   171  VAL171      0.0019
@<TRIPOS>BOND
     1     1     2    1
     2     7     6    1
     3     6     5    1
     4     6     8    1
     5     5     2    1
     6     2     3    1
     7    71    70    2
     8     3     4    2
     9    64    65    1
    10    70    69    1
    11    68    69    1
    12    69    72    1
    13     9    10    1
    14    65    66    1
    15    66    67    2
    16    15    14    2
    17    16    14   am
    18    14    13    1
    19    13    10    1
    20    10    11    1
    21    72    73    1
    22    89    88    2
    23    30    28   ar
    24    91    90    1
    25    73    74   ar
    26    73    75   ar
    27    29    28   ar
    28    17    11   am
    29    17    18    1
    30    74    76   ar
    31    75    77   ar
    32    21    22    1
    33    21    18    1
    34    28    27    1
    35    11    12    2
    36    88    87    1
    37    76    78   ar
    38    77    78   ar
    39    90    87    1
    40    90    92    1
    41    18    19    1
    42    23    24    1
    43    19    20    2
    44    87    86    1
    45    27    24    1
    46    24    25    1
    47    40    37    1
    48    40    41    1
    49    43    41   ar
    50    36    37    1
    51    25    31   am
    52    25    26    2
    53    37    38    1
    54    31    32    1
    55    41    42   ar
    56    82    81    2
    57    85    83    1
    58    32    35    1
    59    32    33    1
    60    38    39    2
    61    81    80    1
    62    59    58    2
    63    33    34    2
    64    63    61    1
    65    83    80    1
    66    83    84    1
    67    58    57    1
    68    80    79    1
    69    60    61    1
    70    60    57    1
    71    55    54    1
    72    61    62    1
    73    54    53    1
    74    57    56    1
    75    53    52    1
    76    44    45    1
    77    52    49    1
    78    45    46    1
    79    47    46    2
    80    46    48   am
    81    48    49    1
    82    49    50    1
    83    50    51    2
