@<TRIPOS>MOLECULE
tmp/2yeiA00.pdb
 133 127 0 0 0
SMALL
GASTEIGER

@<TRIPOS>ATOM
      1  N         16.5350   18.7300   25.8300 N.3     7  PHE7       -0.1241
      2  CA        16.2620   17.4760   25.2180 C.3     7  PHE7        0.1605
      3  C         17.5160   16.6150   25.2980 C.2     7  PHE7        0.2264
      4  O         18.6190   17.1480   25.2260 O.2     7  PHE7       -0.2867
      5  CB        15.7740   17.6840   23.7900 C.3     7  PHE7        0.0534
      6  CG        14.2960   17.8990   23.6870 C.ar    7  PHE7       -0.0203
      7  CD1       13.4020   16.8790   24.0530 C.ar    7  PHE7       -0.0042
      8  CD2       13.7880   19.1050   23.2190 C.ar    7  PHE7       -0.0042
      9  CE1       12.0210   17.0580   23.9750 C.ar    7  PHE7       -0.0003
     10  CE2       12.3990   19.2990   23.1270 C.ar    7  PHE7       -0.0003
     11  CZ        11.5100   18.2600   23.5090 C.ar    7  PHE7       -0.0000
     12  N         -1.6730    7.8870   18.9470 N.3    36  ASN36      -0.1240
     13  CA        -1.2000    8.2070   20.3020 C.3    36  ASN36       0.1653
     14  C         -2.3050    8.3350   21.3620 C.2    36  ASN36       0.2266
     15  O         -2.2090    7.7340   22.4420 O.2    36  ASN36      -0.2867
     16  CB        -0.3980    9.4970   20.2840 C.3    36  ASN36       0.1155
     17  CG         1.1210    9.2810   20.1250 C.2    36  ASN36       0.2627
     18  OD1        1.6140    8.1560   20.0600 O.2    36  ASN36      -0.2716
     19  ND2        1.8660   10.3880   20.0850 N.am   36  ASN36      -0.0877
     20  N         -0.3960   11.9820   31.5660 N.3    83  MET83      -0.1245
     21  CA         1.0400   11.9730   31.8320 C.3    83  MET83       0.1570
     22  C          1.3880   12.6070   33.1830 C.2    83  MET83       0.2261
     23  O          0.7740   13.5860   33.6420 O.2    83  MET83      -0.2867
     24  CB         1.8240   12.6080   30.6900 C.3    83  MET83       0.0387
     25  CG         2.0170   11.6940   29.4690 C.3    83  MET83       0.0595
     26  SD         2.3360   12.5940   27.9500 S.3    83  MET83      -0.1393
     27  CE         0.8440   13.6210   27.8010 C.3    83  MET83       0.0692
     28  N          6.5590   13.4630   31.7840 N.3    88  LEU88      -0.1245
     29  CA         7.0170   14.5580   30.8980 C.3    88  LEU88       0.1561
     30  C          8.5420   14.7580   31.0160 C.2    88  LEU88       0.2260
     31  O          9.2670   14.7670   30.0210 O.2    88  LEU88      -0.2867
     32  CB         6.2630   15.8580   31.1650 C.3    88  LEU88       0.0270
     33  CG         4.7310   15.9580   31.0960 C.3    88  LEU88       0.0019
     34  CD1        4.3060   17.3450   31.4520 C.3    88  LEU88       0.0001
     35  CD2        4.2130   15.5990   29.7270 C.3    88  LEU88       0.0001
     36  N          9.3490    9.6100   29.4380 N.3    92  LEU92      -0.1231
     37  CA         9.1460    9.7110   27.9910 C.3    92  LEU92       0.1693
     38  C         10.4680    9.9060   27.2810 C.2    92  LEU92       0.2592
     39  O         10.8400    9.1020   26.4310 O.2    92  LEU92      -0.2718
     40  CB         8.1070   10.7750   27.6840 C.3    92  LEU92       0.0284
     41  CG         6.7860   10.0470   27.9470 C.3    92  LEU92       0.0019
     42  CD1        5.7900   10.9020   28.7290 C.3    92  LEU92       0.0001
     43  CD2        6.2240    9.4860   26.6180 C.3    92  LEU92       0.0001
     44  N         11.2070   10.9340   27.6960 N.am   93  GLY93      -0.1957
     45  CA        12.6380   11.0610   27.3710 C.3    93  GLY93       0.1869
     46  C         13.4240    9.7560   27.2680 C.2    93  GLY93       0.2309
     47  O         14.2090    9.5780   26.3340 O.2    93  GLY93      -0.2863
     48  N         12.1910    6.3050   26.8400 N.3    95  ILE95      -0.1231
     49  CA        11.6680    5.5060   25.6990 C.3    95  ILE95       0.1692
     50  C         11.9290    6.1120   24.3170 C.2    95  ILE95       0.2591
     51  O         12.5720    5.5000   23.4610 O.2    95  ILE95      -0.2718
     52  CB        10.1630    5.3220   25.8010 C.3    95  ILE95       0.0266
     53  CG1        9.7740    4.8610   27.1940 C.3    95  ILE95       0.0019
     54  CG2        9.6900    4.3380   24.7600 C.3    95  ILE95       0.0020
     55  CD1       10.5850    3.7130   27.6850 C.3    95  ILE95       0.0001
     56  N         11.3740    7.3030   24.1070 N.am   96  ALA96      -0.1980
     57  CA        11.7090    8.1650   22.9950 C.3    96  ALA96       0.1597
     58  C         13.1700    8.0360   22.5490 C.2    96  ALA96       0.2287
     59  O         13.4560    8.1040   21.3670 O.2    96  ALA96      -0.2864
     60  CB        11.4030    9.6020   23.3710 C.3    96  ALA96       0.0319
     61  N          7.7910    4.3390   17.8400 N.3   120  GLY120     -0.1210
     62  CA         7.4250    4.9250   19.1290 C.3   120  GLY120      0.1956
     63  C          7.6090    6.4390   19.2650 C.2   120  GLY120      0.2612
     64  O          7.4630    6.9940   20.3670 O.2   120  GLY120     -0.2717
     65  N          7.9010    7.1270   18.1600 N.am  121  VAL121     -0.1965
     66  CA         8.2240    8.5600   18.2630 C.3   121  VAL121      0.1727
     67  C          7.2380    9.4820   17.5140 C.2   121  VAL121      0.2617
     68  O          7.5600   10.6470   17.2300 O.2   121  VAL121     -0.2715
     69  CB         9.6830    8.8540   17.8570 C.3   121  VAL121      0.0290
     70  CG1       10.5790    8.6700   19.0340 C.3   121  VAL121      0.0023
     71  CG2       10.1140    7.9480   16.6760 C.3   121  VAL121      0.0023
     72  N          6.0600    8.9340   17.2080 N.am  122  GLY122     -0.1940
     73  CA         4.9540    9.6540   16.6000 C.3   122  GLY122      0.2014
     74  C          4.7490   11.0830   17.0510 C.2   122  GLY122      0.2639
     75  O          4.8700   11.9760   16.2480 O.2   122  GLY122     -0.2714
     76  N          4.4100   11.3090   18.3170 N.am  123  PHE123     -0.1959
     77  CA         4.2630   12.6550   18.8620 C.3   123  PHE123      0.1771
     78  C          5.1750   13.6750   18.1850 C.2   123  PHE123      0.2619
     79  O          4.7010   14.7070   17.6760 O.2   123  PHE123     -0.2715
     80  CB         4.5170   12.6740   20.3830 C.3   123  PHE123      0.0574
     81  CG         4.6560   14.0590   20.9380 C.ar  123  PHE123     -0.0200
     82  CD1        3.5340   14.8620   21.1090 C.ar  123  PHE123     -0.0042
     83  CD2        5.9090   14.5830   21.2340 C.ar  123  PHE123     -0.0042
     84  CE1        3.6410   16.1450   21.5980 C.ar  123  PHE123     -0.0003
     85  CE2        6.0360   15.8650   21.7210 C.ar  123  PHE123     -0.0003
     86  CZ         4.8840   16.6540   21.9020 C.ar  123  PHE123     -0.0000
     87  N          6.4810   13.4220   18.1470 N.am  124  TYR124     -0.1974
     88  CA         7.3670   14.3830   17.4750 C.3   124  TYR124      0.1639
     89  C          6.9740   14.7150   16.0120 C.2   124  TYR124      0.2290
     90  O          7.5410   15.6270   15.4070 O.2   124  TYR124     -0.2864
     91  CB         8.8340   13.9850   17.6380 C.3   124  TYR124      0.0560
     92  CG         9.2110   13.9300   19.1220 C.ar  124  TYR124     -0.0198
     93  CD1        9.5350   15.1020   19.8320 C.ar  124  TYR124     -0.0009
     94  CD2        9.1830   12.7340   19.8170 C.ar  124  TYR124     -0.0009
     95  CE1        9.8410   15.0640   21.1610 C.ar  124  TYR124      0.0417
     96  CE2        9.4780   12.6930   21.1290 C.ar  124  TYR124      0.0417
     97  CZ         9.8090   13.8550   21.8050 C.ar  124  TYR124      0.1957
     98  OH        10.1240   13.7730   23.1450 O.3   124  TYR124     -0.2866
     99  N          1.6040   20.7090   25.3800 N.3   135  VAL135     -0.1245
    100  CA         0.8370   19.5850   25.9230 C.3   135  VAL135      0.1561
    101  C          0.2230   19.9530   27.2670 C.2   135  VAL135      0.2260
    102  O          0.9620   20.2460   28.2050 O.2   135  VAL135     -0.2867
    103  CB         1.7350   18.3310   26.1100 C.3   135  VAL135      0.0252
    104  CG1        1.1800   17.4040   27.2070 C.3   135  VAL135      0.0019
    105  CG2        1.9010   17.5840   24.7690 C.3   135  VAL135      0.0019
    106  N          3.3620   21.2390   29.3480 N.3   147  TRP147     -0.1241
    107  CA         4.6830   21.0070   28.7930 C.3   147  TRP147      0.1605
    108  C          4.6140   21.8520   27.5510 C.2   147  TRP147      0.2264
    109  O          3.5340   22.0190   27.0180 O.2   147  TRP147     -0.2867
    110  CB         4.8070   19.5150   28.4220 C.3   147  TRP147      0.0550
    111  CG         6.0200   19.0430   27.6130 C.ar  147  TRP147      0.0003
    112  CD1        7.1410   18.4130   28.1000 C.ar  147  TRP147      0.0946
    113  CD2        6.1930   19.0880   26.1750 C.ar  147  TRP147      0.0152
    114  NE1        7.9930   18.1000   27.0760 N.ar  147  TRP147     -0.2442
    115  CE2        7.4460   18.5030   25.8870 C.ar  147  TRP147      0.0810
    116  CE3        5.4140   19.5700   25.1130 C.ar  147  TRP147      0.0012
    117  CZ2        7.9430   18.3910   24.5850 C.ar  147  TRP147      0.0191
    118  CZ3        5.9200   19.4650   23.8160 C.ar  147  TRP147      0.0001
    119  CH2        7.1580   18.8510   23.5690 C.ar  147  TRP147      0.0015
    120  N         -5.1010   14.3500   27.9760 N.3   169  THR169     -0.1218
    121  CA        -4.0200   15.0810   27.3180 C.3   169  THR169      0.1862
    122  C         -4.7150   15.9760   26.2980 C.2   169  THR169      0.2287
    123  O         -5.5980   15.4920   25.6120 O.2   169  THR169     -0.2866
    124  CB        -3.0410   14.0950   26.6430 C.3   169  THR169      0.1770
    125  OG1       -2.4530   13.2750   27.6510 O.3   169  THR169     -0.2211
    126  CG2       -1.9600   14.8070   25.9200 C.3   169  THR169      0.0375
    127  N         -3.2130   18.4540   23.2110 N.3   171  VAL171     -0.1245
    128  CA        -1.9850   18.8460   22.5110 C.3   171  VAL171      0.1561
    129  C         -2.2690   19.9840   21.5140 C.2   171  VAL171      0.2260
    130  O         -2.8790   19.7730   20.4620 O.2   171  VAL171     -0.2867
    131  CB        -1.3340   17.6650   21.7730 C.3   171  VAL171      0.0252
    132  CG1       -0.2730   18.1460   20.8420 C.3   171  VAL171      0.0019
    133  CG2       -0.7460   16.6470   22.7690 C.3   171  VAL171      0.0019
@<TRIPOS>BOND
     1    90    89    2
     2    89    88    1
     3    75    74    2
     4    73    74    1
     5    73    72    1
     6    71    69    1
     7    74    76   am
     8    72    67   am
     9    68    67    2
    10    88    91    1
    11    88    87    1
    12    67    66    1
    13    91    92    1
    14    79    78    2
    15    61    62    1
    16    69    66    1
    17    69    70    1
    18    87    78   am
    19    65    66    1
    20    65    63   am
    21    78    77    1
    22    76    77    1
    23    77    80    1
    24    12    13    1
    25    92    94   ar
    26    92    93   ar
    27    62    63    1
    28    63    64    2
    29    94    96   ar
    30    93    95   ar
    31    18    17    2
    32    19    17   am
    33    17    16    1
    34    16    13    1
    35    13    14    1
    36    80    81    1
    37   130   129    2
    38   132   131    1
    39    81    82   ar
    40    81    83   ar
    41    82    84   ar
    42    96    97   ar
    43    95    97   ar
    44    83    85   ar
    45    14    15    2
    46    59    58    2
    47   129   128    1
    48    84    86   ar
    49    85    86   ar
    50   131   128    1
    51   131   133    1
    52    97    98    1
    53   128   127    1
    54    58    57    1
    55    57    60    1
    56    57    56    1
    57    10     8   ar
    58    10    11   ar
    59     8     6   ar
    60    51    50    2
    61    11     9   ar
    62   119   118   ar
    63   119   117   ar
    64     6     5    1
    65     6     7   ar
    66     5     2    1
    67   118   116   ar
    68     9     7   ar
    69    56    50   am
    70    50    49    1
    71   117   115   ar
    72    54    52    1
    73   105   103    1
    74   116   113   ar
    75     2     3    1
    76     2     1    1
    77     4     3    2
    78    99   100    1
    79   123   122    2
    80    49    52    1
    81    49    48    1
    82    52    53    1
    83   115   113   ar
    84   115   114   ar
    85   126   124    1
    86   100   103    1
    87   100   101    1
    88   103   104    1
    89   113   111   ar
    90   122   121    1
    91    47    46    2
    92    39    38    2
    93    43    41    1
    94   124   121    1
    95   124   125    1
    96   109   108    2
    97   114   112   ar
    98    53    55    1
    99   101   102    2
   100    46    45    1
   101    38    44   am
   102    38    37    1
   103   121   120    1
   104    45    44    1
   105   108   107    1
   106   111   112   ar
   107   111   110    1
   108    40    41    1
   109    40    37    1
   110    27    26    1
   111    41    42    1
   112    26    25    1
   113    37    36    1
   114   110   107    1
   115   107   106    1
   116    25    24    1
   117    35    33    1
   118    31    30    2
   119    24    21    1
   120    29    30    1
   121    29    32    1
   122    29    28    1
   123    33    32    1
   124    33    34    1
   125    20    21    1
   126    21    22    1
   127    22    23    2
