@<TRIPOS>MOLECULE
tmp/2yekA00.pdb
 175 172 0 0 0
SMALL
GASTEIGER

@<TRIPOS>ATOM
      1  N         13.4280   14.2640   -4.5910 N.3    24  TRP24      -0.1228
      2  CA        12.8680   13.6910   -5.8210 C.3    24  TRP24       0.1722
      3  C         13.7060   12.6170   -6.5770 C.2    24  TRP24       0.2437
      4  O         13.1240   11.6590   -7.0940 O.2    24  TRP24      -0.2733
      5  CB        12.3890   14.8190   -6.7720 C.3    24  TRP24       0.0563
      6  CG        13.4660   15.6860   -7.3180 C.ar   24  TRP24       0.0003
      7  CD1       13.8610   16.9070   -6.8300 C.ar   24  TRP24       0.0946
      8  CD2       14.2900   15.4290   -8.4680 C.ar   24  TRP24       0.0152
      9  NE1       14.8700   17.4090   -7.5890 N.ar   24  TRP24      -0.2442
     10  CE2       15.1500   16.5400   -8.6130 C.ar   24  TRP24       0.0810
     11  CE3       14.3700   14.3800   -9.3980 C.ar   24  TRP24       0.0012
     12  CZ2       16.1080   16.6250   -9.6330 C.ar   24  TRP24       0.0191
     13  CZ3       15.3180   14.4660  -10.4250 C.ar   24  TRP24       0.0001
     14  CH2       16.1720   15.5880  -10.5330 C.ar   24  TRP24       0.0015
     15  N         15.0620   12.7290   -6.6090 N.am   25  PRO25      -0.2718
     16  CA        15.8130   11.6310   -7.2220 C.3    25  PRO25       0.1535
     17  C         15.7650   10.3120   -6.4410 C.2    25  PRO25       0.2598
     18  O         16.1130    9.2690   -6.9800 O.2    25  PRO25      -0.2715
     19  CB        17.2610   12.1630   -7.2660 C.3    25  PRO25       0.0310
     20  CG        17.1650   13.6160   -7.0010 C.3    25  PRO25       0.0237
     21  CD        15.9780   13.7730   -6.1160 C.3    25  PRO25       0.0939
     22  N         15.3370   10.3650   -5.1890 N.am   26  PHE26      -0.1974
     23  CA        15.4210    9.2270   -4.2850 C.3    26  PHE26       0.1639
     24  C         14.0640    8.6590   -3.9280 C.2    26  PHE26       0.2290
     25  O         13.9790    7.7700   -3.0940 O.2    26  PHE26      -0.2864
     26  CB        16.1060    9.6370   -2.9810 C.3    26  PHE26       0.0560
     27  CG        17.4220   10.2800   -3.1820 C.ar   26  PHE26      -0.0200
     28  CD1       18.5610    9.5110   -3.4010 C.ar   26  PHE26      -0.0042
     29  CD2       17.5280   11.6730   -3.2130 C.ar   26  PHE26      -0.0042
     30  CE1       19.7900   10.1320   -3.6240 C.ar   26  PHE26      -0.0003
     31  CE2       18.7390   12.2840   -3.4400 C.ar   26  PHE26      -0.0003
     32  CZ        19.8760   11.5080   -3.6320 C.ar   26  PHE26      -0.0000
     33  N         11.8900    7.0270   -5.8200 N.3    28  GLN28      -0.1231
     34  CA        11.6110    5.7740   -6.5290 C.3    28  GLN28       0.1683
     35  C         12.9710    5.1280   -6.8150 C.2    28  GLN28       0.2434
     36  O         13.9860    5.8320   -6.8410 O.2    28  GLN28      -0.2733
     37  CB        10.9080    6.0460   -7.8870 C.3    28  GLN28       0.0380
     38  CG         9.4290    6.4840   -7.8450 C.3    28  GLN28       0.0905
     39  CD         8.7780    6.5800   -9.2630 C.2    28  GLN28       0.2608
     40  OE1        9.0900    7.4860  -10.0540 O.2    28  GLN28      -0.2717
     41  NE2        7.8780    5.6350   -9.5760 N.am   28  GLN28      -0.0878
     42  N         13.0000    3.8040   -7.0880 N.am   29  PRO29      -0.2718
     43  CA        14.2730    3.2000   -7.5010 C.3    29  PRO29       0.1535
     44  C         14.9050    3.8990   -8.6950 C.2    29  PRO29       0.2598
     45  O         14.1940    4.4430   -9.5590 O.2    29  PRO29      -0.2715
     46  CB        13.8820    1.7720   -7.8790 C.3    29  PRO29       0.0310
     47  CG        12.6320    1.4940   -7.0780 C.3    29  PRO29       0.0237
     48  CD        11.9110    2.8090   -7.0450 C.3    29  PRO29       0.0939
     49  N         16.2340    3.8680   -8.7520 N.am   30  VAL30      -0.1964
     50  CA        16.9490    4.3700   -9.9060 C.3    30  VAL30       0.1727
     51  C         16.4430    3.5760  -11.0970 C.2    30  VAL30       0.2616
     52  O         16.4770    2.3590  -11.0820 O.2    30  VAL30      -0.2715
     53  CB        18.4720    4.2080   -9.7590 C.3    30  VAL30       0.0290
     54  CG1       19.1640    4.4190  -11.0960 C.3    30  VAL30       0.0023
     55  CG2       19.0090    5.1790   -8.6920 C.3    30  VAL30       0.0023
     56  N         15.9300    4.2770  -12.1010 N.am   31  ASP31      -0.1971
     57  CA        15.4330    3.6440  -13.3270 C.3    31  ASP31       0.1709
     58  C         16.5040    3.7790  -14.4060 C.2    31  ASP31       0.2293
     59  O         16.5920    4.8040  -15.0840 O.2    31  ASP31      -0.2864
     60  CB        14.1210    4.3140  -13.7500 C.3    31  ASP31       0.1436
     61  CG        13.4730    3.6610  -14.9660 C.2    31  ASP31       0.3671
     62  OD1       14.1680    2.9970  -15.7390 O.co2  31  ASP31      -0.2456
     63  OD2       12.2610    3.8490  -15.1660 O.co2  31  ASP31      -0.2456
     64  N         15.2050    4.7110  -17.9830 N.3    34  LYS34      -0.1231
     65  CA        14.8410    6.1290  -18.0810 C.3    34  LYS34       0.1693
     66  C         16.0520    7.0660  -18.0500 C.2    34  LYS34       0.2591
     67  O         16.0780    8.1000  -18.7430 O.2    34  LYS34      -0.2718
     68  CB        13.8950    6.4990  -16.9460 C.3    34  LYS34       0.0285
     69  CG        13.6240    7.9870  -16.7800 C.3    34  LYS34       0.0035
     70  CD        12.4220    8.1910  -15.8830 C.3    34  LYS34       0.0206
     71  CE        12.5100    9.4640  -15.0690 C.3    34  LYS34       0.1093
     72  NZ        11.4670    9.4400  -14.0070 N.3    34  LYS34      -0.1314
     73  N         17.0380    6.7040  -17.2290 N.am   35  LEU35      -0.1980
     74  CA        18.2190    7.5390  -17.0210 C.3    35  LEU35       0.1596
     75  C         19.3430    7.2200  -18.0030 C.2    35  LEU35       0.2287
     76  O         20.2970    7.9930  -18.1310 O.2    35  LEU35      -0.2864
     77  CB        18.7060    7.4170  -15.5720 C.3    35  LEU35       0.0297
     78  CG        17.7510    8.0320  -14.5470 C.3    35  LEU35       0.0022
     79  CD1       18.1180    7.6640  -13.1170 C.3    35  LEU35       0.0001
     80  CD2       17.6980    9.5630  -14.7340 C.3    35  LEU35       0.0001
     81  N         21.4490    4.3970  -18.0720 N.3    37  LEU37      -0.1245
     82  CA        22.5800    3.9660  -17.2510 C.3    37  LEU37       0.1561
     83  C         22.8060    2.4470  -17.3540 C.2    37  LEU37       0.2260
     84  O         22.4410    1.6900  -16.4480 O.2    37  LEU37      -0.2867
     85  CB        22.3170    4.3590  -15.8020 C.3    37  LEU37       0.0270
     86  CG        21.8760    5.8100  -15.5680 C.3    37  LEU37       0.0019
     87  CD1       21.5640    5.9820  -14.1020 C.3    37  LEU37       0.0001
     88  CD2       22.9320    6.8620  -16.0120 C.3    37  LEU37       0.0001
     89  N         24.5390    0.8990  -14.3030 N.3    40  TYR40      -0.1241
     90  CA        24.1120    1.1960  -12.9220 C.3    40  TYR40       0.1605
     91  C         24.0660   -0.0690  -12.0480 C.2    40  TYR40       0.2264
     92  O         24.6530   -0.1130  -10.9620 O.2    40  TYR40      -0.2867
     93  CB        22.7810    1.9620  -12.8470 C.3    40  TYR40       0.0534
     94  CG        22.4610    2.3660  -11.4150 C.ar   40  TYR40      -0.0201
     95  CD1       23.0120    3.5150  -10.8600 C.ar   40  TYR40      -0.0009
     96  CD2       21.6840    1.5550  -10.5930 C.ar   40  TYR40      -0.0009
     97  CE1       22.7620    3.8740   -9.5400 C.ar   40  TYR40       0.0417
     98  CE2       21.4230    1.9130   -9.2680 C.ar   40  TYR40       0.0417
     99  CZ        21.9620    3.0720   -8.7490 C.ar   40  TYR40       0.1957
    100  OH        21.7130    3.4160   -7.4380 O.3    40  TYR40      -0.2866
    101  N         21.1230    3.6900    0.4550 N.3    75  MET75      -0.1245
    102  CA        20.6300    4.6020   -0.5900 C.3    75  MET75       0.1570
    103  C         21.6320    5.7350   -0.8320 C.2    75  MET75       0.2261
    104  O         21.9860    6.0290   -1.9710 O.2    75  MET75      -0.2867
    105  CB        19.2560    5.1630   -0.1860 C.3    75  MET75       0.0387
    106  CG        18.7230    6.2910   -1.0630 C.3    75  MET75       0.0595
    107  SD        17.1870    6.8910   -0.4190 S.3    75  MET75      -0.1393
    108  CE        17.7450    7.8820    0.9770 C.3    75  MET75       0.0692
    109  N         24.5520    6.3350   -4.0830 N.3    79  CYS79      -0.1235
    110  CA        24.5970    7.5830   -4.7920 C.3    79  CYS79       0.1677
    111  C         26.0200    8.1120   -4.8560 C.2    79  CYS79       0.2270
    112  O         26.4810    8.5100   -5.9200 O.2    79  CYS79      -0.2867
    113  CB        23.6550    8.5790   -4.1120 C.3    79  CYS79       0.0956
    114  SG        23.5960   10.1570   -4.9170 S.3    79  CYS79      -0.0801
    115  N         28.2090    5.6660   -7.1830 N.3    82  TYR82      -0.1227
    116  CA        27.9160    5.6720   -8.6100 C.3    82  TYR82       0.1736
    117  C         28.3010    6.9790   -9.3110 C.2    82  TYR82       0.2595
    118  O         28.8560    6.9950  -10.4140 O.2    82  TYR82      -0.2718
    119  CB        26.4410    5.3520   -8.8860 C.3    82  TYR82       0.0548
    120  CG        26.2020    5.2620  -10.3630 C.ar   82  TYR82      -0.0200
    121  CD1       26.6910    4.1920  -11.0910 C.ar   82  TYR82      -0.0009
    122  CD2       25.5790    6.2970  -11.0530 C.ar   82  TYR82      -0.0009
    123  CE1       26.5160    4.1140  -12.4590 C.ar   82  TYR82       0.0417
    124  CE2       25.4050    6.2380  -12.4170 C.ar   82  TYR82       0.0417
    125  CZ        25.8770    5.1480  -13.1230 C.ar   82  TYR82       0.1957
    126  OH        25.6870    5.0940  -14.4890 O.3    82  TYR82      -0.2866
    127  N         28.0200    8.0870   -8.6560 N.am   83  ASN83      -0.1960
    128  CA        28.1370    9.3650   -9.2860 C.3    83  ASN83       0.1819
    129  C         29.5370    9.9570   -9.1920 C.2    83  ASN83       0.2621
    130  O         30.3930    9.4920   -8.4360 O.2    83  ASN83      -0.2715
    131  CB        27.0690   10.2910   -8.7030 C.3    83  ASN83       0.1195
    132  CG        25.6950    9.9090   -9.1750 C.2    83  ASN83       0.2630
    133  OD1       25.3140   10.2290  -10.3040 O.2    83  ASN83      -0.2716
    134  ND2       24.9400    9.2000   -8.3290 N.am   83  ASN83      -0.0877
    135  N         29.7560   10.9960   -9.9720 N.am   84  LYS84      -0.1977
    136  CA        31.0230   11.6990   -9.9320 C.3    84  LYS84       0.1596
    137  C         31.0400   12.6690   -8.7640 C.2    84  LYS84       0.2287
    138  O         29.9790   13.1230   -8.3200 O.2    84  LYS84      -0.2864
    139  CB        31.2680   12.4330  -11.2410 C.3    84  LYS84       0.0298
    140  CG        31.1730   11.5530  -12.4610 C.3    84  LYS84       0.0038
    141  CD        31.2430   12.3910  -13.7280 C.3    84  LYS84       0.0206
    142  CE        30.9710   11.5500  -14.9620 C.3    84  LYS84       0.1093
    143  NZ        31.3140   12.3150  -16.1930 N.3    84  LYS84      -0.1314
    144  N         29.0130   15.9730   -9.2200 N.3    87  ASP87      -0.1225
    145  CA        27.6170   15.9090   -9.6030 C.3    87  ASP87       0.1805
    146  C         26.7430   16.5260   -8.5260 C.2    87  ASP87       0.2598
    147  O         27.0000   16.3600   -7.3500 O.2    87  ASP87      -0.2718
    148  CB        27.1740   14.4750   -9.8230 C.3    87  ASP87       0.1424
    149  CG        27.7090   13.8860  -11.0750 C.2    87  ASP87       0.3668
    150  OD1       28.1040   14.6370  -12.0120 O.co2  87  ASP87      -0.2456
    151  OD2       27.7160   12.6410  -11.1320 O.co2  87  ASP87      -0.2456
    152  N         25.7160   17.2470   -8.9540 N.am   88  ASP88      -0.1960
    153  CA        24.7790   17.9240   -8.0490 C.3    88  ASP88       0.1840
    154  C         24.0890   16.9570   -7.1070 C.2    88  ASP88       0.2621
    155  O         23.7740   17.3200   -5.9730 O.2    88  ASP88      -0.2715
    156  CB        23.6840   18.6530   -8.8340 C.3    88  ASP88       0.1450
    157  CG        24.1750   19.9040   -9.5210 C.2    88  ASP88       0.3671
    158  OD1       25.3610   20.2440   -9.3770 O.co2  88  ASP88      -0.2456
    159  OD2       23.3470   20.5630  -10.1920 O.co2  88  ASP88      -0.2456
    160  N         23.8350   15.7360   -7.5810 N.am   89  ILE89      -0.1977
    161  CA        23.1190   14.7510   -6.7920 C.3    89  ILE89       0.1596
    162  C         23.8840   14.3710   -5.5350 C.2    89  ILE89       0.2287
    163  O         23.2720   14.0110   -4.5310 O.2    89  ILE89      -0.2864
    164  CB        22.7390   13.4630   -7.5930 C.3    89  ILE89       0.0276
    165  CG1       21.6830   12.6900   -6.8210 C.3    89  ILE89       0.0022
    166  CG2       23.9600   12.5570   -7.8640 C.3    89  ILE89       0.0022
    167  CD1       21.0800   11.5390   -7.5910 C.3    89  ILE89       0.0001
    168  N         22.9330   16.9810   -3.1040 N.3    92  MET92      -0.1245
    169  CA        21.5690   16.7090   -2.6930 C.3    92  MET92       0.1570
    170  C         21.5100   15.5680   -1.6630 C.2    92  MET92       0.2261
    171  O         20.8350   15.6900   -0.6260 O.2    92  MET92      -0.2867
    172  CB        20.7050   16.3910   -3.9170 C.3    92  MET92       0.0387
    173  CG        20.6210   17.5310   -4.9350 C.3    92  MET92       0.0595
    174  SD        19.8920   17.0250   -6.5230 S.3    92  MET92      -0.1393
    175  CE        18.1650   17.0470   -6.0740 C.3    92  MET92       0.0692
@<TRIPOS>BOND
     1    67    66    2
     2    76    75    2
     3    65    66    1
     4    65    64    1
     5    65    68    1
     6    81    82    1
     7    66    73   am
     8    75    74    1
     9    83    82    1
    10    83    84    2
    11    82    85    1
    12    73    74    1
    13    74    77    1
    14    68    69    1
    15    69    70    1
    16   143   142    1
    17    88    86    1
    18    70    71    1
    19    85    86    1
    20    62    61   ar
    21    77    78    1
    22    86    87    1
    23    63    61   ar
    24    59    58    2
    25    71    72    1
    26    61    60    1
    27   142   141    1
    28    80    78    1
    29    78    79    1
    30   126   125    1
    31    58    57    1
    32    89    90    1
    33    60    57    1
    34   141   140    1
    35    57    56    1
    36   125   123   ar
    37   125   124   ar
    38    90    93    1
    39    90    91    1
    40    93    94    1
    41   140   139    1
    42   123   121   ar
    43   124   122   ar
    44    56    51   am
    45    91    92    2
    46   150   149   ar
    47    94    95   ar
    48    94    96   ar
    49   139   136    1
    50   151   149   ar
    51    51    52    2
    52    51    50    1
    53    54    53    1
    54   121   120   ar
    55   149   148    1
    56   122   120   ar
    57    95    97   ar
    58    96    98   ar
    59    14    13   ar
    60    14    12   ar
    61    13    11   ar
    62   118   117    2
    63   120   119    1
    64   133   132    2
    65   159   157   ar
    66    40    39    2
    67   135   136    1
    68   135   129   am
    69   136   137    1
    70    50    53    1
    71    50    49    1
    72   148   145    1
    73    53    55    1
    74    12    10   ar
    75   145   144    1
    76   145   146    1
    77    41    39   am
    78    45    44    2
    79    97    99   ar
    80   157   158   ar
    81   157   156    1
    82    11     8   ar
    83   117   127   am
    84   117   116    1
    85   128   129    1
    86   128   131    1
    87   128   127    1
    88    98    99   ar
    89    39    38    1
    90   129   130    2
    91   132   131    1
    92   132   134   am
    93   152   146   am
    94   152   153    1
    95   119   116    1
    96   156   153    1
    97   137   138    2
    98    49    44   am
    99    99   100    1
   100    44    43    1
   101    10     8   ar
   102    10     9   ar
   103   116   115    1
   104   146   147    2
   105     8     6   ar
   106   153   154    1
   107    37    38    1
   108    37    34    1
   109    46    43    1
   110    46    47    1
   111   166   164    1
   112   164   165    1
   113   164   161    1
   114   167   165    1
   115     9     7   ar
   116   160   154   am
   117   160   161    1
   118    43    42    1
   119     6     7   ar
   120     6     5    1
   121    19    16    1
   122    19    20    1
   123    16    15    1
   124    16    17    1
   125   154   155    2
   126     4     3    2
   127    42    48    1
   128    42    35   am
   129    47    48    1
   130    20    21    1
   131    18    17    2
   132    36    35    2
   133    35    34    1
   134   161   162    1
   135     5     2    1
   136    15     3   am
   137    15    21    1
   138     3     2    1
   139    34    33    1
   140   174   175    1
   141   174   173    1
   142    17    22   am
   143   112   111    2
   144     2     1    1
   145   162   163    2
   146    22    23    1
   147   173   172    1
   148   114   113    1
   149   111   110    1
   150   110   113    1
   151   110   109    1
   152    23    24    1
   153    23    26    1
   154    24    25    2
   155   172   169    1
   156    32    30   ar
   157    32    31   ar
   158    30    28   ar
   159    31    29   ar
   160    28    27   ar
   161    29    27   ar
   162    27    26    1
   163   168   169    1
   164   169   170    1
   165   104   103    2
   166   170   171    2
   167   106   107    1
   168   106   105    1
   169   103   102    1
   170   102   105    1
   171   102   101    1
   172   107   108    1
