@<TRIPOS>MOLECULE
tmp/2yemB00.pdb
 151 150 0 0 0
SMALL
GASTEIGER

@<TRIPOS>ATOM
      1  N         -8.9570   -2.5110  -49.7430 N.3    26  TRP26      -0.1228
      2  CA        -8.8770   -2.0760  -51.1470 C.3    26  TRP26       0.1722
      3  C         -9.0320   -0.5550  -51.3950 C.2    26  TRP26       0.2437
      4  O         -8.3270   -0.0190  -52.2450 O.2    26  TRP26      -0.2733
      5  CB        -9.8240   -2.8940  -52.0630 C.3    26  TRP26       0.0563
      6  CG       -11.2880   -2.7290  -51.7590 C.ar   26  TRP26       0.0003
      7  CD1      -12.0710   -3.5670  -51.0270 C.ar   26  TRP26       0.0946
      8  CD2      -12.1330   -1.6480  -52.1690 C.ar   26  TRP26       0.0152
      9  NE1      -13.3500   -3.0770  -50.9500 N.ar   26  TRP26      -0.2442
     10  CE2      -13.4110   -1.8940  -51.6360 C.ar   26  TRP26       0.0810
     11  CE3      -11.9280   -0.4900  -52.9220 C.ar   26  TRP26       0.0012
     12  CZ2      -14.4790   -1.0300  -51.8380 C.ar   26  TRP26       0.0191
     13  CZ3      -12.9860    0.3660  -53.1190 C.ar   26  TRP26       0.0001
     14  CH2      -14.2470    0.0920  -52.5820 C.ar   26  TRP26       0.0015
     15  N         -9.9180    0.1500  -50.6520 N.am   27  PRO27      -0.2718
     16  CA       -10.0310    1.6080  -50.8850 C.3    27  PRO27       0.1535
     17  C         -8.7450    2.4120  -50.6230 C.2    27  PRO27       0.2598
     18  O         -8.6170    3.5450  -51.0980 O.2    27  PRO27      -0.2715
     19  CB       -11.1290    2.0440  -49.8980 C.3    27  PRO27       0.0310
     20  CG       -11.8670    0.8040  -49.5660 C.3    27  PRO27       0.0237
     21  CD       -10.8330   -0.2850  -49.5800 C.3    27  PRO27       0.0939
     22  N         -7.8090    1.8220  -49.8840 N.am   28  PHE28      -0.1974
     23  CA        -6.5490    2.4840  -49.5160 C.3    28  PHE28       0.1639
     24  C         -5.3610    2.0580  -50.3890 C.2    28  PHE28       0.2290
     25  O         -4.2490    2.5500  -50.2010 O.2    28  PHE28      -0.2864
     26  CB        -6.2750    2.2350  -48.0250 C.3    28  PHE28       0.0560
     27  CG        -7.4940    2.4600  -47.1610 C.ar   28  PHE28      -0.0200
     28  CD1       -7.9000    3.7450  -46.8420 C.ar   28  PHE28      -0.0042
     29  CD2       -8.2670    1.3920  -46.7340 C.ar   28  PHE28      -0.0042
     30  CE1       -9.0410    3.9640  -46.0850 C.ar   28  PHE28      -0.0003
     31  CE2       -9.4230    1.5970  -45.9830 C.ar   28  PHE28      -0.0003
     32  CZ        -9.8100    2.8920  -45.6570 C.ar   28  PHE28      -0.0000
     33  N         -4.7640    2.7340  -53.5630 N.3    30  LYS30      -0.1231
     34  CA        -4.3610    3.7640  -54.5270 C.3    30  LYS30       0.1678
     35  C         -4.8080    5.1430  -54.0420 C.2    30  LYS30       0.2434
     36  O         -5.6880    5.2310  -53.1850 O.2    30  LYS30      -0.2733
     37  CB        -5.0070    3.4620  -55.8870 C.3    30  LYS30       0.0284
     38  CG        -4.3920    2.2800  -56.6360 C.3    30  LYS30       0.0035
     39  CD        -3.3330    2.7440  -57.6300 C.3    30  LYS30       0.0206
     40  CE        -3.9710    3.3090  -58.9110 C.3    30  LYS30       0.1093
     41  NZ        -3.2470    4.5010  -59.4750 N.3    30  LYS30      -0.1314
     42  N         -4.2250    6.2270  -54.5990 N.am   31  PRO31      -0.2718
     43  CA        -4.7030    7.5650  -54.2220 C.3    31  PRO31       0.1535
     44  C         -6.2010    7.7420  -54.4700 C.2    31  PRO31       0.2598
     45  O         -6.7410    7.1860  -55.4270 O.2    31  PRO31      -0.2715
     46  CB        -3.9140    8.5070  -55.1420 C.3    31  PRO31       0.0310
     47  CG        -2.7350    7.7220  -55.6020 C.3    31  PRO31       0.0237
     48  CD        -3.1560    6.2880  -55.6150 C.3    31  PRO31       0.0939
     49  N         -6.8600    8.5000  -53.6020 N.am   32  VAL32      -0.1964
     50  CA        -8.2590    8.8490  -53.7970 C.3    32  VAL32       0.1727
     51  C         -8.4140    9.5250  -55.1620 C.2    32  VAL32       0.2616
     52  O         -7.7120   10.4820  -55.4810 O.2    32  VAL32      -0.2715
     53  CB        -8.7780    9.7780  -52.6600 C.3    32  VAL32       0.0290
     54  CG1      -10.2030   10.2140  -52.9250 C.3    32  VAL32       0.0023
     55  CG2       -8.6940    9.0720  -51.3000 C.3    32  VAL32       0.0023
     56  N         -9.3150    8.9880  -55.9760 N.am   33  ASP33      -0.1971
     57  CA        -9.6040    9.5320  -57.2960 C.3    33  ASP33       0.1709
     58  C        -10.7970   10.4690  -57.1300 C.2    33  ASP33       0.2293
     59  O        -11.9580   10.0410  -57.1880 O.2    33  ASP33      -0.2864
     60  CB        -9.9050    8.3870  -58.2690 C.3    33  ASP33       0.1436
     61  CG       -10.0160    8.8400  -59.7220 C.2    33  ASP33       0.3671
     62  OD1      -10.2430   10.0400  -60.0000 O.co2  33  ASP33      -0.2456
     63  OD2       -9.8900    7.9570  -60.5980 O.co2  33  ASP33      -0.2456
     64  N        -14.9040    9.7880  -57.9720 N.3    37  LEU37      -0.1245
     65  CA       -15.8010    9.7490  -56.8200 C.3    37  LEU37       0.1561
     66  C        -16.6790   11.0070  -56.6920 C.2    37  LEU37       0.2260
     67  O        -17.6590   11.0080  -55.9360 O.2    37  LEU37      -0.2867
     68  CB       -14.9900    9.5370  -55.5480 C.3    37  LEU37       0.0270
     69  CG       -14.2710    8.1870  -55.4590 C.3    37  LEU37       0.0019
     70  CD1      -13.2860    8.1730  -54.2910 C.3    37  LEU37       0.0001
     71  CD2      -15.2730    7.0640  -55.3190 C.3    37  LEU37       0.0001
     72  N        -15.6570   14.0300  -55.5610 N.3    39  LEU39      -0.1245
     73  CA       -15.3330   14.7170  -54.3130 C.3    39  LEU39       0.1561
     74  C        -14.6590   16.0550  -54.6310 C.2    39  LEU39       0.2260
     75  O        -13.4340   16.1810  -54.5640 O.2    39  LEU39      -0.2867
     76  CB       -14.4330   13.8460  -53.4470 C.3    39  LEU39       0.0270
     77  CG       -14.8750   12.4030  -53.1900 C.3    39  LEU39       0.0019
     78  CD1      -13.8270   11.6950  -52.3280 C.3    39  LEU39       0.0001
     79  CD2      -16.2540   12.3490  -52.5390 C.3    39  LEU39       0.0001
     80  N        -12.5660   17.5790  -51.6450 N.3    42  TYR42      -0.1241
     81  CA       -11.6110   16.7140  -50.9680 C.3    42  TYR42       0.1605
     82  C        -10.3050   17.4370  -50.6980 C.2    42  TYR42       0.2264
     83  O         -9.8200   17.4510  -49.5690 O.2    42  TYR42      -0.2867
     84  CB       -11.3250   15.4470  -51.7790 C.3    42  TYR42       0.0534
     85  CG       -10.5450   14.4110  -50.9950 C.ar   42  TYR42      -0.0201
     86  CD1      -11.1730   13.6250  -50.0380 C.ar   42  TYR42      -0.0009
     87  CD2       -9.1830   14.2260  -51.2010 C.ar   42  TYR42      -0.0009
     88  CE1      -10.4700   12.6710  -49.3160 C.ar   42  TYR42       0.0417
     89  CE2       -8.4670   13.2760  -50.4820 C.ar   42  TYR42       0.0417
     90  CZ        -9.1160   12.5030  -49.5410 C.ar   42  TYR42       0.1957
     91  OH        -8.4220   11.5680  -48.8130 O.3    42  TYR42      -0.2866
     92  N         -9.0800    9.6980  -43.9890 N.3    81  CYS81      -0.1235
     93  CA       -10.3550    9.0180  -44.1450 C.3    81  CYS81       0.1677
     94  C        -11.3470    9.4150  -43.0480 C.2    81  CYS81       0.2270
     95  O        -12.5110    9.7080  -43.3370 O.2    81  CYS81      -0.2867
     96  CB       -10.1350    7.5000  -44.1710 C.3    81  CYS81       0.0956
     97  SG       -11.5830    6.5540  -44.6160 S.3    81  CYS81      -0.0801
     98  N        -12.3000   13.3030  -43.4670 N.3    84  TYR84      -0.1227
     99  CA       -13.1720   13.6580  -44.5840 C.3    84  TYR84       0.1736
    100  C        -14.5650   13.0440  -44.4910 C.2    84  TYR84       0.2595
    101  O        -15.5440   13.6660  -44.8870 O.2    84  TYR84      -0.2718
    102  CB       -12.5480   13.2650  -45.9200 C.3    84  TYR84       0.0548
    103  CG       -13.4200   13.6760  -47.0790 C.ar   84  TYR84      -0.0200
    104  CD1      -13.4820   15.0040  -47.4840 C.ar   84  TYR84      -0.0009
    105  CD2      -14.2170   12.7470  -47.7450 C.ar   84  TYR84      -0.0009
    106  CE1      -14.2970   15.3970  -48.5320 C.ar   84  TYR84       0.0417
    107  CE2      -15.0310   13.1290  -48.8000 C.ar   84  TYR84       0.0417
    108  CZ       -15.0680   14.4550  -49.1880 C.ar   84  TYR84       0.1957
    109  OH       -15.8670   14.8380  -50.2400 O.3    84  TYR84      -0.2866
    110  N        -14.6510   11.8080  -44.0110 N.am   85  ASN85      -0.1974
    111  CA       -15.9170   11.0810  -44.0180 C.3    85  ASN85       0.1688
    112  C        -16.6190   11.2020  -42.6750 C.2    85  ASN85       0.2292
    113  O        -15.9720   11.3980  -41.6440 O.2    85  ASN85      -0.2864
    114  CB       -15.6870    9.6040  -44.3570 C.3    85  ASN85       0.1181
    115  CG       -15.1080    9.4010  -45.7470 C.2    85  ASN85       0.2629
    116  OD1      -15.8270    9.4460  -46.7370 O.2    85  ASN85      -0.2716
    117  ND2      -13.8080    9.1520  -45.8210 N.am   85  ASN85      -0.0877
    118  N        -19.7970    6.2100  -41.7030 N.3    89  HIS89      -0.1226
    119  CA       -19.5540    5.8690  -43.0980 C.3    89  HIS89       0.1752
    120  C        -18.8890    4.4990  -43.1700 C.2    89  HIS89       0.2596
    121  O        -18.0680    4.1620  -42.3280 O.2    89  HIS89      -0.2718
    122  CB       -18.6550    6.9230  -43.7520 C.3    89  HIS89       0.0759
    123  CG       -18.7810    6.9970  -45.2420 C.ar   89  HIS89       0.0818
    124  ND1      -18.3320    5.9980  -46.0800 N.ar   89  HIS89      -0.2268
    125  CD2      -19.2870    7.9640  -46.0460 C.ar   89  HIS89       0.1154
    126  CE1      -18.5610    6.3440  -47.3350 C.ar   89  HIS89       0.1986
    127  NE2      -19.1400    7.5330  -47.3420 N.ar   89  HIS89      -0.2212
    128  N        -19.2620    3.7240  -44.1790 N.am   90  GLU90      -0.1965
    129  CA       -18.7470    2.3730  -44.3750 C.3    90  GLU90       0.1733
    130  C        -17.2270    2.3310  -44.5550 C.2    90  GLU90       0.2616
    131  O        -16.5710    1.3960  -44.0870 O.2    90  GLU90      -0.2715
    132  CB       -19.4320    1.7490  -45.5900 C.3    90  GLU90       0.0429
    133  CG       -19.1540    0.2710  -45.8180 C.3    90  GLU90       0.1163
    134  CD       -19.7440   -0.2270  -47.1380 C.2    90  GLU90       0.3649
    135  OE1      -20.3940    0.5760  -47.8650 O.co2  90  GLU90      -0.2457
    136  OE2      -19.5490   -1.4230  -47.4470 O.co2  90  GLU90      -0.2457
    137  N        -16.6660    3.3380  -45.2230 N.am   91  VAL91      -0.1977
    138  CA       -15.2230    3.3870  -45.4670 C.3    91  VAL91       0.1596
    139  C        -14.4330    3.6600  -44.1840 C.2    91  VAL91       0.2287
    140  O        -13.2700    3.2810  -44.0810 O.2    91  VAL91      -0.2864
    141  CB       -14.8460    4.4190  -46.5710 C.3    91  VAL91       0.0276
    142  CG1      -14.9350    5.8670  -46.0510 C.3    91  VAL91       0.0022
    143  CG2      -13.4440    4.1230  -47.1250 C.3    91  VAL91       0.0022
    144  N        -14.0090    0.3340  -42.4360 N.3    94  MET94      -0.1245
    145  CA       -12.9810   -0.3990  -43.1640 C.3    94  MET94       0.1570
    146  C        -11.5900    0.0960  -42.7830 C.2    94  MET94       0.2261
    147  O        -10.6690   -0.7110  -42.5860 O.2    94  MET94      -0.2867
    148  CB       -13.1920   -0.2730  -44.6840 C.3    94  MET94       0.0387
    149  CG       -14.4420   -1.0040  -45.2050 C.3    94  MET94       0.0595
    150  SD       -14.9650   -0.5540  -46.8850 S.3    94  MET94      -0.1393
    151  CE       -13.8330   -1.5210  -47.8830 C.3    94  MET94       0.0692
@<TRIPOS>BOND
     1    63    61   ar
     2    62    61   ar
     3    61    60    1
     4    41    40    1
     5    40    39    1
     6    60    57    1
     7    64    65    1
     8    39    38    1
     9    57    58    1
    10    57    56    1
    11    59    58    2
    12    65    66    1
    13    65    68    1
    14    66    67    2
    15    38    37    1
    16    56    51   am
    17    37    34    1
    18    48    47    1
    19    48    42    1
    20    47    46    1
    21    72    73    1
    22    68    69    1
    23    52    51    2
    24    69    71    1
    25    69    70    1
    26    45    44    2
    27    51    50    1
    28    46    43    1
    29    74    75    2
    30    74    73    1
    31    42    43    1
    32    42    35   am
    33    34    35    1
    34    34    33    1
    35    44    43    1
    36    44    49   am
    37    73    76    1
    38    35    36    2
    39    50    49    1
    40    50    53    1
    41    76    77    1
    42    77    79    1
    43    77    78    1
    44    13    11   ar
    45    13    14   ar
    46    54    53    1
    47    11     8   ar
    48    53    55    1
    49    14    12   ar
    50     4     3    2
    51     8     6   ar
    52     8    10   ar
    53     5     6    1
    54     5     2    1
    55    12    10   ar
    56    84    85    1
    57    84    81    1
    58     6     7   ar
    59    80    81    1
    60    10     9   ar
    61     3     2    1
    62     3    15   am
    63    87    85   ar
    64    87    89   ar
    65     2     1    1
    66    18    17    2
    67     7     9   ar
    68    85    86   ar
    69    81    82    1
    70    16    15    1
    71    16    17    1
    72    16    19    1
    73    82    83    2
    74    15    21    1
    75    17    22   am
    76    89    90   ar
    77    24    25    2
    78    24    23    1
    79   109   108    1
    80    86    88   ar
    81    19    20    1
    82    22    23    1
    83    21    20    1
    84    90    88   ar
    85    90    91    1
    86    23    26    1
    87   108   107   ar
    88   108   106   ar
    89   107   105   ar
    90   106   104   ar
    91    26    27    1
    92   151   150    1
    93   135   134   ar
    94   105   103   ar
    95   104   103   ar
    96   136   134   ar
    97   127   126   ar
    98   127   125   ar
    99   126   124   ar
   100    27    28   ar
   101    27    29   ar
   102   134   133    1
   103   143   141    1
   104   103   102    1
   105   150   149    1
   106    28    30   ar
   107   116   115    2
   108    29    31   ar
   109   141   142    1
   110   141   138    1
   111    30    32   ar
   112   124   123   ar
   113   125   123   ar
   114    31    32   ar
   115   102    99    1
   116   117   115   am
   117   133   132    1
   118   115   114    1
   119   132   129    1
   120   138   137    1
   121   138   139    1
   122   123   122    1
   123   137   130   am
   124   149   148    1
   125   101   100    2
   126   148   145    1
   127    97    96    1
   128    99   100    1
   129    99    98    1
   130   130   129    1
   131   130   131    2
   132   100   110   am
   133   129   128    1
   134   114   111    1
   135   139   140    2
   136   128   120   am
   137    96    93    1
   138    93    92    1
   139    93    94    1
   140   111   110    1
   141   111   112    1
   142   122   119    1
   143    95    94    2
   144   120   119    1
   145   120   121    2
   146   145   146    1
   147   145   144    1
   148   119   118    1
   149   146   147    2
   150   112   113    2
