@<TRIPOS>MOLECULE
tmp/2yepA00.pdb
 77 73 0 0 0
SMALL
GASTEIGER

@<TRIPOS>ATOM
      1  N         19.2870    8.3560  -75.2910 N.3    69  ALA69      -0.1245
      2  CA        18.7120    7.0160  -75.1890 C.3    69  ALA69       0.1562
      3  C         19.7460    5.9580  -74.9980 C.2    69  ALA69       0.2260
      4  O         19.4120    4.8380  -74.6930 O.2    69  ALA69      -0.2867
      5  CB        17.8450    6.6800  -76.3910 C.3    69  ALA69       0.0290
      6  N         16.3400    7.5310  -72.2910 N.3   104  THR104     -0.1203
      7  CA        15.5460    7.9860  -73.4370 C.3   104  THR104      0.1994
      8  C         16.0730    9.2790  -74.0260 C.2   104  THR104      0.2618
      9  O         16.5430   10.1480  -73.3010 O.2   104  THR104     -0.2717
     10  CB        14.0480    8.1260  -73.1010 C.3   104  THR104      0.1784
     11  OG1       13.3340    8.5250  -74.2710 O.3   104  THR104     -0.2211
     12  CG2       13.8010    9.1110  -71.9590 C.3   104  THR104      0.0376
     13  N         16.0120    9.3900  -75.3460 N.am  105  GLY105     -0.1942
     14  CA        16.6000   10.5260  -76.0260 C.3   105  GLY105      0.2014
     15  C         17.1620   10.1230  -77.3670 C.2   105  GLY105      0.2638
     16  O         16.6710    9.1920  -77.9930 O.2   105  GLY105     -0.2714
     17  N         18.1970   10.8120  -77.8170 N.am  106  VAL106     -0.1977
     18  CA        18.7290   10.5550  -79.1530 C.3   106  VAL106      0.1596
     19  C         19.4760    9.1960  -79.3050 C.2   106  VAL106      0.2287
     20  O         19.8880    8.5990  -78.3220 O.2   106  VAL106     -0.2864
     21  CB        19.5850   11.7360  -79.6900 C.3   106  VAL106      0.0276
     22  CG1       19.5430   11.7110  -81.1930 C.3   106  VAL106      0.0022
     23  CG2       19.0570   13.0960  -79.1770 C.3   106  VAL106      0.0022
     24  N         11.1510   14.1470  -72.5580 N.3   141  THR141     -0.1203
     25  CA        11.7360   14.7620  -73.7840 C.3   141  THR141      0.1994
     26  C         11.0440   15.5900  -74.9050 C.2   141  THR141      0.2619
     27  O         11.3340   16.7780  -75.0390 O.2   141  THR141     -0.2717
     28  CB        12.3900   13.6170  -74.5300 C.3   141  THR141      0.1784
     29  OG1       11.3740   12.7660  -75.0650 O.3   141  THR141     -0.2211
     30  CG2       13.2960   12.8140  -73.6190 C.3   141  THR141      0.0376
     31  N         10.1230   15.0050  -75.6850 N.am  142  THR142     -0.1938
     32  CA         9.3830   15.8180  -76.6780 C.3   142  THR142      0.2028
     33  C          7.9390   16.0600  -76.1610 C.2   142  THR142      0.2642
     34  O          7.1990   16.9090  -76.7050 O.2   142  THR142     -0.2714
     35  CB         9.3940   15.3770  -78.1540 C.3   142  THR142      0.1808
     36  OG1        8.8560   14.0640  -78.2730 O.3   142  THR142     -0.2208
     37  CG2       10.7740   15.4310  -78.7230 C.3   142  THR142      0.0379
     38  N          7.5680   15.3460  -75.1000 N.am  143  ASP143     -0.1971
     39  CA         6.4280   15.6720  -74.2280 C.3   143  ASP143      0.1709
     40  C          6.2830   17.1570  -73.9220 C.2   143  ASP143      0.2293
     41  O          7.2590   17.7880  -73.5640 O.2   143  ASP143     -0.2864
     42  CB         6.6140   14.9310  -72.9210 C.3   143  ASP143      0.1436
     43  CG         6.8630   13.4690  -73.1320 C.2   143  ASP143      0.3671
     44  OD1        8.0150   13.0990  -73.4460 O.co2 143  ASP143     -0.2456
     45  OD2        5.9020   12.6960  -72.9910 O.co2 143  ASP143     -0.2456
     46  N          5.8980    8.9160  -70.0060 N.3   163  LYS163     -0.1231
     47  CA         6.5880    9.7790  -70.9200 C.3   163  LYS163      0.1693
     48  C          6.6820    9.1010  -72.2850 C.2   163  LYS163      0.2593
     49  O          6.9650    7.9060  -72.4060 O.2   163  LYS163     -0.2718
     50  CB         7.9780   10.0630  -70.3260 C.3   163  LYS163      0.0285
     51  CG         8.9950   10.6350  -71.2310 C.3   163  LYS163      0.0035
     52  CD         9.6910    9.5630  -72.0520 C.3   163  LYS163      0.0206
     53  CE        10.5490   10.2310  -73.0710 C.3   163  LYS163      0.1093
     54  NZ        10.7120    9.3740  -74.1940 N.3   163  LYS163     -0.1314
     55  N          6.4670    9.9000  -73.3160 N.am  164  GLY164     -0.1942
     56  CA         6.7330    9.4950  -74.6860 C.3   164  GLY164      0.2014
     57  C          5.5730    9.8300  -75.6020 C.2   164  GLY164      0.2639
     58  O          4.4440    9.5300  -75.2840 O.2   164  GLY164     -0.2714
     59  N          5.8450   10.4550  -76.7380 N.am  165  VAL165     -0.1963
     60  CA         4.7920   10.9220  -77.6390 C.3   165  VAL165      0.1727
     61  C          5.2630   10.9350  -79.0590 C.2   165  VAL165      0.2617
     62  O          4.6110   11.4910  -79.9270 O.2   165  VAL165     -0.2715
     63  CB         4.2300   12.3170  -77.2870 C.3   165  VAL165      0.0290
     64  CG1        3.2430   12.2060  -76.1970 C.3   165  VAL165      0.0023
     65  CG2        5.3220   13.3190  -76.9670 C.3   165  VAL165      0.0023
     66  N          6.4090   10.3080  -79.2690 N.am  166  GLY166     -0.1940
     67  CA         7.0090   10.1590  -80.5850 C.3   166  GLY166      0.2014
     68  C          7.8250    8.9180  -80.4300 C.2   166  GLY166      0.2638
     69  O          8.1190    8.5430  -79.3110 O.2   166  GLY166     -0.2714
     70  N          8.1740    8.2790  -81.5420 N.am  167  MET167     -0.1976
     71  CA         8.8250    6.9700  -81.5220 C.3   167  MET167      0.1605
     72  C          8.0690    6.0290  -80.5650 C.2   167  MET167      0.2287
     73  O          8.6450    5.3530  -79.6970 O.2   167  MET167     -0.2864
     74  CB        10.3000    7.0730  -81.1510 C.3   167  MET167      0.0413
     75  CG        11.0930    5.9040  -81.6780 C.3   167  MET167      0.0598
     76  SD        12.8230    5.9460  -81.2820 S.3   167  MET167     -0.1393
     77  CE        13.4650    6.9150  -82.6260 C.3   167  MET167      0.0692
@<TRIPOS>BOND
     1    77    76    1
     2    75    76    1
     3    75    74    1
     4    70    71    1
     5    70    68   am
     6    71    74    1
     7    71    72    1
     8    22    21    1
     9    67    68    1
    10    67    66    1
    11    72    73    2
    12    68    69    2
    13    62    61    2
    14    21    23    1
    15    21    18    1
    16    19    18    1
    17    19    20    2
    18    66    61   am
    19    18    17    1
    20    61    60    1
    21    37    35    1
    22    36    35    1
    23    35    32    1
    24    16    15    2
    25    17    15   am
    26    60    63    1
    27    60    59    1
    28    15    14    1
    29    63    65    1
    30    63    64    1
    31    59    57   am
    32    34    33    2
    33    32    33    1
    34    32    31    1
    35     5     2    1
    36    33    38   am
    37    14    13    1
    38    31    26   am
    39    57    58    2
    40    57    56    1
    41    13     8   am
    42     1     2    1
    43     2     3    1
    44    38    39    1
    45    29    28    1
    46    27    26    2
    47     3     4    2
    48    26    25    1
    49    56    55    1
    50    28    25    1
    51    28    30    1
    52    11    10    1
    53    39    40    1
    54    39    42    1
    55    54    53    1
    56     8     7    1
    57     8     9    2
    58    40    41    2
    59    25    24    1
    60    44    43   ar
    61     7    10    1
    62     7     6    1
    63    55    48   am
    64    43    45   ar
    65    43    42    1
    66    10    12    1
    67    53    52    1
    68    49    48    2
    69    48    47    1
    70    52    51    1
    71    51    50    1
    72    47    50    1
    73    47    46    1
