@<TRIPOS>MOLECULE
tmp/2yeqA03.pdb
 93 82 0 0 0
SMALL
GASTEIGER

@<TRIPOS>ATOM
      1  N        145.1920  102.6910  362.3650 N.3   116  GLN116     -0.1245
      2  CA       146.3080  102.0110  361.7110 C.3   116  GLN116      0.1566
      3  C        145.8940  101.4010  360.3620 C.2   116  GLN116      0.2260
      4  O        144.7200  101.0880  360.1370 O.2   116  GLN116     -0.2867
      5  CB       146.8740  100.9300  362.6220 C.3   116  GLN116      0.0367
      6  CG       148.1860  100.3230  362.1670 C.3   116  GLN116      0.0905
      7  CD       148.7770   99.3560  363.1920 C.2   116  GLN116      0.2608
      8  OE1      149.3870   99.7710  364.1650 O.2   116  GLN116     -0.2717
      9  NE2      148.6300   98.0630  362.9450 N.am  116  GLN116     -0.0878
     10  N        156.6450   96.5290  353.0160 N.3   444  ARG444     -0.1245
     11  CA       155.4490   96.5270  353.8530 C.3   444  ARG444      0.1563
     12  C        155.3500   97.8320  354.6420 C.2   444  ARG444      0.2260
     13  O        156.2870   98.2050  355.3480 O.2   444  ARG444     -0.2867
     14  CB       155.5180   95.3450  354.8410 C.3   444  ARG444      0.0307
     15  CG       154.3090   95.2230  355.7450 C.3   444  ARG444      0.0489
     16  CD       154.4630   94.0290  356.7080 C.3   444  ARG444      0.2205
     17  NE       155.5510   94.2410  357.6410 N.pl3 444  ARG444     -0.0865
     18  CZ       156.2290   93.2930  358.2950 C.cat 444  ARG444      0.5346
     19  NH1      155.9530   92.0030  358.1510 N.pl3 444  ARG444      0.1354
     20  NH2      157.2010   93.6460  359.1210 N.pl3 444  ARG444      0.1354
     21  N        153.3300  100.2820  357.4760 N.3   446  THR446     -0.1218
     22  CA       152.3970  100.3810  358.6010 C.3   446  THR446      0.1862
     23  C        152.2210  101.8310  358.9600 C.2   446  THR446      0.2287
     24  O        153.1810  102.5280  359.2560 O.2   446  THR446     -0.2866
     25  CB       152.9180   99.6180  359.8240 C.3   446  THR446      0.1770
     26  OG1      153.2020   98.2640  359.4520 O.3   446  THR446     -0.2211
     27  CG2      151.8790   99.6340  360.9390 C.3   446  THR446      0.0375
     28  N        150.2390  105.0100  360.9170 N.3   448  THR448     -0.1218
     29  CA       149.4290  105.5650  361.9890 C.3   448  THR448      0.1862
     30  C        149.3900  107.0720  361.7840 C.2   448  THR448      0.2287
     31  O        150.1830  107.5960  361.0150 O.2   448  THR448     -0.2866
     32  CB       150.0590  105.2150  363.3840 C.3   448  THR448      0.1770
     33  OG1      151.3720  105.7700  363.4760 O.3   448  THR448     -0.2211
     34  CG2      150.1730  103.6940  363.5510 C.3   448  THR448      0.0375
     35  N        152.9330  108.5950  362.4410 N.3   451  GLN451     -0.1245
     36  CA       154.0910  107.8560  362.0230 C.3   451  GLN451      0.1566
     37  C        153.8570  106.9310  360.8160 C.2   451  GLN451      0.2260
     38  O        152.8600  106.2060  360.7670 O.2   451  GLN451     -0.2867
     39  CB       154.5340  107.0270  363.1860 C.3   451  GLN451      0.0367
     40  CG       155.8120  106.3590  362.9710 C.3   451  GLN451      0.0905
     41  CD       156.2270  105.5670  364.1920 C.2   451  GLN451      0.2608
     42  OE1      156.6560  106.1370  365.2090 O.2   451  GLN451     -0.2717
     43  NE2      156.0730  104.2440  364.1110 N.am  451  GLN451     -0.0878
     44  N        155.8020  103.8110  358.9250 N.3   453  LYS453     -0.1245
     45  CA       156.9000  102.8670  358.9400 C.3   453  LYS453      0.1561
     46  C        156.9190  102.0290  357.6610 C.2   453  LYS453      0.2260
     47  O        155.8710  101.5390  357.2330 O.2   453  LYS453     -0.2867
     48  CB       156.7890  101.9330  360.1430 C.3   453  LYS453      0.0271
     49  CG       157.8480  100.8480  360.1550 C.3   453  LYS453      0.0035
     50  CD       158.1930  100.3740  361.5720 C.3   453  LYS453      0.0206
     51  CE       157.0230   99.8180  362.2710 C.3   453  LYS453      0.1093
     52  NZ       157.4020   99.0700  363.5510 N.3   453  LYS453     -0.1314
     53  N        158.9320   98.7190  356.1160 N.3   455  ASP455     -0.1239
     54  CA       159.8110   97.5680  356.2390 C.3   455  ASP455      0.1674
     55  C        160.1690   96.9910  354.8720 C.2   455  ASP455      0.2266
     56  O        159.2700   96.6670  354.0890 O.2   455  ASP455     -0.2867
     57  CB       159.0950   96.4600  357.0340 C.3   455  ASP455      0.1410
     58  CG       158.6920   96.8960  358.4660 C.2   455  ASP455      0.3668
     59  OD1      159.4130   97.7040  359.0830 O.co2 455  ASP455     -0.2456
     60  OD2      157.6460   96.4200  358.9670 O.co2 455  ASP455     -0.2456
     61  N        163.2080   91.1650  357.2630 N.3   471  THR471     -0.1218
     62  CA       163.1910   92.6090  357.1780 C.3   471  THR471      0.1862
     63  C        164.6560   93.0790  357.1620 C.2   471  THR471      0.2287
     64  O        165.3730   92.9630  358.1640 O.2   471  THR471     -0.2866
     65  CB       162.3710   93.1970  358.3060 C.3   471  THR471      0.1770
     66  OG1      161.0210   92.7010  358.2030 O.3   471  THR471     -0.2211
     67  CG2      162.3530   94.7310  358.2670 C.3   471  THR471      0.0375
     68  N        164.1690   98.7880  358.4230 N.3   474  SER474     -0.1217
     69  CA       162.9170   99.4290  358.7160 C.3   474  SER474      0.1889
     70  C        163.1760  100.9080  358.9940 C.2   474  SER474      0.2288
     71  O        164.1440  101.2580  359.7130 O.2   474  SER474     -0.2866
     72  CB       162.2560   98.7450  359.9170 C.3   474  SER474      0.2089
     73  OG       161.0560   99.4300  360.2910 O.3   474  SER474     -0.2183
     74  N        161.2050  104.7770  359.8950 N.3   476  VAL476     -0.1245
     75  CA       160.0290  105.5080  360.2810 C.3   476  VAL476      0.1561
     76  C        160.1560  106.9960  359.9200 C.2   476  VAL476      0.2260
     77  O        161.2350  107.5570  360.0070 O.2   476  VAL476     -0.2867
     78  CB       159.7950  105.3620  361.7990 C.3   476  VAL476      0.0252
     79  CG1      158.6930  106.2830  362.2390 C.3   476  VAL476      0.0019
     80  CG2      159.4400  103.9420  362.1310 C.3   476  VAL476      0.0019
     81  N        165.0870  102.2030  362.1520 N.3   487  VAL487     -0.1231
     82  CA       164.7290  101.5770  363.4300 C.3   487  VAL487      0.1692
     83  C        165.1000  100.1090  363.4770 C.2   487  VAL487      0.2592
     84  O        164.9580   99.4490  364.5180 O.2   487  VAL487     -0.2718
     85  CB       163.2460  101.8230  363.7940 C.3   487  VAL487      0.0266
     86  CG1      163.0040  103.3420  364.0040 C.3   487  VAL487      0.0020
     87  CG2      162.2910  101.2340  362.7280 C.3   487  VAL487      0.0020
     88  N        165.5910   99.5810  362.3630 N.am  488  SER488     -0.1952
     89  CA       165.9880   98.1930  362.2930 C.3   488  SER488      0.1924
     90  C        166.9360   97.9800  361.1220 C.2   488  SER488      0.2314
     91  O        166.7920   98.6150  360.0840 O.2   488  SER488     -0.2863
     92  CB       164.7420   97.3070  362.1280 C.3   488  SER488      0.2116
     93  OG       165.1120   95.9540  362.2350 O.3   488  SER488     -0.2180
@<TRIPOS>BOND
     1    10    11    1
     2    11    12    1
     3    11    14    1
     4    56    55    2
     5    12    13    2
     6    14    15    1
     7    55    54    1
     8    15    16    1
     9    53    54    1
    10    54    57    1
    11    16    17    1
    12    57    58    1
    13    63    62    1
    14    63    64    2
    15    62    61    1
    16    62    65    1
    17    47    46    2
    18    21    22    1
    19    17    18    2
    20    46    45    1
    21    19    18    1
    22    66    65    1
    23    67    65    1
    24    18    20    1
    25    68    69    1
    26    58    60   ar
    27    58    59   ar
    28    22    23    1
    29    22    25    1
    30    69    70    1
    31    69    72    1
    32    44    45    1
    33    45    48    1
    34    23    24    2
    35    70    71    2
    36    26    25    1
    37    25    27    1
    38    74    75    1
    39    72    73    1
    40    76    77    2
    41    76    75    1
    42    91    90    2
    43     4     3    2
    44    48    49    1
    45    49    50    1
    46    75    78    1
    47     3     2    1
    48    38    37    2
    49    37    36    1
    50    28    29    1
    51    31    30    2
    52    90    89    1
    53    50    51    1
    54     2     1    1
    55     2     5    1
    56    30    29    1
    57    78    80    1
    58    78    79    1
    59    29    32    1
    60    36    35    1
    61    36    39    1
    62    92    93    1
    63    92    89    1
    64    81    82    1
    65     6     5    1
    66     6     7    1
    67    51    52    1
    68    89    88    1
    69    88    83   am
    70    87    85    1
    71     9     7   am
    72    40    39    1
    73    40    41    1
    74     7     8    2
    75    32    33    1
    76    32    34    1
    77    82    83    1
    78    82    85    1
    79    83    84    2
    80    85    86    1
    81    43    41   am
    82    41    42    2
