@<TRIPOS>MOLECULE
tmp/2yeqA06.pdb
 80 79 0 0 0
SMALL
GASTEIGER

@<TRIPOS>ATOM
      1  N        127.1270   74.7920  331.8610 N.3     2  PRO2       -0.2102
      2  CA       128.4160   74.5860  331.1970 C.3     2  PRO2        0.1504
      3  C        129.1720   73.4420  331.8540 C.2     2  PRO2        0.2576
      4  O        129.1280   73.2920  333.0850 O.2     2  PRO2       -0.2718
      5  CB       129.1450   75.9190  331.3900 C.3     2  PRO2        0.0282
      6  CG       128.5050   76.5330  332.5840 C.3     2  PRO2        0.0208
      7  CD       127.0590   76.1330  332.4800 C.3     2  PRO2        0.0893
      8  N        129.8140   72.6180  331.0360 N.am    3  ASN3       -0.1961
      9  CA       130.6530   71.5440  331.5240 C.3     3  ASN3        0.1819
     10  C        132.0210   71.7240  330.9070 C.2     3  ASN3        0.2621
     11  O        132.1500   72.2160  329.7950 O.2     3  ASN3       -0.2715
     12  CB       130.0370   70.1750  331.2020 C.3     3  ASN3        0.1195
     13  CG       128.5850   70.0600  331.7050 C.2     3  ASN3        0.2630
     14  OD1      127.6450   70.0480  330.9090 O.2     3  ASN3       -0.2716
     15  ND2      128.4010   70.0270  333.0230 N.am    3  ASN3       -0.0877
     16  N        133.0390   71.3510  331.6640 N.am    4  PHE4       -0.1960
     17  CA       134.4120   71.5930  331.2920 C.3     4  PHE4        0.1771
     18  C        135.1780   70.3090  331.2560 C.2     4  PHE4        0.2620
     19  O        134.9050   69.4000  332.0550 O.2     4  PHE4       -0.2715
     20  CB       135.0460   72.5060  332.3310 C.3     4  PHE4        0.0574
     21  CG       134.4160   73.8560  332.3830 C.ar    4  PHE4       -0.0200
     22  CD1      133.2590   74.0530  333.0980 C.ar    4  PHE4       -0.0042
     23  CD2      134.9620   74.9110  331.6680 C.ar    4  PHE4       -0.0042
     24  CE1      132.6630   75.2960  333.1300 C.ar    4  PHE4       -0.0003
     25  CE2      134.3670   76.1640  331.6840 C.ar    4  PHE4       -0.0003
     26  CZ       133.2390   76.3690  332.4140 C.ar    4  PHE4       -0.0000
     27  N        136.1450   70.2410  330.3550 N.am    5  SER5       -0.1936
     28  CA       137.0350   69.1070  330.2490 C.3     5  SER5        0.2055
     29  C        138.2570   69.3070  331.1600 C.2     5  SER5        0.2643
     30  O        139.0170   68.3740  331.4300 O.2     5  SER5       -0.2714
     31  CB       137.4380   68.8980  328.7800 C.3     5  SER5        0.2130
     32  OG       138.0100   70.0650  328.2630 O.3     5  SER5       -0.2179
     33  N        138.4320   70.5240  331.6600 N.am    6  SER6       -0.1949
     34  CA       139.5070   70.7990  332.6020 C.3     6  SER6        0.1924
     35  C        139.0840   71.9210  333.5390 C.2     6  SER6        0.2314
     36  O        138.2080   72.7120  333.2100 O.2     6  SER6       -0.2863
     37  CB       140.7810   71.1690  331.8460 C.3     6  SER6        0.2116
     38  OG       141.8840   70.9000  332.6660 O.3     6  SER6       -0.2180
     39  N        140.3900   77.1260  331.0980 N.3    31  PRO31      -0.2116
     40  CA       140.8260   75.7150  331.2440 C.3    31  PRO31       0.1372
     41  C        142.1180   75.3120  330.5140 C.2    31  PRO31       0.2244
     42  O        142.7840   74.4100  330.9850 O.2    31  PRO31      -0.2868
     43  CB       139.6170   74.9070  330.7470 C.3    31  PRO31       0.0268
     44  CG       138.7520   75.9050  329.9750 C.3    31  PRO31       0.0207
     45  CD       139.0000   77.2320  330.6230 C.3    31  PRO31       0.0892
     46  N        141.1520   78.0480  325.8220 N.3    38  GLY38      -0.1210
     47  CA       140.4440   76.8190  325.4880 C.3    38  GLY38       0.1956
     48  C        138.9420   76.8850  325.6730 C.2    38  GLY38       0.2612
     49  O        138.2970   75.8750  325.9400 O.2    38  GLY38      -0.2717
     50  N        138.3570   78.0660  325.5500 N.am   39  MET39      -0.1965
     51  CA       136.9200   78.1900  325.7560 C.3    39  MET39       0.1721
     52  C        136.1970   78.2560  324.4050 C.2    39  MET39       0.2458
     53  O        136.7590   78.7160  323.4120 O.2    39  MET39      -0.2730
     54  CB       136.6000   79.4630  326.5310 C.3    39  MET39       0.0427
     55  CG       137.0260   79.4230  327.9950 C.3    39  MET39       0.0599
     56  SD       135.9910   78.3090  328.9450 S.3    39  MET39      -0.1393
     57  CE       134.4740   79.2260  329.0130 C.3    39  MET39       0.0692
     58  N        134.9430   77.8320  324.3650 N.am   40  PRO40      -0.2727
     59  CA       134.1630   78.0060  323.1340 C.3    40  PRO40       0.1402
     60  C        133.7330   79.4560  322.9500 C.2    40  PRO40       0.2269
     61  O        133.6640   80.2130  323.9110 O.2    40  PRO40      -0.2865
     62  CB       132.9480   77.1190  323.3670 C.3    40  PRO40       0.0296
     63  CG       132.8110   77.0530  324.8270 C.3    40  PRO40       0.0237
     64  CD       134.2170   77.0160  325.3490 C.3    40  PRO40       0.0939
     65  N        131.2310   81.3680  323.0780 N.3    42  GLN42      -0.1245
     66  CA       129.8880   81.6730  323.5800 C.3    42  GLN42       0.1566
     67  C        129.9470   82.1780  325.0230 C.2    42  GLN42       0.2260
     68  O        130.8920   81.8850  325.7540 O.2    42  GLN42      -0.2867
     69  CB       128.9690   80.4450  323.5030 C.3    42  GLN42       0.0367
     70  CG       129.3610   79.3160  324.4370 C.3    42  GLN42       0.0905
     71  CD       128.8510   77.9400  324.0000 C.2    42  GLN42       0.2608
     72  OE1      128.6800   77.6680  322.8110 O.2    42  GLN42      -0.2717
     73  NE2      128.6270   77.0620  324.9750 N.am   42  GLN42      -0.0878
     74  N        129.1870   82.4260  328.9140 N.3    44  VAL44      -0.1245
     75  CA       129.0770   81.3740  329.9300 C.3    44  VAL44       0.1561
     76  C        128.6740   82.0300  331.2570 C.2    44  VAL44       0.2260
     77  O        129.2970   82.9970  331.6830 O.2    44  VAL44      -0.2867
     78  CB       130.4080   80.5990  330.0790 C.3    44  VAL44       0.0252
     79  CG1      130.3010   79.4960  331.1560 C.3    44  VAL44       0.0019
     80  CG2      130.8110   79.9990  328.7290 C.3    44  VAL44       0.0019
@<TRIPOS>BOND
     1    72    71    2
     2    60    59    1
     3    60    61    2
     4    65    66    1
     5    59    62    1
     6    59    58    1
     7    62    63    1
     8    53    52    2
     9    69    66    1
    10    69    70    1
    11    66    67    1
    12    71    70    1
    13    71    73   am
    14    58    52   am
    15    58    64    1
    16    52    51    1
    17    63    64    1
    18    67    68    2
    19    47    48    1
    20    47    46    1
    21    50    48   am
    22    50    51    1
    23    48    49    2
    24    51    54    1
    25    54    55    1
    26    55    56    1
    27    32    31    1
    28    80    78    1
    29    31    28    1
    30    74    75    1
    31    56    57    1
    32    11    10    2
    33    75    78    1
    34    75    76    1
    35    44    45    1
    36    44    43    1
    37    78    79    1
    38    28    27    1
    39    28    29    1
    40    27    18   am
    41    41    42    2
    42    41    40    1
    43    45    39    1
    44    43    40    1
    45    10     9    1
    46    10    16   am
    47    14    13    2
    48     8     9    1
    49     8     3   am
    50    39    40    1
    51    29    30    2
    52    29    33   am
    53     2     5    1
    54     2     3    1
    55     2     1    1
    56    12     9    1
    57    12    13    1
    58    18    17    1
    59    18    19    2
    60    76    77    2
    61    17    16    1
    62    17    20    1
    63     5     6    1
    64    33    34    1
    65    23    25   ar
    66    23    21   ar
    67    25    26   ar
    68    13    15   am
    69    37    34    1
    70    37    38    1
    71     3     4    2
    72     1     7    1
    73    20    21    1
    74    21    22   ar
    75    26    24   ar
    76     7     6    1
    77    34    35    1
    78    22    24   ar
    79    36    35    2
