@<TRIPOS>MOLECULE
tmp/2yerA00.pdb
 154 144 0 0 0
SMALL
GASTEIGER

@<TRIPOS>ATOM
      1  N         -5.9870   42.2970    5.9900 N.3    12  GLN12      -0.1245
      2  CA        -5.6040   42.9530    7.2280 C.3    12  GLN12       0.1566
      3  C         -4.1050   42.8810    7.4470 C.2    12  GLN12       0.2260
      4  O         -3.4060   42.0760    6.8240 O.2    12  GLN12      -0.2867
      5  CB        -6.3250   42.3020    8.4200 C.3    12  GLN12       0.0367
      6  CG        -5.9860   40.8170    8.6100 C.3    12  GLN12       0.0905
      7  CD        -6.9830   40.0730    9.4860 C.2    12  GLN12       0.2608
      8  OE1       -8.1810   40.3540    9.4610 O.2    12  GLN12      -0.2717
      9  NE2       -6.4900   39.1120   10.2580 N.am   12  GLN12      -0.0878
     10  N         -0.9380   41.8200    9.4980 N.3    14  LEU14      -0.1231
     11  CA        -0.5700   40.7100   10.3700 C.3    14  LEU14       0.1693
     12  C          0.4380   41.1810   11.4020 C.2    14  LEU14       0.2593
     13  O          0.3710   40.8190   12.5740 O.2    14  LEU14      -0.2718
     14  CB         0.0090   39.5670    9.5460 C.3    14  LEU14       0.0284
     15  CG        -0.9890   38.9260    8.5790 C.3    14  LEU14       0.0019
     16  CD1       -0.2760   37.9260    7.6870 C.3    14  LEU14       0.0001
     17  CD2       -2.1410   38.2680    9.3410 C.3    14  LEU14       0.0001
     18  N          1.3760   41.9980   10.9630 N.am   15  GLY15      -0.1942
     19  CA         2.2850   42.6160   11.8890 C.3    15  GLY15       0.2014
     20  C          3.3110   43.4850   11.2190 C.2    15  GLY15       0.2639
     21  O          3.1440   43.9280   10.0690 O.2    15  GLY15      -0.2714
     22  N          4.3640   43.7410   11.9860 N.am   16  GLU16      -0.1963
     23  CA         5.5120   44.4860   11.5370 C.3    16  GLU16       0.1733
     24  C          6.6390   43.4870   11.2910 C.2    16  GLU16       0.2616
     25  O          6.7640   42.4750   11.9940 O.2    16  GLU16      -0.2715
     26  CB         5.9130   45.5230   12.5960 C.3    16  GLU16       0.0429
     27  CG         4.8520   46.5600   12.8680 C.3    16  GLU16       0.1163
     28  CD         4.5560   47.4820   11.7290 C.2    16  GLU16       0.3649
     29  OE1        5.3540   47.5760   10.7590 O.co2  16  GLU16      -0.2457
     30  OE2        3.5570   48.2040   11.8720 O.co2  16  GLU16      -0.2457
     31  N          7.4280   43.7540   10.2590 N.am   17  GLY17      -0.1955
     32  CA         8.6920   43.0680   10.0590 C.3    17  GLY17       0.1869
     33  C          9.8110   44.0470   10.3450 C.2    17  GLY17       0.2309
     34  O          9.5610   45.2400   10.5510 O.2    17  GLY17      -0.2863
     35  N          3.5370   43.5820    7.2980 N.3    22  VAL22      -0.1245
     36  CA         3.1250   42.3410    6.6600 C.3    22  VAL22       0.1561
     37  C          1.6020   42.2800    6.6400 C.2    22  VAL22       0.2260
     38  O          0.9500   42.5010    7.6660 O.2    22  VAL22      -0.2867
     39  CB         3.6860   41.1160    7.4050 C.3    22  VAL22       0.0252
     40  CG1        3.2690   39.8310    6.7020 C.3    22  VAL22       0.0019
     41  CG2        5.2070   41.2140    7.5120 C.3    22  VAL22       0.0019
     42  N          1.2550   35.7800    2.8210 N.3    35  ALA35      -0.1245
     43  CA         1.6620   36.9530    3.5820 C.3    35  ALA35       0.1562
     44  C          2.4890   37.8480    2.6640 C.2    35  ALA35       0.2260
     45  O          3.4340   37.3830    2.0160 O.2    35  ALA35      -0.2867
     46  CB         2.4630   36.5570    4.8070 C.3    35  ALA35       0.0290
     47  N          9.8050   29.8810    7.6940 N.3    67  VAL67      -0.1245
     48  CA         8.7420   30.4670    6.8690 C.3    67  VAL67       0.1561
     49  C          9.1270   30.3820    5.3750 C.2    67  VAL67       0.2260
     50  O         10.2330   30.7780    4.9890 O.2    67  VAL67      -0.2867
     51  CB         8.4810   31.9390    7.2730 C.3    67  VAL67       0.0252
     52  CG1        7.6260   32.6660    6.2360 C.3    67  VAL67       0.0019
     53  CG2        7.8410   32.0130    8.6640 C.3    67  VAL67       0.0019
     54  N          5.4170   35.6330    1.2360 N.3    83  LEU83      -0.1231
     55  CA         5.8310   34.6980    2.2540 C.3    83  LEU83       0.1693
     56  C          4.6670   33.8180    2.6580 C.2    83  LEU83       0.2592
     57  O          3.4920   34.1580    2.4490 O.2    83  LEU83      -0.2718
     58  CB         6.3370   35.4670    3.4750 C.3    83  LEU83       0.0284
     59  CG         7.5240   36.4050    3.2400 C.3    83  LEU83       0.0019
     60  CD1        7.5630   37.5410    4.2630 C.3    83  LEU83       0.0001
     61  CD2        8.8340   35.6280    3.2400 C.3    83  LEU83       0.0001
     62  N          5.0070   32.6840    3.2500 N.am   84  GLU84      -0.1966
     63  CA         4.0210   31.7530    3.7710 C.3    84  GLU84       0.1733
     64  C          3.1240   32.4500    4.7850 C.2    84  GLU84       0.2616
     65  O          3.6130   33.1530    5.6840 O.2    84  GLU84      -0.2715
     66  CB         4.7470   30.5970    4.4380 C.3    84  GLU84       0.0429
     67  CG         3.8680   29.5070    4.9760 C.3    84  GLU84       0.1163
     68  CD         4.6770   28.3440    5.5080 C.2    84  GLU84       0.3649
     69  OE1        5.9210   28.4570    5.6030 O.co2  84  GLU84      -0.2457
     70  OE2        4.0620   27.3150    5.8340 O.co2  84  GLU84      -0.2457
     71  N          1.8150   32.2660    4.6270 N.am   85  TYR85      -0.1960
     72  CA         0.8750   32.6730    5.6490 C.3    85  TYR85       0.1771
     73  C          0.8050   31.5660    6.6990 C.2    85  TYR85       0.2620
     74  O          0.3350   30.4620    6.4300 O.2    85  TYR85      -0.2715
     75  CB        -0.5170   32.9600    5.0830 C.3    85  TYR85       0.0574
     76  CG        -1.5050   33.3160    6.1710 C.ar   85  TYR85      -0.0198
     77  CD1       -1.2590   34.3900    7.0250 C.ar   85  TYR85      -0.0009
     78  CD2       -2.6610   32.5660    6.3710 C.ar   85  TYR85      -0.0009
     79  CE1       -2.1460   34.7210    8.0450 C.ar   85  TYR85       0.0417
     80  CE2       -3.5600   32.8880    7.3930 C.ar   85  TYR85       0.0417
     81  CZ        -3.2930   33.9690    8.2220 C.ar   85  TYR85       0.1957
     82  OH        -4.1590   34.3080    9.2320 O.3    85  TYR85      -0.2866
     83  N          1.2970   31.8820    7.8900 N.am   86  CYS86      -0.1954
     84  CA         1.3320   30.9480    8.9960 C.3    86  CYS86       0.1843
     85  C          0.1120   31.2310    9.8550 C.2    86  CYS86       0.2626
     86  O          0.1110   32.1520   10.6740 O.2    86  CYS86      -0.2714
     87  CB         2.6300   31.1330    9.7760 C.3    86  CYS86       0.0997
     88  SG         4.0900   30.7850    8.7700 S.3    86  CYS86      -0.0797
     89  N         -0.9320   30.4340    9.6450 N.am   87  SER87      -0.1950
     90  CA        -2.2590   30.7330   10.1750 C.3    87  SER87       0.1924
     91  C         -2.3910   30.5150   11.6830 C.2    87  SER87       0.2314
     92  O         -3.3990   30.9160   12.2730 O.2    87  SER87      -0.2863
     93  CB        -3.3160   29.9120    9.4280 C.3    87  SER87       0.2116
     94  OG        -3.0510   28.5260    9.5340 O.3    87  SER87      -0.2180
     95  N         -0.3600   31.9640   13.7390 N.3    89  GLY89      -0.1210
     96  CA         0.0300   33.2450   14.3210 C.3    89  GLY89       0.1956
     97  C          1.4040   33.2380   14.9520 C.2    89  GLY89       0.2611
     98  O          2.2010   32.3270   14.7260 O.2    89  GLY89      -0.2717
     99  N          1.6790   34.2690   15.7450 N.am   90  GLU90      -0.1979
    100  CA         2.9580   34.3930   16.4420 C.3    90  GLU90       0.1602
    101  C          2.9820   33.5460   17.7210 C.2    90  GLU90       0.2287
    102  O          1.9900   33.4830   18.4580 O.2    90  GLU90      -0.2864
    103  CB         3.2380   35.8590   16.7880 C.3    90  GLU90       0.0415
    104  CG         3.4420   36.7620   15.5680 C.3    90  GLU90       0.1163
    105  CD         3.8310   38.1940   15.9300 C.2    90  GLU90       0.3649
    106  OE1        3.8500   38.5310   17.1340 O.co2  90  GLU90      -0.2457
    107  OE2        4.1190   38.9850   14.9980 O.co2  90  GLU90      -0.2457
    108  N          1.7410   35.0730   21.0740 N.3    93  ASP93      -0.1239
    109  CA         0.3590   35.0140   21.5520 C.3    93  ASP93       0.1674
    110  C         -0.0480   33.6760   22.1760 C.2    93  ASP93       0.2266
    111  O         -1.1800   33.5320   22.6290 O.2    93  ASP93      -0.2867
    112  CB        -0.5950   35.4170   20.4250 C.3    93  ASP93       0.1410
    113  CG        -0.3820   36.8560   19.9860 C.2    93  ASP93       0.3668
    114  OD1       -0.4280   37.7530   20.8560 O.co2  93  ASP93      -0.2456
    115  OD2       -0.1450   37.0940   18.7850 O.co2  93  ASP93      -0.2456
    116  N          7.9310   36.9020   18.6430 N.3   133  GLU133     -0.1231
    117  CA         7.3030   37.6770   17.5790 C.3   133  GLU133      0.1699
    118  C          7.8030   37.2530   16.1960 C.2   133  GLU133      0.2592
    119  O          7.1400   37.5320   15.1920 O.2   133  GLU133     -0.2718
    120  CB         7.5550   39.1760   17.7810 C.3   133  GLU133      0.0402
    121  CG         7.0010   39.7330   19.0910 C.3   133  GLU133      0.1161
    122  CD         8.0070   39.7220   20.2350 C.2   133  GLU133      0.3649
    123  OE1        8.8610   38.8040   20.3040 O.co2 133  GLU133     -0.2457
    124  OE2        7.9370   40.6460   21.0730 O.co2 133  GLU133     -0.2457
    125  N          8.9680   36.5940   16.1530 N.am  134  ASN134     -0.1974
    126  CA         9.5510   36.0980   14.9050 C.3   134  ASN134      0.1688
    127  C          9.5180   34.5770   14.8010 C.2   134  ASN134      0.2292
    128  O         10.2680   33.9770   14.0300 O.2   134  ASN134     -0.2864
    129  CB        10.9890   36.5950   14.7550 C.3   134  ASN134      0.1181
    130  CG        11.0610   38.0480   14.3590 C.2   134  ASN134      0.2629
    131  OD1       10.1510   38.5720   13.7160 O.2   134  ASN134     -0.2716
    132  ND2       12.1540   38.7070   14.7300 N.am  134  ASN134     -0.0877
    133  N          6.5900   31.9020   14.1190 N.3   136  LEU136     -0.1245
    134  CA         5.1970   31.7700   13.7420 C.3   136  LEU136      0.1561
    135  C          4.7770   30.3200   13.8110 C.2   136  LEU136      0.2260
    136  O          5.6110   29.4160   13.8940 O.2   136  LEU136     -0.2867
    137  CB         4.9620   32.3160   12.3240 C.3   136  LEU136      0.0270
    138  CG         5.4820   33.7290   12.0470 C.3   136  LEU136      0.0019
    139  CD1        5.1290   34.1600   10.6240 C.3   136  LEU136      0.0001
    140  CD2        4.9580   34.7310   13.0580 C.3   136  LEU136      0.0001
    141  N         10.7930   33.2250   11.3370 N.3   146  SER146     -0.1202
    142  CA        10.2920   34.2990   10.4780 C.3   146  SER146      0.2020
    143  C         11.2040   35.5290   10.5150 C.2   146  SER146      0.2618
    144  O         11.8060   35.8450   11.5450 O.2   146  SER146     -0.2717
    145  CB         8.8710   34.6880   10.9370 C.3   146  SER146      0.2103
    146  OG         8.3540   35.8170   10.2440 O.3   146  SER146     -0.2182
    147  N         11.2920   36.1980    9.3690 N.am  147  ASP147     -0.1973
    148  CA        11.9320   37.5060    9.2190 C.3   147  ASP147      0.1709
    149  C         13.4560   37.4410    9.2380 C.2   147  ASP147      0.2293
    150  O         14.0870   37.4060   10.3040 O.2   147  ASP147     -0.2864
    151  CB        11.4150   38.5130   10.2480 C.3   147  ASP147      0.1436
    152  CG        11.6610   39.9490    9.8160 C.2   147  ASP147      0.3671
    153  OD1       12.6570   40.2090    9.1150 O.co2 147  ASP147     -0.2456
    154  OD2       10.8540   40.8170   10.1740 O.co2 147  ASP147     -0.2456
@<TRIPOS>BOND
     1    54    55    1
     2    45    44    2
     3    55    56    1
     4    55    58    1
     5    57    56    2
     6    56    62   am
     7    44    43    1
     8    42    43    1
     9    59    61    1
    10    59    58    1
    11    59    60    1
    12    62    63    1
    13    43    46    1
    14    63    66    1
    15    63    64    1
    16    66    67    1
    17    71    64   am
    18    71    72    1
    19    64    65    2
    20    67    68    1
    21    50    49    2
    22    75    72    1
    23    75    76    1
    24    49    48    1
    25    68    69   ar
    26    68    70   ar
    27    72    73    1
    28     1     2    1
    29    76    78   ar
    30    76    77   ar
    31    52    51    1
    32    78    80   ar
    33    74    73    2
    34    37    36    1
    35    37    38    2
    36    36    35    1
    37    36    39    1
    38    73    83   am
    39    40    39    1
    40     4     3    2
    41    48    51    1
    42    48    47    1
    43    77    79   ar
    44     2     3    1
    45     2     5    1
    46    51    53    1
    47    80    81   ar
    48    39    41    1
    49    16    15    1
    50    83    84    1
    51    79    81   ar
    52    81    82    1
    53     5     6    1
    54    15    17    1
    55    15    14    1
    56     6     7    1
    57    88    87    1
    58    84    87    1
    59    84    85    1
    60   153   152   ar
    61   148   149    1
    62   148   147    1
    63   148   151    1
    64   149   150    2
    65   147   143   am
    66    93    94    1
    67    93    90    1
    68     8     7    2
    69     7     9   am
    70    10    11    1
    71    14    11    1
    72    89    85   am
    73    89    90    1
    74   152   154   ar
    75   152   151    1
    76    85    86    2
    77    32    31    1
    78    32    33    1
    79    21    20    2
    80    90    91    1
    81   146   145    1
    82    31    24   am
    83    33    34    2
    84    11    12    1
    85   142   143    1
    86   142   145    1
    87   142   141    1
    88   143   144    2
    89   139   138    1
    90    29    28   ar
    91    18    12   am
    92    18    19    1
    93    20    19    1
    94    20    22   am
    95    24    23    1
    96    24    25    2
    97    12    13    2
    98    23    22    1
    99    23    26    1
   100    91    92    2
   101    28    30   ar
   102    28    27    1
   103   138   137    1
   104   138   140    1
   105   137   134    1
   106    26    27    1
   107   131   130    2
   108    95    96    1
   109   134   135    1
   110   134   133    1
   111   135   136    2
   112   128   127    2
   113    96    97    1
   114   130   132   am
   115   130   129    1
   116    98    97    2
   117   129   126    1
   118   127   126    1
   119   126   125    1
   120    97    99   am
   121   107   105   ar
   122   119   118    2
   123   104   105    1
   124   104   103    1
   125    99   100    1
   126   105   106   ar
   127   125   118   am
   128   118   117    1
   129   100   103    1
   130   100   101    1
   131   117   120    1
   132   117   116    1
   133   101   102    2
   134   120   121    1
   135   115   113   ar
   136   121   122    1
   137   113   112    1
   138   113   114   ar
   139   122   123   ar
   140   122   124   ar
   141   112   109    1
   142   108   109    1
   143   109   110    1
   144   110   111    2
