@<TRIPOS>MOLECULE
tmp/2yevA03.pdb
 135 128 0 0 0
SMALL
GASTEIGER

@<TRIPOS>ATOM
      1  N         -2.6960    3.4340  100.2050 N.3   348  LEU348     -0.1245
      2  CA        -3.4330    3.6210   98.9630 C.3   348  LEU348      0.1561
      3  C         -3.5170    2.2940   98.2220 C.2   348  LEU348      0.2260
      4  O         -4.5650    1.9270   97.6830 O.2   348  LEU348     -0.2867
      5  CB        -2.7680    4.6780   98.0860 C.3   348  LEU348      0.0270
      6  CG        -3.4800    5.0200   96.7750 C.3   348  LEU348      0.0019
      7  CD1       -4.9410    5.3610   97.0040 C.3   348  LEU348      0.0001
      8  CD2       -2.7810    6.1720   96.0910 C.3   348  LEU348      0.0001
      9  N         -6.0460    0.0770   99.7780 N.3   351  ILE351     -0.1231
     10  CA        -7.3830    0.6470   99.6080 C.3   351  ILE351      0.1692
     11  C         -7.9230    0.3210   98.2170 C.2   351  ILE351      0.2592
     12  O         -9.0710   -0.0920   98.0640 O.2   351  ILE351     -0.2718
     13  CB        -7.3890    2.1770   99.7760 C.3   351  ILE351      0.0266
     14  CG1       -7.1240    2.5760  101.2340 C.3   351  ILE351      0.0019
     15  CG2       -8.7070    2.7520   99.2780 C.3   351  ILE351      0.0020
     16  CD1       -8.0580    1.9500  102.2330 C.3   351  ILE351      0.0001
     17  N         -7.0830    0.5090   97.2030 N.am  352  THR352     -0.1953
     18  CA        -7.5130    0.3070   95.8360 C.3   352  THR352      0.1897
     19  C         -7.7330   -1.1820   95.6170 C.2   352  THR352      0.2313
     20  O         -8.6200   -1.5880   94.8610 O.2   352  THR352     -0.2863
     21  CB        -6.5120    0.8950   94.8160 C.3   352  THR352      0.1794
     22  OG1       -5.1910    0.4270   95.1050 O.3   352  THR352     -0.2208
     23  CG2       -6.5270    2.4090   94.8800 C.3   352  THR352      0.0378
     24  N        -11.1040   -1.7510   96.6990 N.3   355  MET355     -0.1245
     25  CA       -12.0050   -1.2310   95.6780 C.3   355  MET355      0.1570
     26  C        -12.2460   -2.2900   94.6100 C.2   355  MET355      0.2261
     27  O        -13.3790   -2.5030   94.1740 O.2   355  MET355     -0.2867
     28  CB       -11.4390    0.0350   95.0470 C.3   355  MET355      0.0387
     29  CG       -11.4190    1.2210   95.9850 C.3   355  MET355      0.0595
     30  SD       -10.6700    2.6680   95.2380 S.3   355  MET355     -0.1393
     31  CE       -11.7930    2.9830   93.8450 C.3   355  MET355      0.0692
     32  N         -6.2390    0.7780   86.1400 N.3   370  PHE370     -0.1241
     33  CA        -6.5100    0.8920   87.5680 C.3   370  PHE370      0.1605
     34  C         -5.9010   -0.3070   88.2970 C.2   370  PHE370      0.2264
     35  O         -5.2610   -0.1550   89.3360 O.2   370  PHE370     -0.2867
     36  CB        -8.0130    1.0070   87.8590 C.3   370  PHE370      0.0534
     37  CG        -8.3260    1.2770   89.2990 C.ar  370  PHE370     -0.0203
     38  CD1       -8.5120    0.2320   90.1880 C.ar  370  PHE370     -0.0042
     39  CD2       -8.4220    2.5810   89.7730 C.ar  370  PHE370     -0.0042
     40  CE1       -8.8000    0.4820   91.5270 C.ar  370  PHE370     -0.0003
     41  CE2       -8.7060    2.8340   91.1090 C.ar  370  PHE370     -0.0003
     42  CZ        -8.8950    1.7850   91.9860 C.ar  370  PHE370     -0.0000
     43  N          5.5370    7.7830   92.3660 N.3   420  LEU420     -0.1231
     44  CA         4.3140    8.5800   92.3300 C.3   420  LEU420      0.1693
     45  C          3.9690    9.0520   90.9250 C.2   420  LEU420      0.2591
     46  O          2.8170    8.9760   90.5120 O.2   420  LEU420     -0.2718
     47  CB         4.4230    9.7880   93.2620 C.3   420  LEU420      0.0284
     48  CG         4.6380    9.4400   94.7350 C.3   420  LEU420      0.0019
     49  CD1        5.0210   10.6770   95.5160 C.3   420  LEU420      0.0001
     50  CD2        3.4040    8.7790   95.3200 C.3   420  LEU420      0.0001
     51  N          4.9770    9.5390   90.2040 N.am  421  LEU421     -0.1980
     52  CA         4.7810   10.1110   88.8830 C.3   421  LEU421      0.1596
     53  C          4.4430    9.0400   87.8500 C.2   421  LEU421      0.2287
     54  O          3.7070    9.2930   86.9080 O.2   421  LEU421     -0.2864
     55  CB         6.0180   10.8940   88.4440 C.3   421  LEU421      0.0297
     56  CG         5.7210   12.1750   87.6660 C.3   421  LEU421      0.0022
     57  CD1        5.3900   13.2930   88.6340 C.3   421  LEU421      0.0001
     58  CD2        6.9040   12.5580   86.7940 C.3   421  LEU421      0.0001
     59  N          0.5380    7.0450   89.8060 N.3   424  LEU424     -0.1231
     60  CA        -0.6570    7.8150   90.1280 C.3   424  LEU424      0.1678
     61  C         -1.4590    8.1300   88.8650 C.2   424  LEU424      0.2434
     62  O         -2.6790    7.9680   88.8510 O.2   424  LEU424     -0.2733
     63  CB        -0.3210    9.0920   90.9000 C.3   424  LEU424      0.0284
     64  CG         0.2430    8.8510   92.3050 C.3   424  LEU424      0.0019
     65  CD1        0.4370   10.1670   93.0220 C.3   424  LEU424      0.0001
     66  CD2       -0.6560    7.9390   93.1140 C.3   424  LEU424      0.0001
     67  N         -0.7770    8.5880   87.8020 N.am  425  PRO425     -0.2729
     68  CA        -1.4730    8.8070   86.5280 C.3   425  PRO425      0.1401
     69  C         -2.1590    7.5420   85.9990 C.2   425  PRO425      0.2269
     70  O         -3.1810    7.6380   85.3230 O.2   425  PRO425     -0.2865
     71  CB        -0.3420    9.2210   85.5830 C.3   425  PRO425      0.0296
     72  CG         0.6750    9.8290   86.4720 C.3   425  PRO425      0.0237
     73  CD         0.6240    9.0370   87.7450 C.3   425  PRO425      0.0939
     74  N         -3.7610    5.2220   87.7410 N.3   427  TYR427     -0.1227
     75  CA        -5.0670    5.0990   88.3870 C.3   427  TYR427      0.1736
     76  C         -6.0840    5.9080   87.6110 C.2   427  TYR427      0.2595
     77  O         -7.1950    5.4480   87.3500 O.2   427  TYR427     -0.2718
     78  CB        -5.0500    5.6060   89.8350 C.3   427  TYR427      0.0548
     79  CG        -4.5280    4.6230   90.8630 C.ar  427  TYR427     -0.0200
     80  CD1       -5.1290    3.3800   91.0430 C.ar  427  TYR427     -0.0009
     81  CD2       -3.4600    4.9590   91.6840 C.ar  427  TYR427     -0.0009
     82  CE1       -4.6570    2.4990   91.9960 C.ar  427  TYR427      0.0417
     83  CE2       -2.9830    4.0860   92.6330 C.ar  427  TYR427      0.0417
     84  CZ        -3.5770    2.8670   92.7890 C.ar  427  TYR427      0.1957
     85  OH        -3.0860    2.0210   93.7510 O.3   427  TYR427     -0.2866
     86  N         -5.6990    7.1280   87.2600 N.am  428  ALA428     -0.1980
     87  CA        -6.5630    8.0190   86.4970 C.3   428  ALA428      0.1597
     88  C         -6.8800    7.4250   85.1250 C.2   428  ALA428      0.2287
     89  O         -8.0140    7.5120   84.6430 O.2   428  ALA428     -0.2864
     90  CB        -5.9210    9.4030   86.3510 C.3   428  ALA428      0.0319
     91  N         -9.7320    5.0470   85.3330 N.3   431  TYR431     -0.1227
     92  CA       -10.9970    5.7760   85.3890 C.3   431  TYR431      0.1736
     93  C        -11.3760    6.2740   84.0030 C.2   431  TYR431      0.2595
     94  O        -12.5510    6.4350   83.6950 O.2   431  TYR431     -0.2718
     95  CB       -10.8960    6.9600   86.3570 C.3   431  TYR431      0.0548
     96  CG       -11.2760    6.6250   87.7730 C.ar  431  TYR431     -0.0200
     97  CD1      -10.3810    5.9900   88.6270 C.ar  431  TYR431     -0.0009
     98  CD2      -12.5310    6.9540   88.2630 C.ar  431  TYR431     -0.0009
     99  CE1      -10.7350    5.6840   89.9270 C.ar  431  TYR431      0.0417
    100  CE2      -12.8910    6.6590   89.5550 C.ar  431  TYR431      0.0417
    101  CZ       -11.9950    6.0250   90.3850 C.ar  431  TYR431      0.1957
    102  OH       -12.3800    5.7350   91.6730 O.3   431  TYR431     -0.2866
    103  N        -10.3670    6.5160   83.1720 N.am  432  LEU432     -0.1980
    104  CA       -10.5890    6.9910   81.8170 C.3   432  LEU432      0.1596
    105  C        -10.7040    5.8400   80.8210 C.2   432  LEU432      0.2287
    106  O        -10.6430    6.0480   79.5970 O.2   432  LEU432     -0.2864
    107  CB        -9.4740    7.9450   81.4090 C.3   432  LEU432      0.0297
    108  CG        -9.4750    9.2190   82.2490 C.3   432  LEU432      0.0022
    109  CD1       -8.3540   10.1400   81.8300 C.3   432  LEU432      0.0001
    110  CD2      -10.8290    9.9160   82.1310 C.3   432  LEU432      0.0001
    111  N         -9.6720   11.5920   75.3690 N.3   446  ALA446     -0.1231
    112  CA        -9.2600   12.6770   76.2600 C.3   446  ALA446      0.1694
    113  C         -8.5120   12.2090   77.5050 C.2   446  ALA446      0.2592
    114  O         -8.9450   11.2830   78.1970 O.2   446  ALA446     -0.2718
    115  CB       -10.4640   13.5280   76.6580 C.3   446  ALA446      0.0304
    116  N         -7.3920   12.8690   77.7910 N.am  447  GLY447     -0.1957
    117  CA        -6.5820   12.5390   78.9540 C.3   447  GLY447      0.1869
    118  C         -5.4770   11.5180   78.7400 C.2   447  GLY447      0.2309
    119  O         -4.4290   11.5970   79.3830 O.2   447  GLY447     -0.2863
    120  N         -1.6170   11.8350   80.4590 N.3   451  LEU451     -0.1245
    121  CA        -1.3490   10.9450   81.5810 C.3   451  LEU451      0.1561
    122  C         -0.2810    9.9140   81.2510 C.2   451  LEU451      0.2260
    123  O          0.5680    9.6150   82.0840 O.2   451  LEU451     -0.2867
    124  CB        -2.6330   10.2650   82.0670 C.3   451  LEU451      0.0270
    125  CG        -3.6370   11.2400   82.6820 C.3   451  LEU451      0.0019
    126  CD1       -4.9510   10.5490   82.9920 C.3   451  LEU451      0.0001
    127  CD2       -3.0510   11.8770   83.9390 C.3   451  LEU451      0.0001
    128  N          3.1670   11.7210   81.3240 N.3   454  LEU454     -0.1245
    129  CA         3.5880   11.8590   82.7140 C.3   454  LEU454      0.1561
    130  C          4.1360   10.5490   83.2630 C.2   454  LEU454      0.2260
    131  O          5.2180   10.5160   83.8530 O.2   454  LEU454     -0.2867
    132  CB         2.4320   12.3270   83.5890 C.3   454  LEU454      0.0270
    133  CG         2.2100   13.8300   83.6050 C.3   454  LEU454      0.0019
    134  CD1        1.0540   14.1620   84.5230 C.3   454  LEU454      0.0001
    135  CD2        3.4830   14.5210   84.0570 C.3   454  LEU454      0.0001
@<TRIPOS>BOND
     1   111   112    1
     2   112   115    1
     3   112   113    1
     4   113   116   am
     5   113   114    2
     6   116   117    1
     7   118   117    1
     8   118   119    2
     9   106   105    2
    10   120   121    1
    11   105   104    1
    12   122   121    1
    13   122   123    2
    14   128   129    1
    15   107   104    1
    16   107   108    1
    17   121   124    1
    18   104   103    1
    19   109   108    1
    20   124   125    1
    21   110   108    1
    22   125   126    1
    23   125   127    1
    24   129   130    1
    25   129   132    1
    26   103    93   am
    27   130   131    2
    28   132   133    1
    29   133   135    1
    30   133   134    1
    31    94    93    2
    32    93    92    1
    33    89    88    2
    34    88    87    1
    35    70    69    2
    36    91    92    1
    37    92    95    1
    38    71    72    1
    39    71    68    1
    40    69    68    1
    41    32    33    1
    42    90    87    1
    43    95    96    1
    44    72    73    1
    45    87    86    1
    46    68    67    1
    47    58    56    1
    48    54    53    2
    49    86    76   am
    50    77    76    2
    51    33    36    1
    52    33    34    1
    53    76    75    1
    54    56    55    1
    55    56    57    1
    56    74    75    1
    57    73    67    1
    58    96    98   ar
    59    96    97   ar
    60    67    61   am
    61    53    52    1
    62    36    37    1
    63    98   100   ar
    64    34    35    2
    65    75    78    1
    66    55    52    1
    67    97    99   ar
    68    62    61    2
    69    61    60    1
    70    52    51    1
    71    37    39   ar
    72    37    38   ar
    73   100   101   ar
    74    39    41   ar
    75    59    60    1
    76    78    79    1
    77    99   101   ar
    78    60    63    1
    79    38    40   ar
    80    51    45   am
    81   101   102    1
    82    46    45    2
    83    79    80   ar
    84    79    81   ar
    85    63    64    1
    86    45    44    1
    87    80    82   ar
    88    41    42   ar
    89    40    42   ar
    90    81    83   ar
    91    82    84   ar
    92    64    65    1
    93    64    66    1
    94    44    43    1
    95    44    47    1
    96    83    84   ar
    97    84    85    1
    98    47    48    1
    99    31    30    1
   100    27    26    2
   101    26    25    1
   102    48    50    1
   103    48    49    1
   104    21    23    1
   105    21    22    1
   106    21    18    1
   107    20    19    2
   108    28    25    1
   109    28    29    1
   110    30    29    1
   111    19    18    1
   112    25    24    1
   113    18    17    1
   114     8     6    1
   115     6     7    1
   116     6     5    1
   117    17    11   am
   118     4     3    2
   119    12    11    2
   120     5     2    1
   121    11    10    1
   122     3     2    1
   123     2     1    1
   124    15    13    1
   125    10    13    1
   126    10     9    1
   127    13    14    1
   128    14    16    1
