@<TRIPOS>MOLECULE
tmp/2yevA04.pdb
 176 171 0 0 0
SMALL
GASTEIGER

@<TRIPOS>ATOM
      1  N         25.2530  -18.6040  103.6760 N.3    14  LYS14      -0.1231
      2  CA        25.5420  -17.1790  103.4770 C.3    14  LYS14       0.1693
      3  C         25.8800  -16.8980  102.0140 C.2    14  LYS14       0.2591
      4  O         25.4070  -15.9210  101.4380 O.2    14  LYS14      -0.2718
      5  CB        26.6720  -16.6910  104.4040 C.3    14  LYS14       0.0285
      6  CG        26.2990  -16.6960  105.8850 C.3    14  LYS14       0.0035
      7  CD        27.4610  -16.2840  106.7840 C.3    14  LYS14       0.0206
      8  CE        28.5730  -17.3230  106.7930 C.3    14  LYS14       0.1093
      9  NZ        28.0870  -18.6540  107.2210 N.3    14  LYS14      -0.1314
     10  N         26.6920  -17.7630  101.4140 N.am   15  LYS15      -0.1980
     11  CA        27.0350  -17.6250   99.9990 C.3    15  LYS15       0.1596
     12  C         25.8520  -17.9140   99.0760 C.2    15  LYS15       0.2287
     13  O         25.6300  -17.2040   98.0900 O.2    15  LYS15      -0.2864
     14  CB        28.2250  -18.5100   99.6480 C.3    15  LYS15       0.0298
     15  CG        29.4930  -18.1050  100.3960 C.3    15  LYS15       0.0038
     16  CD        30.6590  -19.0030  100.0310 C.3    15  LYS15       0.0206
     17  CE        31.9100  -18.6020  100.7910 C.3    15  LYS15       0.1093
     18  NZ        33.0370  -19.5110  100.4800 N.3    15  LYS15      -0.1314
     19  N         23.7310  -14.9010   99.2180 N.3    18  LEU18      -0.1245
     20  CA        24.2780  -13.7990   98.4430 C.3    18  LEU18       0.1561
     21  C         24.0070  -14.0160   96.9700 C.2    18  LEU18       0.2260
     22  O         23.7370  -13.0720   96.2350 O.2    18  LEU18      -0.2867
     23  CB        25.7770  -13.6740   98.6800 C.3    18  LEU18       0.0270
     24  CG        26.1600  -12.9740   99.9770 C.3    18  LEU18       0.0019
     25  CD1       27.6260  -13.2170  100.2780 C.3    18  LEU18       0.0001
     26  CD2       25.8590  -11.4900   99.8740 C.3    18  LEU18       0.0001
     27  N         20.3250  -13.2850   96.3380 N.3    21  THR21      -0.1203
     28  CA        20.1290  -11.8510   96.4600 C.3    21  THR21       0.1994
     29  C         20.6290  -11.1220   95.2210 C.2    21  THR21       0.2617
     30  O         19.9130  -10.3160   94.6330 O.2    21  THR21      -0.2717
     31  CB        20.8440  -11.3310   97.7260 C.3    21  THR21       0.1784
     32  OG1       20.2510  -11.9500   98.8730 O.3    21  THR21      -0.2211
     33  CG2       20.7340   -9.8190   97.8550 C.3    21  THR21       0.0376
     34  N         21.8620  -11.4110   94.8210 N.am   22  ALA22      -0.1979
     35  CA        22.4430  -10.7670   93.6500 C.3    22  ALA22       0.1597
     36  C         21.6620  -11.1000   92.3760 C.2    22  ALA22       0.2287
     37  O         21.4750  -10.2410   91.5120 O.2    22  ALA22      -0.2864
     38  CB        23.9130  -11.1500   93.4920 C.3    22  ALA22       0.0319
     39  N         18.1410   -9.2650   92.4540 N.3    25  PHE25      -0.1227
     40  CA        18.2480   -7.8390   92.1790 C.3    25  PHE25       0.1736
     41  C         18.7240   -7.5690   90.7650 C.2    25  PHE25       0.2595
     42  O         18.3740   -6.5400   90.1770 O.2    25  PHE25      -0.2718
     43  CB        19.1090   -7.1220   93.2170 C.3    25  PHE25       0.0547
     44  CG        18.3680   -6.8010   94.4790 C.ar   25  PHE25      -0.0202
     45  CD1       17.5590   -5.6780   94.5540 C.ar   25  PHE25      -0.0042
     46  CD2       18.4750   -7.6190   95.5930 C.ar   25  PHE25      -0.0042
     47  CE1       16.8770   -5.3680   95.7200 C.ar   25  PHE25      -0.0003
     48  CE2       17.7970   -7.3130   96.7570 C.ar   25  PHE25      -0.0003
     49  CZ        16.9960   -6.1880   96.8170 C.ar   25  PHE25      -0.0000
     50  N         19.4990   -8.4940   90.2070 N.am   26  PHE26      -0.1976
     51  CA        19.8260   -8.3960   88.7880 C.3    26  PHE26       0.1639
     52  C         18.5340   -8.5320   87.9890 C.2    26  PHE26       0.2290
     53  O         18.3100   -7.7910   87.0370 O.2    26  PHE26      -0.2864
     54  CB        20.8420   -9.4540   88.3470 C.3    26  PHE26       0.0560
     55  CG        21.0860   -9.4700   86.8640 C.ar   26  PHE26      -0.0200
     56  CD1       21.9700   -8.5690   86.2730 C.ar   26  PHE26      -0.0042
     57  CD2       20.4170  -10.3780   86.0510 C.ar   26  PHE26      -0.0042
     58  CE1       22.1850   -8.5810   84.8980 C.ar   26  PHE26      -0.0003
     59  CE2       20.6260  -10.3990   84.6760 C.ar   26  PHE26      -0.0003
     60  CZ        21.5100   -9.4980   84.0980 C.ar   26  PHE26      -0.0000
     61  N         16.6910   -5.3600   87.8590 N.3    29  ALA29      -0.1245
     62  CA        17.3060   -4.3920   86.9620 C.3    29  ALA29       0.1562
     63  C         16.9780   -4.7150   85.5050 C.2    29  ALA29       0.2260
     64  O         16.6380   -3.8280   84.7140 O.2    29  ALA29      -0.2867
     65  CB        18.7960   -4.3500   87.1850 C.3    29  ALA29       0.0290
     66  N         20.5260  -16.0390  104.0860 N.3    82  PHE82      -0.1241
     67  CA        21.6650  -15.4270  104.7540 C.3    82  PHE82       0.1605
     68  C         21.3860  -15.1910  106.2380 C.2    82  PHE82       0.2264
     69  O         22.1720  -15.5710  107.0930 O.2    82  PHE82      -0.2867
     70  CB        22.0330  -14.1000  104.0830 C.3    82  PHE82       0.0534
     71  CG        23.3980  -13.6020  104.4490 C.ar   82  PHE82      -0.0203
     72  CD1       23.6220  -12.9840  105.6700 C.ar   82  PHE82      -0.0042
     73  CD2       24.4670  -13.7720  103.5850 C.ar   82  PHE82      -0.0042
     74  CE1       24.8810  -12.5320  106.0160 C.ar   82  PHE82      -0.0003
     75  CE2       25.7320  -13.3230  103.9280 C.ar   82  PHE82      -0.0003
     76  CZ        25.9370  -12.7050  105.1470 C.ar   82  PHE82      -0.0000
     77  N         17.7040   -4.5520  101.8100 N.3   391  LEU391     -0.1245
     78  CA        19.0190   -4.5240  101.1830 C.3   391  LEU391      0.1561
     79  C         19.9630   -3.5920  101.9340 C.2   391  LEU391      0.2260
     80  O         21.1060   -3.9480  102.2080 O.2   391  LEU391     -0.2867
     81  CB        18.9280   -4.1020   99.7140 C.3   391  LEU391      0.0270
     82  CG        20.2590   -4.2290   98.9700 C.3   391  LEU391      0.0019
     83  CD1       20.7330   -5.6860   99.0110 C.3   391  LEU391      0.0001
     84  CD2       20.1520   -3.7270   97.5410 C.3   391  LEU391      0.0001
     85  N         22.9500   -4.8680  104.2460 N.3   395  TRP395     -0.1241
     86  CA        24.1210   -4.6640  103.3850 C.3   395  TRP395      0.1605
     87  C         25.4690   -4.7520  104.1330 C.2   395  TRP395      0.2264
     88  O         26.3680   -5.4810  103.7150 O.2   395  TRP395     -0.2867
     89  CB        24.0060   -3.3370  102.6230 C.3   395  TRP395      0.0550
     90  CG        25.1670   -3.0610  101.7170 C.ar  395  TRP395      0.0003
     91  CD1       26.2840   -2.3320  102.0140 C.ar  395  TRP395      0.0946
     92  CD2       25.3310   -3.5110  100.3680 C.ar  395  TRP395      0.0152
     93  NE1       27.1320   -2.3010  100.9350 N.ar  395  TRP395     -0.2442
     94  CE2       26.5720   -3.0170   99.9100 C.ar  395  TRP395      0.0810
     95  CE3       24.5460   -4.2760   99.4970 C.ar  395  TRP395      0.0012
     96  CZ2       27.0440   -3.2580   98.6230 C.ar  395  TRP395      0.0191
     97  CZ3       25.0200   -4.5240   98.2230 C.ar  395  TRP395      0.0001
     98  CH2       26.2590   -4.0140   97.7960 C.ar  395  TRP395      0.0015
     99  N         26.1130   -8.3570  105.0760 N.3   398  MET398     -0.1230
    100  CA        26.3580   -9.2820  103.9770 C.3   398  MET398      0.1702
    101  C         27.6530   -8.9880  103.2170 C.2   398  MET398      0.2593
    102  O         28.2940   -9.8990  102.7080 O.2   398  MET398     -0.2718
    103  CB        25.1620   -9.3000  103.0130 C.3   398  MET398      0.0401
    104  CG        23.8830   -9.8280  103.6470 C.3   398  MET398      0.0596
    105  SD        22.4860   -9.9120  102.5110 S.3   398  MET398     -0.1393
    106  CE        22.3420   -8.1750  102.0500 C.3   398  MET398      0.0692
    107  N         28.0320   -7.7160  103.1380 N.am  399  THR399     -0.1953
    108  CA        29.1710   -7.3120  102.3140 C.3   399  THR399      0.1897
    109  C         30.4220   -6.9650  103.1290 C.2   399  THR399      0.2313
    110  O         31.5420   -7.0020  102.6080 O.2   399  THR399     -0.2863
    111  CB        28.8220   -6.0860  101.4450 C.3   399  THR399      0.1794
    112  OG1       28.7200   -4.9210  102.2790 O.3   399  THR399     -0.2208
    113  CG2       27.5060   -6.3040  100.7070 C.3   399  THR399      0.0378
    114  N         30.8390   -4.0360  104.2440 N.3   401  ARG401     -0.1245
    115  CA        31.0970   -2.6450  103.8860 C.3   401  ARG401      0.1563
    116  C         29.9030   -1.7790  104.2440 C.2   401  ARG401      0.2260
    117  O         28.7670   -2.2460  104.2090 O.2   401  ARG401     -0.2867
    118  CB        31.4200   -2.5210  102.3920 C.3   401  ARG401      0.0307
    119  CG        32.6720   -3.3070  101.9730 C.3   401  ARG401      0.0489
    120  CD        33.8860   -2.7500  102.6860 C.3   401  ARG401      0.2205
    121  NE        35.0800   -3.5630  102.5130 N.pl3 401  ARG401     -0.0865
    122  CZ        36.2380   -3.3090  103.1160 C.cat 401  ARG401      0.5346
    123  NH1       36.3500   -2.2600  103.9250 N.pl3 401  ARG401      0.1354
    124  NH2       37.2850   -4.0990  102.9120 N.pl3 401  ARG401      0.1354
    125  N         21.3110    3.8150   92.4680 N.3   469  TRP469     -0.1227
    126  CA        21.3800    2.5810   93.2380 C.3   469  TRP469      0.1737
    127  C         22.6250    1.7460   92.9060 C.2   469  TRP469      0.2595
    128  O         23.3420    1.2910   93.8050 O.2   469  TRP469     -0.2718
    129  CB        20.1050    1.7590   93.0150 C.3   469  TRP469      0.0564
    130  CG        20.2080    0.3260   93.4540 C.ar  469  TRP469      0.0003
    131  CD1       20.6570   -0.1320   94.6550 C.ar  469  TRP469      0.0946
    132  CD2       19.8270   -0.8300   92.7020 C.ar  469  TRP469      0.0152
    133  NE1       20.5870   -1.5000   94.6970 N.ar  469  TRP469     -0.2442
    134  CE2       20.0850   -1.9550   93.5110 C.ar  469  TRP469      0.0810
    135  CE3       19.2940   -1.0250   91.4240 C.ar  469  TRP469      0.0012
    136  CZ2       19.8320   -3.2560   93.0820 C.ar  469  TRP469      0.0191
    137  CZ3       19.0430   -2.3130   91.0020 C.ar  469  TRP469      0.0001
    138  CH2       19.3110   -3.4140   91.8280 C.ar  469  TRP469      0.0015
    139  N         22.8760    1.5390   91.6170 N.am  470  ILE470     -0.1980
    140  CA        24.0390    0.7730   91.1780 C.3   470  ILE470      0.1595
    141  C         25.3480    1.4310   91.6160 C.2   470  ILE470      0.2287
    142  O         26.2610    0.7640   92.1000 O.2   470  ILE470     -0.2864
    143  CB        24.0810    0.6270   89.6490 C.3   470  ILE470      0.0276
    144  CG1       22.8260   -0.0820   89.1240 C.3   470  ILE470      0.0022
    145  CG2       25.3310   -0.1130   89.2370 C.3   470  ILE470      0.0022
    146  CD1       22.6740   -1.4940   89.5970 C.3   470  ILE470      0.0001
    147  N         26.0380    0.9360   95.4140 N.3   473  MET473     -0.1245
    148  CA        26.5790   -0.3730   95.7530 C.3   473  MET473      0.1570
    149  C         28.0240   -0.5170   95.2960 C.2   473  MET473      0.2261
    150  O         28.8580   -1.0550   96.0120 O.2   473  MET473     -0.2867
    151  CB        25.7280   -1.4870   95.1370 C.3   473  MET473      0.0387
    152  CG        24.3200   -1.5830   95.7120 C.3   473  MET473      0.0595
    153  SD        23.4760   -3.0550   95.1040 S.3   473  MET473     -0.1393
    154  CE        23.2680   -2.6220   93.3720 C.3   473  MET473      0.0692
    155  N         31.3220   -1.1230   97.7330 N.3   477  LEU477     -0.1245
    156  CA        32.1940   -2.2880   97.6360 C.3   477  LEU477      0.1561
    157  C         33.6510   -1.9190   97.3550 C.2   477  LEU477      0.2260
    158  O         34.5730   -2.6330   97.7560 O.2   477  LEU477     -0.2867
    159  CB        31.6850   -3.2470   96.5650 C.3   477  LEU477      0.0270
    160  CG        30.3640   -3.9550   96.8630 C.3   477  LEU477      0.0019
    161  CD1       29.9610   -4.8250   95.6790 C.3   477  LEU477      0.0001
    162  CD2       30.4700   -4.7880   98.1400 C.3   477  LEU477      0.0001
    163  N         31.5480   -9.4780  107.1520 N.3   500  PRO500     -0.2103
    164  CA        30.5180  -10.5210  107.1640 C.3   500  PRO500      0.1489
    165  C         30.8890  -11.5980  108.1670 C.2   500  PRO500      0.2417
    166  O         32.0030  -11.5910  108.6910 O.2   500  PRO500     -0.2734
    167  CB        30.5890  -11.0890  105.7430 C.3   500  PRO500      0.0282
    168  CG        32.0190  -10.9030  105.3520 C.3   500  PRO500      0.0208
    169  CD        32.4540   -9.6050  105.9940 C.3   500  PRO500      0.0893
    170  N         29.9640  -12.5200  108.4400 N.am  501  PRO501     -0.2729
    171  CA        30.2290  -13.5400  109.4580 C.3   501  PRO501      0.1401
    172  C         31.3150  -14.5150  109.0260 C.2   501  PRO501      0.2269
    173  O         31.4780  -14.7660  107.8310 O.2   501  PRO501     -0.2865
    174  CB        28.8870  -14.2780  109.5780 C.3   501  PRO501      0.0296
    175  CG        27.8570  -13.3180  109.0150 C.3   501  PRO501      0.0237
    176  CD        28.5840  -12.5870  107.9260 C.3   501  PRO501      0.0939
@<TRIPOS>BOND
     1    60    59   ar
     2    60    58   ar
     3    59    57   ar
     4    64    63    2
     5    58    56   ar
     6    63    62    1
     7    57    55   ar
     8    56    55   ar
     9    55    54    1
    10    62    65    1
    11    62    61    1
    12    53    52    2
    13    52    51    1
    14    54    51    1
    15    51    50    1
    16   144   146    1
    17   144   143    1
    18   145   143    1
    19   143   140    1
    20    42    41    2
    21    50    41   am
    22    41    40    1
    23   137   135   ar
    24   137   138   ar
    25   140   141    1
    26   140   139    1
    27   135   132   ar
    28    37    36    2
    29   141   142    2
    30   139   127   am
    31   138   136   ar
    32    40    39    1
    33    40    43    1
    34    36    35    1
    35   125   126    1
    36   132   130   ar
    37   132   134   ar
    38   127   126    1
    39   127   128    2
    40   129   126    1
    41   129   130    1
    42   136   134   ar
    43    43    44    1
    44   154   153    1
    45   130   131   ar
    46    38    35    1
    47   134   133   ar
    48    35    34    1
    49    44    45   ar
    50    44    46   ar
    51    45    47   ar
    52    30    29    2
    53   131   133   ar
    54    34    29   am
    55   153   152    1
    56   151   152    1
    57   151   148    1
    58    29    28    1
    59   149   148    1
    60   149   150    2
    61   147   148    1
    62    46    48   ar
    63   161   160    1
    64    47    49   ar
    65    22    21    2
    66    27    28    1
    67    28    31    1
    68   159   160    1
    69   159   156    1
    70    48    49   ar
    71   160   162    1
    72    21    20    1
    73   157   156    1
    74   157   158    2
    75    84    82    1
    76   156   155    1
    77    31    33    1
    78    31    32    1
    79    98    97   ar
    80    98    96   ar
    81    13    12    2
    82    97    95   ar
    83    20    23    1
    84    20    19    1
    85    96    94   ar
    86    23    24    1
    87    82    83    1
    88    82    81    1
    89    12    11    1
    90    95    92   ar
    91    14    11    1
    92    14    15    1
    93    81    78    1
    94    26    24    1
    95    94    92   ar
    96    94    93   ar
    97    24    25    1
    98    11    10    1
    99    16    15    1
   100    16    17    1
   101    92    90   ar
   102    18    17    1
   103   113   111    1
   104    93    91   ar
   105    78    77    1
   106    78    79    1
   107    10     3   am
   108     4     3    2
   109   111   112    1
   110   111   108    1
   111    90    91   ar
   112    90    89    1
   113    79    80    2
   114   119   118    1
   115   119   120    1
   116     3     2    1
   117   106   105    1
   118   108   109    1
   119   108   107    1
   120   118   115    1
   121   105   104    1
   122   121   120    1
   123   121   122    2
   124   110   109    2
   125    89    86    1
   126   102   101    2
   127   124   122    1
   128   103   104    1
   129   103   100    1
   130   122   123    1
   131   107   101   am
   132   101   100    1
   133    86    87    1
   134    86    85    1
   135     2     1    1
   136     2     5    1
   137    73    75   ar
   138    73    71   ar
   139    88    87    2
   140   115   114    1
   141   115   116    1
   142    75    76   ar
   143   100    99    1
   144    70    71    1
   145    70    67    1
   146    66    67    1
   147   117   116    2
   148     5     6    1
   149    71    72   ar
   150    67    68    1
   151    76    74   ar
   152   168   167    1
   153   168   169    1
   154    72    74   ar
   155   167   164    1
   156     6     7    1
   157   169   163    1
   158    68    69    2
   159     7     8    1
   160     8     9    1
   161   163   164    1
   162   164   165    1
   163   173   172    2
   164   176   170    1
   165   176   175    1
   166   165   170   am
   167   165   166    2
   168   170   171    1
   169   175   174    1
   170   172   171    1
   171   171   174    1
