@<TRIPOS>MOLECULE
tmp/2yevA05.pdb
 143 135 0 0 0
SMALL
GASTEIGER

@<TRIPOS>ATOM
      1  N         19.4990   -8.4940   90.2070 N.3    26  PHE26      -0.1241
      2  CA        19.8260   -8.3960   88.7880 C.3    26  PHE26       0.1605
      3  C         18.5340   -8.5320   87.9890 C.2    26  PHE26       0.2264
      4  O         18.3100   -7.7910   87.0370 O.2    26  PHE26      -0.2867
      5  CB        20.8420   -9.4540   88.3470 C.3    26  PHE26       0.0534
      6  CG        21.0860   -9.4700   86.8640 C.ar   26  PHE26      -0.0203
      7  CD1       21.9700   -8.5690   86.2730 C.ar   26  PHE26      -0.0042
      8  CD2       20.4170  -10.3780   86.0510 C.ar   26  PHE26      -0.0042
      9  CE1       22.1850   -8.5810   84.8980 C.ar   26  PHE26      -0.0003
     10  CE2       20.6260  -10.3990   84.6760 C.ar   26  PHE26      -0.0003
     11  CZ        21.5100   -9.4980   84.0980 C.ar   26  PHE26      -0.0000
     12  N         17.0810   -5.9920   85.1580 N.3    30  LEU30      -0.1245
     13  CA        16.7650   -6.4480   83.8170 C.3    30  LEU30       0.1561
     14  C         15.3130   -6.1350   83.4480 C.2    30  LEU30       0.2260
     15  O         15.0440   -5.5600   82.3930 O.2    30  LEU30      -0.2867
     16  CB        17.0200   -7.9460   83.6870 C.3    30  LEU30       0.0270
     17  CG        16.5910   -8.5340   82.3320 C.3    30  LEU30       0.0019
     18  CD1       17.3240   -7.8590   81.1770 C.3    30  LEU30       0.0001
     19  CD2       16.8220  -10.0260   82.2950 C.3    30  LEU30       0.0001
     20  N         13.2040   -3.4530   80.8390 N.3    34  PHE34      -0.1241
     21  CA        12.0490   -3.8400   80.0250 C.3    34  PHE34       0.1605
     22  C         10.9100   -2.8400   80.2030 C.2    34  PHE34       0.2264
     23  O         10.2280   -2.4780   79.2430 O.2    34  PHE34      -0.2867
     24  CB        11.5410   -5.2350   80.4040 C.3    34  PHE34       0.0534
     25  CG        12.4400   -6.3600   79.9750 C.ar   34  PHE34      -0.0203
     26  CD1       13.3660   -6.1840   78.9610 C.ar   34  PHE34      -0.0042
     27  CD2       12.3460   -7.6050   80.5860 C.ar   34  PHE34      -0.0042
     28  CE1       14.1830   -7.2220   78.5670 C.ar   34  PHE34      -0.0003
     29  CE2       13.1670   -8.6470   80.2040 C.ar   34  PHE34      -0.0003
     30  CZ        14.0840   -8.4570   79.1880 C.ar   34  PHE34      -0.0000
     31  N          7.7710    0.0320   69.8440 N.3    50  LEU50      -0.1245
     32  CA         7.6830   -1.3640   70.2560 C.3    50  LEU50       0.1561
     33  C          6.2390   -1.8100   70.0860 C.2    50  LEU50       0.2260
     34  O          5.3500   -1.3320   70.7850 O.2    50  LEU50      -0.2867
     35  CB         8.1430   -1.5110   71.7060 C.3    50  LEU50       0.0270
     36  CG         8.1420   -2.8990   72.3360 C.3    50  LEU50       0.0019
     37  CD1        9.0910   -3.8460   71.6010 C.3    50  LEU50       0.0001
     38  CD2        8.5250   -2.7810   73.7930 C.3    50  LEU50       0.0001
     39  N          6.0080   -8.1080   69.5660 N.3    54  GLN54      -0.1245
     40  CA         7.2530   -7.7430   70.2340 C.3    54  GLN54       0.1566
     41  C          6.9520   -7.0620   71.5670 C.2    54  GLN54       0.2260
     42  O          7.6010   -7.3290   72.5810 O.2    54  GLN54      -0.2867
     43  CB         8.1270   -6.8510   69.3360 C.3    54  GLN54       0.0367
     44  CG         8.8080   -7.5950   68.1820 C.3    54  GLN54       0.0905
     45  CD         7.8140   -8.2820   67.2370 C.2    54  GLN54       0.2608
     46  OE1        6.8660   -7.6620   66.7480 O.2    54  GLN54      -0.2717
     47  NE2        8.0330   -9.5700   66.9830 N.am   54  GLN54      -0.0878
     48  N          5.7310   -9.5480   74.0260 N.3    57  GLN57      -0.1231
     49  CA         6.8490  -10.3360   74.5250 C.3    57  GLN57       0.1698
     50  C          7.5740   -9.6200   75.6660 C.2    57  GLN57       0.2592
     51  O          7.7920  -10.1980   76.7330 O.2    57  GLN57      -0.2718
     52  CB         7.8090  -10.6770   73.3850 C.3    57  GLN57       0.0381
     53  CG         7.3690  -11.8980   72.6040 C.3    57  GLN57       0.0905
     54  CD         8.1260  -12.0650   71.3100 C.2    57  GLN57       0.2608
     55  OE1        8.5680  -11.0870   70.7110 O.2    57  GLN57      -0.2717
     56  NE2        8.2780  -13.3090   70.8640 N.am   57  GLN57      -0.0878
     57  N          7.9450   -8.3640   75.4410 N.am   58  ILE58      -0.1980
     58  CA         8.5850   -7.5710   76.4800 C.3    58  ILE58       0.1595
     59  C          7.6960   -7.4790   77.7130 C.2    58  ILE58       0.2287
     60  O          8.1700   -7.6530   78.8300 O.2    58  ILE58      -0.2864
     61  CB         8.9180   -6.1560   75.9830 C.3    58  ILE58       0.0276
     62  CG1        9.9170   -6.2340   74.8330 C.3    58  ILE58       0.0022
     63  CG2        9.4520   -5.3110   77.1320 C.3    58  ILE58       0.0022
     64  CD1       11.1940   -6.9840   75.1850 C.3    58  ILE58       0.0001
     65  N          7.7830  -10.8150   79.5970 N.3    61  LEU61      -0.1245
     66  CA         9.0630  -10.9280   80.2860 C.3    61  LEU61       0.1561
     67  C          9.1540   -9.9680   81.4640 C.2    61  LEU61       0.2260
     68  O          9.6860  -10.3330   82.5070 O.2    61  LEU61      -0.2867
     69  CB        10.2390  -10.7350   79.3180 C.3    61  LEU61       0.0270
     70  CG        10.3970  -11.8870   78.3230 C.3    61  LEU61       0.0019
     71  CD1       11.5540  -11.6600   77.3760 C.3    61  LEU61       0.0001
     72  CD2       10.5380  -13.2210   79.0620 C.3    61  LEU61       0.0001
     73  N         18.4800  -20.4590   89.0720 N.3   107  LEU107     -0.1245
     74  CA        19.2300  -19.9310   87.9430 C.3   107  LEU107      0.1561
     75  C         18.8340  -20.6490   86.6570 C.2   107  LEU107      0.2260
     76  O         18.6840  -20.0250   85.6050 O.2   107  LEU107     -0.2867
     77  CB        20.7370  -20.0710   88.1800 C.3   107  LEU107      0.0270
     78  CG        21.6360  -19.4630   87.0980 C.3   107  LEU107      0.0019
     79  CD1       21.3770  -17.9530   86.9530 C.3   107  LEU107      0.0001
     80  CD2       23.1000  -19.7380   87.4040 C.3   107  LEU107      0.0001
     81  N         15.6090  -19.3100   85.2360 N.3   110  ILE110     -0.1231
     82  CA        15.8000  -18.0140   84.5980 C.3   110  ILE110      0.1692
     83  C         16.3740  -18.1980   83.2030 C.2   110  ILE110      0.2591
     84  O         16.0010  -17.4950   82.2560 O.2   110  ILE110     -0.2718
     85  CB        16.7580  -17.1250   85.4000 C.3   110  ILE110      0.0266
     86  CG1       16.1150  -16.7110   86.7210 C.3   110  ILE110      0.0019
     87  CG2       17.1470  -15.8960   84.5820 C.3   110  ILE110      0.0020
     88  CD1       17.0440  -15.9310   87.6250 C.3   110  ILE110      0.0001
     89  N         17.2850  -19.1530   83.0750 N.am  111  VAL111     -0.1980
     90  CA        17.8970  -19.4200   81.7830 C.3   111  VAL111      0.1595
     91  C         16.8650  -19.9970   80.8080 C.2   111  VAL111      0.2287
     92  O         16.7830  -19.5610   79.6640 O.2   111  VAL111     -0.2864
     93  CB        19.1170  -20.3260   81.9140 C.3   111  VAL111      0.0276
     94  CG1       19.6970  -20.6050   80.5430 C.3   111  VAL111      0.0022
     95  CG2       20.1590  -19.6610   82.8260 C.3   111  VAL111      0.0022
     96  N         14.5370  -17.0920   79.5590 N.3   114  LEU114     -0.1231
     97  CA        15.1470  -16.0930   78.6890 C.3   114  LEU114      0.1693
     98  C         15.6840  -16.6800   77.3870 C.2   114  LEU114      0.2591
     99  O         15.7230  -15.9840   76.3680 O.2   114  LEU114     -0.2718
    100  CB        16.2550  -15.3220   79.4200 C.3   114  LEU114      0.0284
    101  CG        15.8340  -14.5150   80.6460 C.3   114  LEU114      0.0019
    102  CD1       17.0160  -13.7040   81.1810 C.3   114  LEU114      0.0001
    103  CD2       14.6510  -13.6220   80.3060 C.3   114  LEU114      0.0001
    104  N         16.0930  -17.9470   77.4100 N.am  115  MET115     -0.1979
    105  CA        16.6790  -18.5580   76.2150 C.3   115  MET115      0.1605
    106  C         15.6290  -18.7230   75.1230 C.2   115  MET115      0.2287
    107  O         15.9610  -18.9150   73.9610 O.2   115  MET115     -0.2864
    108  CB        17.3680  -19.8970   76.5240 C.3   115  MET115      0.0413
    109  CG        16.4280  -21.0060   76.9590 C.3   115  MET115      0.0598
    110  SD        17.2620  -22.4630   77.6360 S.3   115  MET115     -0.1393
    111  CE        18.1800  -23.0360   76.2020 C.3   115  MET115      0.0692
    112  N         14.3080  -16.6490   73.7270 N.3   117  TYR117     -0.1227
    113  CA        14.6890  -15.6320   72.7580 C.3   117  TYR117      0.1736
    114  C         15.3580  -16.2070   71.5070 C.2   117  TYR117      0.2595
    115  O         15.1980  -15.6720   70.4120 O.2   117  TYR117     -0.2718
    116  CB        15.6070  -14.6030   73.4080 C.3   117  TYR117      0.0548
    117  CG        16.1840  -13.6110   72.4320 C.ar  117  TYR117     -0.0200
    118  CD1       15.4800  -12.4680   72.0770 C.ar  117  TYR117     -0.0009
    119  CD2       17.4320  -13.8170   71.8610 C.ar  117  TYR117     -0.0009
    120  CE1       16.0060  -11.5560   71.1830 C.ar  117  TYR117      0.0417
    121  CE2       17.9620  -12.9140   70.9610 C.ar  117  TYR117      0.0417
    122  CZ        17.2470  -11.7850   70.6260 C.ar  117  TYR117      0.1957
    123  OH        17.7760  -10.8810   69.7320 O.3   117  TYR117     -0.2866
    124  N         16.1050  -17.2930   71.6700 N.am  118  PHE118     -0.1976
    125  CA        16.8970  -17.8530   70.5740 C.3   118  PHE118      0.1639
    126  C         16.1690  -18.9070   69.7470 C.2   118  PHE118      0.2290
    127  O         16.7000  -19.4030   68.7590 O.2   118  PHE118     -0.2864
    128  CB        18.2150  -18.4290   71.1120 C.3   118  PHE118      0.0560
    129  CG        19.1250  -17.3900   71.7040 C.ar  118  PHE118     -0.0200
    130  CD1       19.8740  -16.5570   70.8880 C.ar  118  PHE118     -0.0042
    131  CD2       19.2220  -17.2370   73.0740 C.ar  118  PHE118     -0.0042
    132  CE1       20.7080  -15.5930   71.4300 C.ar  118  PHE118     -0.0003
    133  CE2       20.0540  -16.2760   73.6230 C.ar  118  PHE118     -0.0003
    134  CZ        20.7960  -15.4530   72.8000 C.ar  118  PHE118     -0.0000
    135  N         10.4250  -17.0380   69.6130 N.3   122  GLY122     -0.1210
    136  CA        11.0120  -16.1730   70.6250 C.3   122  GLY122      0.1956
    137  C         10.3520  -16.2810   71.9940 C.2   122  GLY122      0.2611
    138  O          9.7990  -17.3200   72.3640 O.2   122  GLY122     -0.2717
    139  N         10.4090  -15.1910   72.7450 N.am  123  ALA123     -0.1979
    140  CA         9.8640  -15.1610   74.0970 C.3   123  ALA123      0.1597
    141  C          8.3610  -15.3940   74.0900 C.2   123  ALA123      0.2287
    142  O          7.6800  -15.0220   73.1390 O.2   123  ALA123     -0.2864
    143  CB        10.1770  -13.8240   74.7540 C.3   123  ALA123      0.0319
@<TRIPOS>BOND
     1    46    45    2
     2    47    45   am
     3    45    44    1
     4    44    43    1
     5   127   126    2
     6    43    40    1
     7    39    40    1
     8   135   136    1
     9   123   122    1
    10   126   125    1
    11    31    32    1
    12    33    32    1
    13    33    34    2
    14    40    41    1
    15    32    35    1
    16   115   114    2
    17   125   128    1
    18   125   124    1
    19   136   137    1
    20   122   121   ar
    21   122   120   ar
    22    55    54    2
    23    56    54   am
    24   130   132   ar
    25   130   129   ar
    26   121   119   ar
    27   128   129    1
    28   120   118   ar
    29    54    53    1
    30   132   134   ar
    31   114   124   am
    32   114   113    1
    33    41    42    2
    34    37    36    1
    35   129   131   ar
    36    35    36    1
    37   119   117   ar
    38   137   138    2
    39   137   139   am
    40   118   117   ar
    41    36    38    1
    42   117   116    1
    43    53    52    1
    44   139   140    1
    45   113   116    1
    46   113   112    1
    47   134   133   ar
    48   131   133   ar
    49   142   141    2
    50    52    49    1
    51   107   106    2
    52    48    49    1
    53   141   140    1
    54   140   143    1
    55    49    50    1
    56    62    64    1
    57    62    61    1
    58   106   105    1
    59    57    50   am
    60    57    58    1
    61    50    51    2
    62    61    58    1
    63    61    63    1
    64   111   110    1
    65   105   108    1
    66   105   104    1
    67    99    98    2
    68    58    59    1
    69   108   109    1
    70   109   110    1
    71    71    70    1
    72    98   104   am
    73    98    97    1
    74    59    60    2
    75    70    72    1
    76    70    69    1
    77    28    26   ar
    78    28    30   ar
    79    97   100    1
    80    97    96    1
    81    26    25   ar
    82    30    29   ar
    83    23    22    2
    84    69    66    1
    85   100   101    1
    86    65    66    1
    87    92    91    2
    88    25    24    1
    89    25    27   ar
    90    21    22    1
    91    21    24    1
    92    21    20    1
    93    29    27   ar
    94    66    67    1
    95   103   101    1
    96    94    93    1
    97   101   102    1
    98    91    90    1
    99    18    17    1
   100    67    68    2
   101    90    93    1
   102    90    89    1
   103    93    95    1
   104    84    83    2
   105    19    17    1
   106    17    16    1
   107    15    14    2
   108    89    83   am
   109    83    82    1
   110    14    13    1
   111    16    13    1
   112    13    12    1
   113    11    10   ar
   114    11     9   ar
   115    87    85    1
   116    82    81    1
   117    82    85    1
   118    10     8   ar
   119     9     7   ar
   120    85    86    1
   121    76    75    2
   122     8     6   ar
   123     7     6   ar
   124    75    74    1
   125    86    88    1
   126     6     5    1
   127    79    78    1
   128     4     3    2
   129    78    80    1
   130    78    77    1
   131    74    77    1
   132    74    73    1
   133     3     2    1
   134     5     2    1
   135     2     1    1
