@<TRIPOS>MOLECULE
tmp/2yezA00.pdb
 189 181 0 0 0
SMALL
GASTEIGER

@<TRIPOS>ATOM
      1  N        -44.1810    8.7120    0.9040 N.3    65  ILE65      -0.1245
      2  CA       -43.2730    9.8320    1.1980 C.3    65  ILE65       0.1561
      3  C        -42.1360    9.9500    0.1790 C.2    65  ILE65       0.2260
      4  O        -41.7060   11.0630   -0.1270 O.2    65  ILE65      -0.2867
      5  CB       -42.8000    9.9130    2.6780 C.3    65  ILE65       0.0252
      6  CG1      -41.9950    8.6610    3.1080 C.3    65  ILE65       0.0019
      7  CG2      -43.9820   10.2060    3.6170 C.3    65  ILE65       0.0019
      8  CD1      -41.1490    8.8260    4.3640 C.3    65  ILE65       0.0001
      9  N        -43.8030   11.0550   -3.1120 N.3    68  GLY68      -0.1210
     10  CA       -44.0330   12.4950   -3.0100 C.3    68  GLY68       0.1956
     11  C        -42.7540   13.2490   -3.3670 C.2    68  GLY68       0.2612
     12  O        -42.8170   14.2420   -4.0930 O.2    68  GLY68      -0.2717
     13  N        -41.5930   12.7570   -2.8780 N.am   69  SER69      -0.1952
     14  CA       -40.2780   13.3410   -3.1550 C.3    69  SER69       0.1924
     15  C        -39.8650   13.1180   -4.6130 C.2    69  SER69       0.2314
     16  O        -39.1140   13.9270   -5.1570 O.2    69  SER69      -0.2863
     17  CB       -39.2220   12.7920   -2.2010 C.3    69  SER69       0.2116
     18  OG       -38.8780   11.4470   -2.4900 O.3    69  SER69      -0.2180
     19  N        -41.4570   15.8530   -6.5140 N.3    72  ILE72      -0.1231
     20  CA       -40.7450   17.0810   -6.1520 C.3    72  ILE72       0.1692
     21  C        -39.4020   17.1440   -6.8930 C.2    72  ILE72       0.2592
     22  O        -39.0780   18.1860   -7.4590 O.2    72  ILE72      -0.2718
     23  CB       -40.6550   17.2600   -4.6060 C.3    72  ILE72       0.0266
     24  CG1      -42.0230   17.7190   -4.0520 C.3    72  ILE72       0.0019
     25  CG2      -39.5480   18.2490   -4.1910 C.3    72  ILE72       0.0020
     26  CD1      -42.3640   17.2470   -2.6600 C.3    72  ILE72       0.0001
     27  N        -38.6620   16.0180   -6.9460 N.am   73  ASN73      -0.1974
     28  CA       -37.3870   15.9290   -7.6640 C.3    73  ASN73       0.1688
     29  C        -37.5710   15.9720   -9.1880 C.2    73  ASN73       0.2292
     30  O        -36.6330   16.3380   -9.8980 O.2    73  ASN73      -0.2864
     31  CB       -36.5850   14.7020   -7.2280 C.3    73  ASN73       0.1181
     32  CG       -35.9110   14.8730   -5.8890 C.2    73  ASN73       0.2629
     33  OD1      -34.9590   15.6470   -5.7350 O.2    73  ASN73      -0.2716
     34  ND2      -36.3770   14.1400   -4.8910 N.am   73  ASN73      -0.0877
     35  N        -37.9270   19.6580   -9.8120 N.3    76  ASN76      -0.1240
     36  CA       -36.6370   20.2340   -9.4060 C.3    76  ASN76       0.1653
     37  C        -35.6140   20.2100  -10.5420 C.2    76  ASN76       0.2266
     38  O        -34.7850   21.1150  -10.6280 O.2    76  ASN76      -0.2867
     39  CB       -36.0730   19.5310   -8.1680 C.3    76  ASN76       0.1155
     40  CG       -36.6580   19.9830   -6.8460 C.2    76  ASN76       0.2627
     41  OD1      -37.2350   21.0710   -6.7110 O.2    76  ASN76      -0.2716
     42  ND2      -36.5090   19.1500   -5.8280 N.am   76  ASN76      -0.0877
     43  N        -36.7190   23.2560  -12.7390 N.3    79  ILE79      -0.1231
     44  CA       -36.4640   24.5340  -12.0550 C.3    79  ILE79       0.1692
     45  C        -34.9680   24.8860  -12.1310 C.2    79  ILE79       0.2591
     46  O        -34.6200   26.0190  -12.4750 O.2    79  ILE79      -0.2718
     47  CB       -37.0130   24.5170  -10.5880 C.3    79  ILE79       0.0266
     48  CG1      -38.5540   24.3890  -10.5660 C.3    79  ILE79       0.0019
     49  CG2      -36.5610   25.7550   -9.7860 C.3    79  ILE79       0.0020
     50  CD1      -39.1450   23.7330   -9.2950 C.3    79  ILE79       0.0001
     51  N        -34.0970   23.9030  -11.8350 N.am   80  LEU80      -0.1980
     52  CA       -32.6410   24.0540  -11.8490 C.3    80  LEU80       0.1596
     53  C        -32.0550   24.2090  -13.2570 C.2    80  LEU80       0.2287
     54  O        -31.0050   24.8350  -13.4010 O.2    80  LEU80      -0.2864
     55  CB       -31.9610   22.9120  -11.0700 C.3    80  LEU80       0.0297
     56  CG       -31.6630   23.1730   -9.5810 C.3    80  LEU80       0.0022
     57  CD1      -32.9350   23.2650   -8.7450 C.3    80  LEU80       0.0001
     58  CD2      -30.8010   22.0790   -9.0060 C.3    80  LEU80       0.0001
     59  N        -32.4680   27.9860  -14.3050 N.3    83  ARG83      -0.1245
     60  CA       -31.5470   28.8520  -13.5570 C.3    83  ARG83       0.1563
     61  C        -30.1780   28.9380  -14.2390 C.2    83  ARG83       0.2260
     62  O        -29.5720   30.0100  -14.2590 O.2    83  ARG83      -0.2867
     63  CB       -31.3940   28.3730  -12.1040 C.3    83  ARG83       0.0307
     64  CG       -32.6330   28.5870  -11.2440 C.3    83  ARG83       0.0489
     65  CD       -32.4040   28.1060   -9.8280 C.3    83  ARG83       0.2205
     66  NE       -33.6340   28.1230   -9.0380 N.pl3  83  ARG83      -0.0865
     67  CZ       -33.7200   27.7290   -7.7710 C.cat  83  ARG83       0.5346
     68  NH1      -32.6430   27.2850   -7.1330 N.pl3  83  ARG83       0.1354
     69  NH2      -34.8800   27.7780   -7.1320 N.pl3  83  ARG83       0.1354
     70  N        -29.6490   15.3380  -10.1980 N.3    93  VAL93      -0.1245
     71  CA       -29.9390   15.9390   -8.8920 C.3    93  VAL93       0.1561
     72  C        -29.7780   14.8360   -7.8350 C.2    93  VAL93       0.2260
     73  O        -30.6040   13.9230   -7.7570 O.2    93  VAL93      -0.2867
     74  CB       -31.3260   16.6510   -8.8310 C.3    93  VAL93       0.0252
     75  CG1      -31.6330   17.1620   -7.4230 C.3    93  VAL93       0.0019
     76  CG2      -31.4040   17.7970   -9.8370 C.3    93  VAL93       0.0019
     77  N        -29.0670   13.5220   -3.7110 N.3    95  TRP95      -0.1241
     78  CA       -29.4830   13.8490   -2.3450 C.3    95  TRP95       0.1605
     79  C        -28.8840   12.8940   -1.3150 C.2    95  TRP95       0.2264
     80  O        -28.8780   11.6790   -1.5360 O.2    95  TRP95      -0.2867
     81  CB       -31.0150   13.8500   -2.2240 C.3    95  TRP95       0.0550
     82  CG       -31.6800   15.0840   -2.7560 C.ar   95  TRP95       0.0003
     83  CD1      -32.1650   15.2770   -4.0150 C.ar   95  TRP95       0.0946
     84  CD2      -31.9800   16.2790   -2.0220 C.ar   95  TRP95       0.0152
     85  NE1      -32.7310   16.5260   -4.1190 N.ar   95  TRP95      -0.2442
     86  CE2      -32.6310   17.1630   -2.9100 C.ar   95  TRP95       0.0810
     87  CE3      -31.7480   16.6960   -0.7000 C.ar   95  TRP95       0.0012
     88  CZ2      -33.0560   18.4380   -2.5190 C.ar   95  TRP95       0.0191
     89  CZ3      -32.1650   17.9620   -0.3160 C.ar   95  TRP95       0.0001
     90  CH2      -32.8100   18.8170   -1.2190 C.ar   95  TRP95       0.0015
     91  N        -27.8620   16.4800    5.7630 N.3   111  HIS111     -0.1241
     92  CA       -28.9080   16.7060    4.7640 C.3   111  HIS111      0.1621
     93  C        -28.3670   17.6640    3.7030 C.2   111  HIS111      0.2264
     94  O        -28.2860   18.8730    3.9380 O.2   111  HIS111     -0.2867
     95  CB       -30.2170   17.2180    5.3930 C.3   111  HIS111      0.0745
     96  CG       -31.3720   17.2190    4.4390 C.ar  111  HIS111      0.0817
     97  ND1      -32.1580   16.0940    4.2580 N.ar  111  HIS111     -0.2268
     98  CD2      -31.8280   18.2040    3.6310 C.ar  111  HIS111      0.1154
     99  CE1      -33.0660   16.4330    3.3570 C.ar  111  HIS111      0.1986
    100  NE2      -32.9100   17.6930    2.9540 N.ar  111  HIS111     -0.2212
    101  N        -27.6730   18.3370   -0.9260 N.3   113  ALA113     -0.1245
    102  CA       -28.0250   18.0950   -2.3260 C.3   113  ALA113      0.1562
    103  C        -26.9240   18.5630   -3.2840 C.2   113  ALA113      0.2260
    104  O        -26.1370   19.4450   -2.9340 O.2   113  ALA113     -0.2867
    105  CB       -29.3390   18.7820   -2.6600 C.3   113  ALA113      0.0290
    106  N        -24.6500   21.7430   -4.2750 N.3   120  PHE120     -0.1227
    107  CA       -25.7060   22.7360   -4.4730 C.3   120  PHE120      0.1736
    108  C        -26.1230   23.3630   -3.1360 C.2   120  PHE120      0.2595
    109  O        -25.8360   24.5390   -2.9060 O.2   120  PHE120     -0.2718
    110  CB       -26.9010   22.1150   -5.2210 C.3   120  PHE120      0.0547
    111  CG       -27.9080   23.1030   -5.7610 C.ar  120  PHE120     -0.0202
    112  CD1      -27.6860   23.7570   -6.9680 C.ar  120  PHE120     -0.0042
    113  CD2      -29.0980   23.3460   -5.0870 C.ar  120  PHE120     -0.0042
    114  CE1      -28.6220   24.6650   -7.4720 C.ar  120  PHE120     -0.0003
    115  CE2      -30.0380   24.2480   -5.5960 C.ar  120  PHE120     -0.0003
    116  CZ       -29.7960   24.8970   -6.7880 C.ar  120  PHE120     -0.0000
    117  N        -26.7720   22.5760   -2.2520 N.am  121  VAL121     -0.1980
    118  CA       -27.2250   23.0150   -0.9230 C.3   121  VAL121      0.1595
    119  C        -26.8740   22.0030    0.1720 C.2   121  VAL121      0.2287
    120  O        -26.7580   20.8110   -0.1100 O.2   121  VAL121     -0.2864
    121  CB       -28.7210   23.4380   -0.8560 C.3   121  VAL121      0.0276
    122  CG1      -28.9470   24.8100   -1.4800 C.3   121  VAL121      0.0022
    123  CG2      -29.6450   22.3890   -1.4700 C.3   121  VAL121      0.0022
    124  N        -33.2110   28.8340   -3.6620 N.3   140  THR140     -0.1218
    125  CA       -33.5560   27.6420   -2.8780 C.3   140  THR140      0.1862
    126  C        -33.6730   28.0170   -1.3930 C.2   140  THR140      0.2287
    127  O        -34.6130   27.5770   -0.7290 O.2   140  THR140     -0.2866
    128  CB       -32.5380   26.5140   -3.1380 C.3   140  THR140      0.1770
    129  OG1      -32.4870   26.2400   -4.5390 O.3   140  THR140     -0.2211
    130  CG2      -32.8620   25.2300   -2.3760 C.3   140  THR140      0.0375
    131  N        -36.8540   29.9410   -0.6900 N.3   143  LYS143     -0.1231
    132  CA       -37.9870   29.0120   -0.6520 C.3   143  LYS143      0.1693
    133  C        -38.0700   28.3370    0.7210 C.2   143  LYS143      0.2592
    134  O        -39.1680   28.1670    1.2530 O.2   143  LYS143     -0.2718
    135  CB       -37.8640   27.9510   -1.7600 C.3   143  LYS143      0.0285
    136  CG       -38.2850   28.4390   -3.1390 C.3   143  LYS143      0.0035
    137  CD       -38.2220   27.3150   -4.1700 C.3   143  LYS143      0.0206
    138  CE       -38.7640   27.7190   -5.5210 C.3   143  LYS143      0.1093
    139  NZ       -37.8310   28.6120   -6.2600 N.3   143  LYS143     -0.1314
    140  N        -36.9040   27.9670    1.2910 N.am  144  TRP144     -0.1976
    141  CA       -36.7810   27.3270    2.6020 C.3   144  TRP144      0.1640
    142  C        -37.1080   28.2820    3.7490 C.2   144  TRP144      0.2290
    143  O        -37.6200   27.8410    4.7780 O.2   144  TRP144     -0.2864
    144  CB       -35.3870   26.7060    2.7750 C.3   144  TRP144      0.0576
    145  CG       -35.2850   25.3070    2.2430 C.ar  144  TRP144      0.0006
    146  CD1      -35.3330   24.9180    0.9360 C.ar  144  TRP144      0.0946
    147  CD2      -35.1070   24.1100    3.0110 C.ar  144  TRP144      0.0152
    148  NE1      -35.2120   23.5520    0.8430 N.ar  144  TRP144     -0.2442
    149  CE2      -35.0660   23.0300    2.1020 C.ar  144  TRP144      0.0810
    150  CE3      -34.9750   23.8430    4.3850 C.ar  144  TRP144      0.0012
    151  CZ2      -34.9000   21.7050    2.5200 C.ar  144  TRP144      0.0191
    152  CZ3      -34.8170   22.5290    4.7990 C.ar  144  TRP144      0.0001
    153  CH2      -34.7790   21.4780    3.8730 C.ar  144  TRP144      0.0015
    154  N        -39.0960   24.8670    6.2670 N.3   149  TYR149     -0.1241
    155  CA       -38.8730   23.4190    6.2070 C.3   149  TYR149      0.1605
    156  C        -37.7790   22.9520    7.1780 C.2   149  TYR149      0.2264
    157  O        -37.7260   21.7650    7.5070 O.2   149  TYR149     -0.2867
    158  CB       -38.5440   22.9700    4.7680 C.3   149  TYR149      0.0534
    159  CG       -39.5230   23.4510    3.7180 C.ar  149  TYR149     -0.0201
    160  CD1      -40.7380   22.8010    3.5170 C.ar  149  TYR149     -0.0009
    161  CD2      -39.2180   24.5320    2.8970 C.ar  149  TYR149     -0.0009
    162  CE1      -41.6370   23.2330    2.5430 C.ar  149  TYR149      0.0417
    163  CE2      -40.1090   24.9730    1.9190 C.ar  149  TYR149      0.0417
    164  CZ       -41.3180   24.3200    1.7450 C.ar  149  TYR149      0.1957
    165  OH       -42.1980   24.7500    0.7820 O.3   149  TYR149     -0.2866
    166  N        -39.0350   21.1940   10.5450 N.3   152  GLY152     -0.1210
    167  CA       -39.4500   19.8000   10.3640 C.3   152  GLY152      0.1956
    168  C        -38.2380   18.8820   10.1620 C.2   152  GLY152      0.2611
    169  O        -38.3030   17.7000   10.5020 O.2   152  GLY152     -0.2717
    170  N        -37.1420   19.4310    9.6040 N.am  153  LEU153     -0.1979
    171  CA       -35.8890   18.7170    9.3510 C.3   153  LEU153      0.1596
    172  C        -35.0600   18.5840   10.6370 C.2   153  LEU153      0.2287
    173  O        -34.3340   17.5980   10.7910 O.2   153  LEU153     -0.2864
    174  CB       -35.0900   19.4320    8.2420 C.3   153  LEU153      0.0297
    175  CG       -33.8570   18.7250    7.6560 C.3   153  LEU153      0.0022
    176  CD1      -34.2230   17.4200    6.9560 C.3   153  LEU153      0.0001
    177  CD2      -33.1420   19.6250    6.6830 C.3   153  LEU153      0.0001
    178  N        -36.4810   15.7150   12.7910 N.3   156  TYR156     -0.1241
    179  CA       -36.2110   14.4530   12.1040 C.3   156  TYR156      0.1605
    180  C        -34.7790   13.9760   12.3830 C.2   156  TYR156      0.2264
    181  O        -34.6020   12.8830   12.9200 O.2   156  TYR156     -0.2867
    182  CB       -36.4960   14.5710   10.5880 C.3   156  TYR156      0.0534
    183  CG       -35.9610   13.4220    9.7560 C.ar  156  TYR156     -0.0201
    184  CD1      -36.6210   12.1970    9.7160 C.ar  156  TYR156     -0.0009
    185  CD2      -34.8000   13.5640    9.0010 C.ar  156  TYR156     -0.0009
    186  CE1      -36.1260   11.1330    8.9620 C.ar  156  TYR156      0.0417
    187  CE2      -34.2950   12.5070    8.2460 C.ar  156  TYR156      0.0417
    188  CZ       -34.9640   11.2940    8.2250 C.ar  156  TYR156      0.1957
    189  OH       -34.4720   10.2530    7.4760 O.3   156  TYR156     -0.2866
@<TRIPOS>BOND
     1    59    60    1
     2    62    61    2
     3    61    60    1
     4    60    63    1
     5    54    53    2
     6    53    52    1
     7    43    44    1
     8    46    45    2
     9    45    44    1
    10    45    51   am
    11    63    64    1
    12    44    47    1
    13    52    51    1
    14    52    55    1
    15    64    65    1
    16    55    56    1
    17    38    37    2
    18    47    48    1
    19    47    49    1
    20    48    50    1
    21    37    36    1
    22    70    71    1
    23    30    29    2
    24    76    74    1
    25    65    66    1
    26    35    36    1
    27    56    58    1
    28    56    57    1
    29    36    39    1
    30    29    28    1
    31    66    67    2
    32    71    74    1
    33    71    72    1
    34    74    75    1
    35    39    40    1
    36    72    73    2
    37    67    68    1
    38    67    69    1
    39    28    31    1
    40    28    27    1
    41   114   112   ar
    42   114   116   ar
    43    22    21    2
    44    31    32    1
    45   112   111   ar
    46    27    21   am
    47    21    20    1
    48    40    41    2
    49    40    42   am
    50   116   115   ar
    51    19    20    1
    52   139   138    1
    53    20    23    1
    54    32    33    2
    55    32    34   am
    56   111   110    1
    57   111   113   ar
    58   115   113   ar
    59   138   137    1
    60   110   107    1
    61    16    15    2
    62    15    14    1
    63    23    25    1
    64    23    24    1
    65   129   128    1
    66   107   106    1
    67   107   108    1
    68   137   136    1
    69    85    83   ar
    70    85    86   ar
    71    12    11    2
    72    24    26    1
    73    83    82   ar
    74    77    78    1
    75   124   125    1
    76    11    10    1
    77    11    13   am
    78   103   104    2
    79   103   102    1
    80    14    13    1
    81    14    17    1
    82   136   135    1
    83   128   125    1
    84   128   130    1
    85   108   109    2
    86   108   117   am
    87     9    10    1
    88    86    88   ar
    89    86    84   ar
    90   125   126    1
    91    82    81    1
    92    82    84   ar
    93   105   102    1
    94    88    90   ar
    95    18    17    1
    96    78    81    1
    97    78    79    1
    98   102   101    1
    99   117   118    1
   100    84    87   ar
   101   135   132    1
   102    80    79    2
   103   122   121    1
   104   123   121    1
   105   126   127    2
   106    90    89   ar
   107   118   121    1
   108   118   119    1
   109    87    89   ar
   110   131   132    1
   111   132   133    1
   112     4     3    2
   113   120   119    2
   114     3     2    1
   115   133   134    2
   116   133   140   am
   117   165   164    1
   118   148   146   ar
   119   148   149   ar
   120     1     2    1
   121   146   145   ar
   122     2     5    1
   123   140   141    1
   124   164   163   ar
   125   164   162   ar
   126   163   161   ar
   127   149   151   ar
   128   149   147   ar
   129   145   144    1
   130   145   147   ar
   131   151   153   ar
   132   162   160   ar
   133   141   144    1
   134   141   142    1
   135     5     6    1
   136     5     7    1
   137   161   159   ar
   138   100    99   ar
   139   100    98   ar
   140   147   150   ar
   141     6     8    1
   142    99    97   ar
   143   160   159   ar
   144    98    96   ar
   145    93    94    2
   146    93    92    1
   147   159   158    1
   148   142   143    2
   149   153   152   ar
   150    97    96   ar
   151   150   152   ar
   152    96    95    1
   153    92    95    1
   154    92    91    1
   155   158   155    1
   156   155   154    1
   157   155   156    1
   158   177   175    1
   159   176   175    1
   160   156   157    2
   161   189   188    1
   162   175   174    1
   163   188   187   ar
   164   188   186   ar
   165   174   171    1
   166   187   185   ar
   167   186   184   ar
   168   185   183   ar
   169   171   170    1
   170   171   172    1
   171   170   168   am
   172   184   183   ar
   173   183   182    1
   174   168   167    1
   175   168   169    2
   176   167   166    1
   177   182   179    1
   178   172   173    2
   179   179   180    1
   180   179   178    1
   181   180   181    2
