@<TRIPOS>MOLECULE
tmp/2yfeA00.pdb
 187 174 0 0 0
SMALL
GASTEIGER

@<TRIPOS>ATOM
      1  N         14.5030   20.8590   59.1370 N.3    48  ILE48      -0.1245
      2  CA        13.3280   21.6230   58.7380 C.3    48  ILE48       0.1561
      3  C         12.1470   20.6620   58.6280 C.2    48  ILE48       0.2260
      4  O         12.1610   19.7480   57.8090 O.2    48  ILE48      -0.2867
      5  CB        13.5350   22.3460   57.3900 C.3    48  ILE48       0.0252
      6  CG1       14.6620   23.3780   57.4980 C.3    48  ILE48       0.0019
      7  CG2       12.2350   23.0350   56.9520 C.3    48  ILE48       0.0019
      8  CD1       15.2150   23.7850   56.1410 C.3    48  ILE48       0.0001
      9  N         11.6490   26.0660   59.3170 N.3    54  LEU54      -0.1245
     10  CA        12.0500   26.5770   57.9980 C.3    54  LEU54       0.1561
     11  C         12.6510   27.9790   58.1350 C.2    54  LEU54       0.2260
     12  O         13.7610   28.2410   57.6730 O.2    54  LEU54      -0.2867
     13  CB        10.8850   26.5860   57.0030 C.3    54  LEU54       0.0270
     14  CG        11.2580   27.1830   55.6420 C.3    54  LEU54       0.0019
     15  CD1       11.1950   26.1530   54.5440 C.3    54  LEU54       0.0001
     16  CD2       10.3390   28.3350   55.3220 C.3    54  LEU54       0.0001
     17  N         16.6200   29.0580   57.5200 N.3    58  GLU58      -0.1245
     18  CA        17.1190   30.1370   56.6690 C.3    58  GLU58       0.1567
     19  C         18.1520   31.0080   57.3970 C.2    58  GLU58       0.2260
     20  O         19.1470   31.4280   56.7960 O.2    58  GLU58      -0.2867
     21  CB        15.9520   30.9740   56.1290 C.3    58  GLU58       0.0388
     22  CG        15.0240   30.1900   55.1760 C.3    58  GLU58       0.1160
     23  CD        13.8460   31.0120   54.6610 C.2    58  GLU58       0.3649
     24  OE1       13.0660   31.5300   55.4880 O.co2  58  GLU58      -0.2457
     25  OE2       13.6870   31.1270   53.4280 O.co2  58  GLU58      -0.2457
     26  N          6.4220   30.1820   50.4190 N.3    65  VAL65      -0.1245
     27  CA         7.3500   29.1290   50.8940 C.3    65  VAL65       0.1561
     28  C          7.5330   27.9600   49.9120 C.2    65  VAL65       0.2260
     29  O          8.6580   27.5420   49.6520 O.2    65  VAL65      -0.2867
     30  CB         7.0460   28.6250   52.3490 C.3    65  VAL65       0.0252
     31  CG1        5.6750   27.9800   52.4590 C.3    65  VAL65       0.0019
     32  CG2        8.0960   27.6270   52.7920 C.3    65  VAL65       0.0019
     33  N          9.8230   29.2020   47.1360 N.3    68  ARG68      -0.1231
     34  CA        11.2200   29.3130   47.5710 C.3    68  ARG68       0.1694
     35  C         11.9150   27.9660   47.5990 C.2    68  ARG68       0.2591
     36  O         13.0320   27.8270   47.0910 O.2    68  ARG68      -0.2718
     37  CB        11.3450   30.0060   48.9250 C.3    68  ARG68       0.0321
     38  CG        11.9540   31.4100   48.8180 C.3    68  ARG68       0.0489
     39  CD        11.4620   32.3920   49.8950 C.3    68  ARG68       0.2205
     40  NE        11.6020   31.8890   51.2620 N.pl3  68  ARG68      -0.0865
     41  CZ        10.6100   31.8390   52.1510 C.cat  68  ARG68       0.5346
     42  NH1        9.3960   32.2780   51.8270 N.pl3  68  ARG68       0.1354
     43  NH2       10.8330   31.3600   53.3730 N.pl3  68  ARG68       0.1354
     44  N         11.2390   26.9760   48.1670 N.am   69  ILE69      -0.1980
     45  CA        11.7590   25.6130   48.2090 C.3    69  ILE69       0.1595
     46  C         11.9630   25.0380   46.7970 C.2    69  ILE69       0.2287
     47  O         13.0040   24.4360   46.5140 O.2    69  ILE69      -0.2864
     48  CB        10.8470   24.6880   49.0480 C.3    69  ILE69       0.0276
     49  CG1       10.8180   25.1480   50.5140 C.3    69  ILE69       0.0022
     50  CG2       11.2820   23.2290   48.9280 C.3    69  ILE69       0.0022
     51  CD1        9.7270   24.4850   51.3350 C.3    69  ILE69       0.0001
     52  N         14.8740   26.6440   45.1890 N.3    72  GLY72      -0.1210
     53  CA        16.0730   26.1270   45.8340 C.3    72  GLY72       0.1956
     54  C         16.4000   24.7710   45.2520 C.2    72  GLY72       0.2612
     55  O         17.5580   24.4650   44.9910 O.2    72  GLY72      -0.2717
     56  N         15.3600   23.9760   45.0290 N.am   73  CYS73      -0.1970
     57  CA        15.4810   22.6760   44.3910 C.3    73  CYS73       0.1712
     58  C         15.9490   22.7840   42.9260 C.2    73  CYS73       0.2296
     59  O         16.8020   22.0040   42.4910 O.2    73  CYS73      -0.2864
     60  CB        14.1570   21.9210   44.5160 C.3    73  CYS73       0.0983
     61  SG        14.0790   20.3340   43.6810 S.3    73  CYS73      -0.0798
     62  N         19.7920   23.5710   42.7870 N.3    76  ARG76      -0.1231
     63  CA        20.6220   22.4010   43.0680 C.3    76  ARG76       0.1694
     64  C         20.6520   21.4450   41.8730 C.2    76  ARG76       0.2592
     65  O         21.6680   20.8000   41.6180 O.2    76  ARG76      -0.2718
     66  CB        20.1680   21.6880   44.3480 C.3    76  ARG76       0.0321
     67  CG        20.8240   20.3260   44.6010 C.3    76  ARG76       0.0489
     68  CD        22.3330   20.4080   44.8650 C.3    76  ARG76       0.2205
     69  NE        22.9820   19.1650   44.4460 N.pl3  76  ARG76      -0.0865
     70  CZ        24.2660   19.0390   44.1270 C.cat  76  ARG76       0.5346
     71  NH1       25.0840   20.0820   44.1800 N.pl3  76  ARG76       0.1354
     72  NH2       24.7360   17.8490   43.7620 N.pl3  76  ARG76       0.1354
     73  N         19.5450   21.3640   41.1390 N.am   77  SER77      -0.1952
     74  CA        19.4890   20.5030   39.9580 C.3    77  SER77       0.1924
     75  C         20.4540   21.0210   38.8990 C.2    77  SER77       0.2314
     76  O         21.1390   20.2420   38.2550 O.2    77  SER77      -0.2863
     77  CB        18.0790   20.4690   39.3790 C.3    77  SER77       0.2116
     78  OG        17.2090   19.9510   40.3400 O.3    77  SER77      -0.2180
     79  N         20.2630   12.3980   38.4390 N.3   114  ILE114     -0.1231
     80  CA        19.9170   13.2560   39.5800 C.3   114  ILE114      0.1692
     81  C         19.1350   12.4760   40.6390 C.2   114  ILE114      0.2592
     82  O         19.5180   12.4500   41.8160 O.2   114  ILE114     -0.2718
     83  CB        19.1490   14.4980   39.0960 C.3   114  ILE114      0.0266
     84  CG1       20.1350   15.4920   38.4860 C.3   114  ILE114      0.0019
     85  CG2       18.3240   15.1430   40.2240 C.3   114  ILE114      0.0020
     86  CD1       19.4450   16.7260   37.8390 C.3   114  ILE114      0.0001
     87  N         18.0750   11.7950   40.2070 N.am  115  TYR115     -0.1976
     88  CA        17.2450   11.0120   41.1250 C.3   115  TYR115      0.1639
     89  C         17.9700    9.7820   41.6740 C.2   115  TYR115      0.2290
     90  O         17.7270    9.4060   42.8020 O.2   115  TYR115     -0.2864
     91  CB        15.8980   10.6490   40.4640 C.3   115  TYR115      0.0560
     92  CG        15.1950   11.8970   39.9380 C.ar  115  TYR115     -0.0198
     93  CD1       15.2160   13.0920   40.6710 C.ar  115  TYR115     -0.0009
     94  CD2       14.5760   11.9070   38.6950 C.ar  115  TYR115     -0.0009
     95  CE1       14.6140   14.2570   40.1880 C.ar  115  TYR115      0.0417
     96  CE2       13.9690   13.0600   38.2040 C.ar  115  TYR115      0.0417
     97  CZ        13.9880   14.2260   38.9580 C.ar  115  TYR115      0.1957
     98  OH        13.3820   15.3680   38.4730 O.3   115  TYR115     -0.2866
     99  N         20.1740   11.5400   44.2280 N.3   118  LEU118     -0.1245
    100  CA        19.3070   12.0630   45.2680 C.3   118  LEU118      0.1561
    101  C         18.8990   10.9860   46.2670 C.2   118  LEU118      0.2260
    102  O         18.7760   11.2620   47.4620 O.2   118  LEU118     -0.2867
    103  CB        18.0510   12.6950   44.6540 C.3   118  LEU118      0.0270
    104  CG        17.1210   13.3910   45.6410 C.3   118  LEU118      0.0019
    105  CD1       17.8820   14.5480   46.3160 C.3   118  LEU118      0.0001
    106  CD2       15.8790   13.8930   44.8850 C.3   118  LEU118      0.0001
    107  N         20.9470   10.8540   49.2910 N.3   121  LEU121     -0.1245
    108  CA        20.6760   11.9180   50.2510 C.3   121  LEU121      0.1561
    109  C         19.3760   11.6980   51.0110 C.2   121  LEU121      0.2260
    110  O         19.0160   12.5230   51.8420 O.2   121  LEU121     -0.2867
    111  CB        20.6160   13.2690   49.5340 C.3   121  LEU121      0.0270
    112  CG        21.6870   13.6090   48.5060 C.3   121  LEU121      0.0019
    113  CD1       21.7480   15.1380   48.2670 C.3   121  LEU121      0.0001
    114  CD2       23.0150   13.0860   48.9740 C.3   121  LEU121      0.0001
    115  N         15.2200   14.3550   53.3520 N.3   127  VAL127     -0.1231
    116  CA        16.3220   14.4900   52.4250 C.3   127  VAL127      0.1692
    117  C         17.3070   15.5460   52.8990 C.2   127  VAL127      0.2592
    118  O         16.9060   16.6070   53.3650 O.2   127  VAL127     -0.2718
    119  CB        15.8040   14.8460   51.0060 C.3   127  VAL127      0.0266
    120  CG1       15.0140   16.1690   51.0170 C.3   127  VAL127      0.0020
    121  CG2       16.9430   14.9310   50.0090 C.3   127  VAL127      0.0020
    122  N         18.5960   15.2540   52.7560 N.am  128  LEU128     -0.1966
    123  CA        19.6340   16.2360   53.0330 C.3   128  LEU128      0.1728
    124  C         19.5830   17.3600   52.0370 C.2   128  LEU128      0.2616
    125  O         19.3850   17.1360   50.8340 O.2   128  LEU128     -0.2715
    126  CB        21.0190   15.6040   52.9840 C.3   128  LEU128      0.0311
    127  CG        21.4090   14.6990   54.1500 C.3   128  LEU128      0.0022
    128  CD1       22.7290   13.9810   53.8130 C.3   128  LEU128      0.0001
    129  CD2       21.5830   15.5820   55.3930 C.3   128  LEU128      0.0001
    130  N         19.8120   18.5680   52.5350 N.am  129  ILE129     -0.1963
    131  CA        19.8530   19.7470   51.6910 C.3   129  ILE129      0.1727
    132  C         21.0520   20.6040   52.0240 C.2   129  ILE129      0.2616
    133  O         21.7240   20.3830   53.0400 O.2   129  ILE129     -0.2715
    134  CB        18.5330   20.5960   51.8190 C.3   129  ILE129      0.0290
    135  CG1       18.3380   21.0910   53.2550 C.3   129  ILE129      0.0022
    136  CG2       17.3240   19.7620   51.4010 C.3   129  ILE129      0.0023
    137  CD1       17.3370   22.2400   53.3660 C.3   129  ILE129      0.0001
    138  N         21.3090   21.5840   51.1580 N.am  130  SER130     -0.1950
    139  CA        22.3790   22.5590   51.3320 C.3   130  SER130      0.1924
    140  C         23.7080   21.9020   51.7160 C.2   130  SER130      0.2314
    141  O         24.2920   22.2080   52.7680 O.2   130  SER130     -0.2863
    142  CB        21.9570   23.6090   52.3560 C.3   130  SER130      0.2116
    143  OG        22.9340   24.6160   52.4700 O.3   130  SER130     -0.2180
    144  N         15.4270   18.2950   55.3320 N.3   136  MET136     -0.1245
    145  CA        14.0010   18.6470   55.2130 C.3   136  MET136      0.1570
    146  C         13.1560   17.3740   55.2340 C.2   136  MET136      0.2261
    147  O         13.4130   16.4480   54.4510 O.2   136  MET136     -0.2867
    148  CB        13.7560   19.4060   53.8950 C.3   136  MET136      0.0387
    149  CG        12.3310   19.9390   53.7240 C.3   136  MET136      0.0595
    150  SD        12.1790   21.1700   52.3960 S.3   136  MET136     -0.1393
    151  CE        13.2530   22.4810   52.9460 C.3   136  MET136      0.0692
    152  N          7.5520   18.4480   53.2360 N.3   141  LEU141     -0.1245
    153  CA         7.4630   18.5790   51.7850 C.3   141  LEU141      0.1561
    154  C          6.0710   18.2100   51.2730 C.2   141  LEU141      0.2260
    155  O          5.4940   18.9250   50.4490 O.2   141  LEU141     -0.2867
    156  CB         8.5330   17.7140   51.1140 C.3   141  LEU141      0.0270
    157  CG         9.8870   18.4350   51.0860 C.3   141  LEU141      0.0019
    158  CD1       11.0140   17.4590   50.8750 C.3   141  LEU141      0.0001
    159  CD2        9.8860   19.5450   50.0060 C.3   141  LEU141      0.0001
    160  N          5.6470   17.0590   44.6020 N.3   151  PHE151     -0.1227
    161  CA         6.7800   16.9590   43.6940 C.3   151  PHE151      0.1736
    162  C          7.8490   15.9510   44.1310 C.2   151  PHE151      0.2595
    163  O          8.4510   15.2960   43.2820 O.2   151  PHE151     -0.2718
    164  CB         7.3310   18.3360   43.2450 C.3   151  PHE151      0.0547
    165  CG         8.2680   19.0180   44.2140 C.ar  151  PHE151     -0.0202
    166  CD1        7.7780   19.7530   45.2950 C.ar  151  PHE151     -0.0042
    167  CD2        9.6450   19.0250   43.9810 C.ar  151  PHE151     -0.0042
    168  CE1        8.6460   20.4250   46.1740 C.ar  151  PHE151     -0.0003
    169  CE2       10.5190   19.7050   44.8510 C.ar  151  PHE151     -0.0003
    170  CZ        10.0140   20.4020   45.9470 C.ar  151  PHE151     -0.0000
    171  N          8.0170   15.7840   45.4430 N.am  152  MET152     -0.1979
    172  CA         9.0980   14.9430   45.9970 C.3   152  MET152      0.1605
    173  C          8.6830   13.4980   46.3140 C.2   152  MET152      0.2287
    174  O          9.5360   12.6140   46.3840 O.2   152  MET152     -0.2864
    175  CB         9.7160   15.6060   47.2380 C.3   152  MET152      0.0413
    176  CG        10.5100   16.8870   46.9340 C.3   152  MET152      0.0598
    177  SD        11.9260   16.6910   45.8100 S.3   152  MET152     -0.1393
    178  CE        12.9180   15.5650   46.7610 C.3   152  MET152      0.0692
    179  N          9.9940   10.5990   44.3240 N.3   155  LYS155     -0.1245
    180  CA        11.4480   10.4780   44.5350 C.3   155  LYS155      0.1561
    181  C         11.7980    9.6970   45.8100 C.2   155  LYS155      0.2260
    182  O         12.7120    8.8400   45.7920 O.2   155  LYS155     -0.2867
    183  CB        12.1320   11.8590   44.5020 C.3   155  LYS155      0.0271
    184  CG        12.1730   12.4640   43.0840 C.3   155  LYS155      0.0035
    185  CD        11.5990   13.8720   43.0620 C.3   155  LYS155      0.0206
    186  CE        11.3120   14.3550   41.6230 C.3   155  LYS155      0.1093
    187  NZ         9.8600   14.2910   41.2260 N.3   155  LYS155     -0.1314
@<TRIPOS>BOND
     1    86    84    1
     2    96    94   ar
     3    96    97   ar
     4    76    75    2
     5    79    80    1
     6    98    97    1
     7    84    83    1
     8    94    92   ar
     9    75    74    1
    10    97    95   ar
    11    83    80    1
    12    83    85    1
    13    77    74    1
    14    77    78    1
    15    80    81    1
    16    92    91    1
    17    92    93   ar
    18    74    73    1
    19    95    93   ar
    20    87    81   am
    21    87    88    1
    22    91    88    1
    23    81    82    2
    24    88    89    1
    25    73    64   am
    26   187   186    1
    27    65    64    2
    28   186   185    1
    29    89    90    2
    30    64    63    1
    31    59    58    2
    32    62    63    1
    33    58    57    1
    34   185   184    1
    35    63    66    1
    36   184   183    1
    37   164   161    1
    38   164   165    1
    39   163   162    2
    40    61    60    1
    41   161   162    1
    42   161   160    1
    43    72    70    1
    44   167   165   ar
    45   167   169   ar
    46    70    71    1
    47    70    69    2
    48   162   171   am
    49   165   166   ar
    50    99   100    1
    51   179   180    1
    52    66    67    1
    53    57    60    1
    54    57    56    1
    55    69    68    1
    56   183   180    1
    57   180   181    1
    58    67    68    1
    59   103   100    1
    60   103   104    1
    61   169   170   ar
    62   106   104    1
    63    55    54    2
    64    56    54   am
    65    52    53    1
    66    54    53    1
    67   100   101    1
    68   166   168   ar
    69   171   172    1
    70   104   105    1
    71   182   181    2
    72   177   178    1
    73   177   176    1
    74   170   168   ar
    75   172   173    1
    76   172   175    1
    77   101   102    2
    78   173   174    2
    79    47    46    2
    80    46    45    1
    81   176   175    1
    82    36    35    2
    83    33    34    1
    84    34    35    1
    85    34    37    1
    86    35    44   am
    87    44    45    1
    88    45    48    1
    89   113   112    1
    90   112   114    1
    91   112   111    1
    92    38    37    1
    93    38    39    1
    94    50    48    1
    95    48    49    1
    96   107   108    1
    97   111   108    1
    98    29    28    2
    99    39    40    1
   100    28    27    1
   101   159   157    1
   102   121   119    1
   103   108   109    1
   104    26    27    1
   105   155   154    2
   106    49    51    1
   107   125   124    2
   108   158   157    1
   109    27    30    1
   110   119   120    1
   111   119   116    1
   112   109   110    2
   113   157   156    1
   114   156   153    1
   115   138   139    1
   116   138   132   am
   117    40    41    2
   118   154   153    1
   119   139   140    1
   120   139   142    1
   121   136   134    1
   122   131   134    1
   123   131   132    1
   124   131   130    1
   125   140   141    2
   126   153   152    1
   127   134   135    1
   128    42    41    1
   129   132   133    2
   130   124   130   am
   131   124   123    1
   132    41    43    1
   133    30    31    1
   134    30    32    1
   135   142   143    1
   136   150   151    1
   137   150   149    1
   138   116   117    1
   139   116   115    1
   140   122   117   am
   141   122   123    1
   142   117   118    2
   143   126   123    1
   144   126   127    1
   145   135   137    1
   146    25    23   ar
   147   149   148    1
   148   128   127    1
   149   148   145    1
   150   127   129    1
   151   147   146    2
   152    15    14    1
   153    23    22    1
   154    23    24   ar
   155    22    21    1
   156   145   146    1
   157   145   144    1
   158    16    14    1
   159    14    13    1
   160    21    18    1
   161     8     6    1
   162    18    19    1
   163    18    17    1
   164    20    19    2
   165     7     5    1
   166    13    10    1
   167     5     6    1
   168     5     2    1
   169    12    11    2
   170     4     3    2
   171    10    11    1
   172    10     9    1
   173     3     2    1
   174     2     1    1
