@<TRIPOS>MOLECULE
tmp/2yflA00.pdb
 163 157 0 0 0
SMALL
GASTEIGER

@<TRIPOS>ATOM
      1  N         21.1220   -1.1870  -10.8740 N.3   200  GLN200     -0.1231
      2  CA        21.2970    0.2300  -10.5560 C.3   200  GLN200      0.1698
      3  C         22.2900    0.4490   -9.4100 C.2   200  GLN200      0.2592
      4  O         23.2150    1.2530   -9.5240 O.2   200  GLN200     -0.2718
      5  CB        19.9580    0.9050  -10.2330 C.3   200  GLN200      0.0381
      6  CG        20.0350    2.4270  -10.2750 C.3   200  GLN200      0.0905
      7  CD        18.7610    3.1020   -9.8210 C.2   200  GLN200      0.2608
      8  OE1       18.4600    3.1470   -8.6260 O.2   200  GLN200     -0.2717
      9  NE2       18.0070    3.6460  -10.7740 N.am  200  GLN200     -0.0878
     10  N         22.1000   -0.2810   -8.3170 N.am  201  PHE201     -0.1976
     11  CA        22.9520   -0.1330   -7.1540 C.3   201  PHE201      0.1639
     12  C         24.2990   -0.8330   -7.3520 C.2   201  PHE201      0.2290
     13  O         25.2460   -0.6090   -6.5910 O.2   201  PHE201     -0.2864
     14  CB        22.2240   -0.6380   -5.9060 C.3   201  PHE201      0.0560
     15  CG        21.1690    0.3110   -5.3920 C.ar  201  PHE201     -0.0200
     16  CD1       20.0230    0.5840   -6.1410 C.ar  201  PHE201     -0.0042
     17  CD2       21.3170    0.9270   -4.1510 C.ar  201  PHE201     -0.0042
     18  CE1       19.0410    1.4640   -5.6680 C.ar  201  PHE201     -0.0003
     19  CE2       20.3390    1.8050   -3.6650 C.ar  201  PHE201     -0.0003
     20  CZ        19.1980    2.0740   -4.4270 C.ar  201  PHE201     -0.0000
     21  N         25.3590    1.7140  -11.4960 N.3   204  ASP204     -0.1225
     22  CA        24.7000    2.8660  -12.1240 C.3   204  ASP204      0.1805
     23  C         24.7390    4.1830  -11.3370 C.2   204  ASP204      0.2597
     24  O         23.7150    4.6630  -10.8550 O.2   204  ASP204     -0.2718
     25  CB        23.2600    2.4980  -12.5320 C.3   204  ASP204      0.1424
     26  CG        22.6430    3.4980  -13.5030 C.2   204  ASP204      0.3668
     27  OD1       23.3920    4.3160  -14.0780 O.co2 204  ASP204     -0.2456
     28  OD2       21.4050    3.4620  -13.6940 O.co2 204  ASP204     -0.2456
     29  N         25.9230    4.7740  -11.2350 N.am  205  MET205     -0.1979
     30  CA        26.0520    6.1490  -10.7700 C.3   205  MET205      0.1605
     31  C         25.5720    7.1050  -11.8610 C.2   205  MET205      0.2287
     32  O         25.0470    8.1840  -11.5720 O.2   205  MET205     -0.2864
     33  CB        27.5060    6.4590  -10.4250 C.3   205  MET205      0.0413
     34  CG        27.6890    7.7380   -9.6420 C.3   205  MET205      0.0598
     35  SD        27.0830    7.5800   -7.9560 S.3   205  MET205     -0.1393
     36  CE        28.5650    7.0400   -7.1110 C.3   205  MET205      0.0692
     37  N         23.0250    7.3960  -13.7120 N.3   207  HIS207     -0.1226
     38  CA        21.6820    7.9610  -13.5690 C.3   207  HIS207      0.1752
     39  C         21.6260    9.1050  -12.5460 C.2   207  HIS207      0.2595
     40  O         20.8950   10.0760  -12.7340 O.2   207  HIS207     -0.2718
     41  CB        20.6810    6.8610  -13.2130 C.3   207  HIS207      0.0759
     42  CG        20.5080    6.6460  -11.7430 C.ar  207  HIS207      0.0818
     43  ND1       21.5470    6.2820  -10.9140 N.ar  207  HIS207     -0.2268
     44  CD2       19.4100    6.7330  -10.9550 C.ar  207  HIS207      0.1154
     45  CE1       21.0990    6.1630   -9.6770 C.ar  207  HIS207      0.1986
     46  NE2       19.8040    6.4290   -9.6750 N.ar  207  HIS207     -0.2212
     47  N         22.4110    8.9790  -11.4770 N.am  208  ALA208     -0.1980
     48  CA        22.4850    9.9870  -10.4250 C.3   208  ALA208      0.1597
     49  C         23.2730   11.2140  -10.8820 C.2   208  ALA208      0.2287
     50  O         22.9420   12.3450  -10.5120 O.2   208  ALA208     -0.2864
     51  CB        23.1040    9.3940   -9.1690 C.3   208  ALA208      0.0319
     52  N         18.1040   12.3210  -10.8240 N.3   213  HIS213     -0.1241
     53  CA        18.0550   12.8700   -9.4630 C.3   213  HIS213      0.1621
     54  C         18.3700   14.3580   -9.3410 C.2   213  HIS213      0.2264
     55  O         18.6890   14.8430   -8.2490 O.2   213  HIS213     -0.2867
     56  CB        18.9660   12.0630   -8.5390 C.3   213  HIS213      0.0745
     57  CG        18.4840   10.6720   -8.2910 C.ar  213  HIS213      0.0817
     58  ND1       17.2510   10.4020   -7.7400 N.ar  213  HIS213     -0.2268
     59  CD2       19.0750    9.4730   -8.4990 C.ar  213  HIS213      0.1154
     60  CE1       17.0980    9.0950   -7.6290 C.ar  213  HIS213      0.1986
     61  NE2       18.1910    8.5080   -8.0820 N.ar  213  HIS213     -0.2212
     62  N         32.0400    8.1700   -6.0130 N.3   251  TYR251     -0.1241
     63  CA        32.6770    9.4440   -6.3460 C.3   251  TYR251      0.1605
     64  C         33.9640    9.6460   -5.5400 C.2   251  TYR251      0.2264
     65  O         34.0160    9.3240   -4.3490 O.2   251  TYR251     -0.2867
     66  CB        31.7110   10.6040   -6.0970 C.3   251  TYR251      0.0534
     67  CG        30.5910   10.7330   -7.1150 C.ar  251  TYR251     -0.0201
     68  CD1       30.8520   10.6610   -8.4870 C.ar  251  TYR251     -0.0009
     69  CD2       29.2710   10.9330   -6.7050 C.ar  251  TYR251     -0.0009
     70  CE1       29.8280   10.7860   -9.4240 C.ar  251  TYR251      0.0417
     71  CE2       28.2390   11.0650   -7.6330 C.ar  251  TYR251      0.0417
     72  CZ        28.5260   10.9920   -8.9910 C.ar  251  TYR251      0.1957
     73  OH        27.5120   11.1140   -9.9160 O.3   251  TYR251     -0.2866
     74  N         27.5710   15.8900   -4.1650 N.3   257  SER257     -0.1202
     75  CA        26.3400   15.1020   -4.0940 C.3   257  SER257      0.2020
     76  C         26.1050   14.4790   -2.7100 C.2   257  SER257      0.2618
     77  O         24.9710   14.4490   -2.2300 O.2   257  SER257     -0.2717
     78  CB        26.2990   14.0360   -5.1930 C.3   257  SER257      0.2103
     79  OG        27.1900   12.9760   -4.9080 O.3   257  SER257     -0.2182
     80  N         27.1690   13.9960   -2.0720 N.am  258  LEU258     -0.1979
     81  CA        27.0710   13.5090   -0.6980 C.3   258  LEU258      0.1596
     82  C         26.5880   14.6200    0.2340 C.2   258  LEU258      0.2287
     83  O         25.6730   14.4110    1.0370 O.2   258  LEU258     -0.2864
     84  CB        28.4140   12.9530   -0.2150 C.3   258  LEU258      0.0297
     85  CG        28.5540   12.5820    1.2660 C.3   258  LEU258      0.0022
     86  CD1       27.6250   11.4380    1.6580 C.3   258  LEU258      0.0001
     87  CD2       29.9930   12.2220    1.5640 C.3   258  LEU258      0.0001
     88  N         23.0180   15.1260   -0.3450 N.3   261  VAL261     -0.1245
     89  CA        22.1910   14.0250    0.1240 C.3   261  VAL261      0.1561
     90  C         22.0980   13.9890    1.6530 C.2   261  VAL261      0.2260
     91  O         20.9970   13.9630    2.2130 O.2   261  VAL261     -0.2867
     92  CB        22.6840   12.6590   -0.4460 C.3   261  VAL261      0.0252
     93  CG1       21.9190   11.5080    0.1590 C.3   261  VAL261      0.0019
     94  CG2       22.5280   12.6200   -1.9640 C.3   261  VAL261      0.0019
     95  N         30.3240    9.1260   -1.4280 N.3   295  GLY295     -0.1210
     96  CA        29.0740    8.7020   -2.0540 C.3   295  GLY295      0.1956
     97  C         29.2930    7.4360   -2.8510 C.2   295  GLY295      0.2612
     98  O         30.0900    7.4180   -3.7840 O.2   295  GLY295     -0.2717
     99  N         28.5790    6.3780   -2.4830 N.am  296  GLN296     -0.1965
    100  CA        28.8470    5.0530   -3.0190 C.3   296  GLN296      0.1733
    101  C         27.5710    4.2310   -3.1400 C.2   296  GLN296      0.2616
    102  O         26.7140    4.2900   -2.2670 O.2   296  GLN296     -0.2715
    103  CB        29.8500    4.3270   -2.1170 C.3   296  GLN296      0.0408
    104  CG        30.3730    3.0190   -2.6760 C.3   296  GLN296      0.0908
    105  CD        31.2300    2.2560   -1.6930 C.2   296  GLN296      0.2608
    106  OE1       31.8160    2.8330   -0.7760 O.2   296  GLN296     -0.2717
    107  NE2       31.3110    0.9460   -1.8780 N.am  296  GLN296     -0.0878
    108  N         27.4540    3.4850   -4.2370 N.am  297  HIS297     -0.1973
    109  CA        26.3970    2.4890   -4.4090 C.3   297  HIS297      0.1656
    110  C         27.0260    1.1140   -4.5300 C.2   297  HIS297      0.2291
    111  O         28.0970    0.9770   -5.1170 O.2   297  HIS297     -0.2864
    112  CB        25.5580    2.7820   -5.6540 C.3   297  HIS297      0.0771
    113  CG        26.3260    2.7100   -6.9380 C.ar  297  HIS297      0.0820
    114  ND1       26.5730    1.5220   -7.5930 N.ar  297  HIS297     -0.2267
    115  CD2       26.9010    3.6800   -7.6890 C.ar  297  HIS297      0.1154
    116  CE1       27.2660    1.7630   -8.6900 C.ar  297  HIS297      0.1986
    117  NE2       27.4780    3.0650   -8.7720 N.ar  297  HIS297     -0.2212
    118  N         24.1100    1.7630    0.1180 N.3   307  LEU307     -0.1245
    119  CA        24.7810    3.0070   -0.2350 C.3   307  LEU307      0.1561
    120  C         25.7180    3.4320    0.8980 C.2   307  LEU307      0.2260
    121  O         25.3430    4.2440    1.7420 O.2   307  LEU307     -0.2867
    122  CB        23.7520    4.1010   -0.5490 C.3   307  LEU307      0.0270
    123  CG        22.6780    3.8070   -1.6040 C.3   307  LEU307      0.0019
    124  CD1       21.4260    4.6370   -1.3520 C.3   307  LEU307      0.0001
    125  CD2       23.2030    4.0180   -3.0140 C.3   307  LEU307      0.0001
    126  N         25.7830    6.8740    2.7270 N.3   310  MET310     -0.1245
    127  CA        24.4770    7.1760    3.3190 C.3   310  MET310      0.1570
    128  C         23.8730    6.0060    4.1060 C.2   310  MET310      0.2261
    129  O         22.7940    6.1330    4.7000 O.2   310  MET310     -0.2867
    130  CB        23.4790    7.7500    2.2990 C.3   310  MET310      0.0387
    131  CG        23.5170    7.1860    0.8960 C.3   310  MET310      0.0595
    132  SD        24.2510    8.3170   -0.3060 S.3   310  MET310     -0.1393
    133  CE        25.8390    7.5270   -0.5890 C.3   310  MET310      0.0692
    134  N         15.5030    8.3790    0.9600 N.3   352  PHE352     -0.1241
    135  CA        15.4690    6.9730    0.5510 C.3   352  PHE352      0.1605
    136  C         14.2760    6.1320    1.0010 C.2   352  PHE352      0.2264
    137  O         14.2190    4.9400    0.6990 O.2   352  PHE352     -0.2867
    138  CB        16.7880    6.2960    0.9350 C.3   352  PHE352      0.0534
    139  CG        18.0060    7.0090    0.4140 C.ar  352  PHE352     -0.0203
    140  CD1       18.2190    7.1420   -0.9570 C.ar  352  PHE352     -0.0042
    141  CD2       18.9390    7.5510    1.2950 C.ar  352  PHE352     -0.0042
    142  CE1       19.3350    7.8020   -1.4430 C.ar  352  PHE352     -0.0003
    143  CE2       20.0670    8.2160    0.8130 C.ar  352  PHE352     -0.0003
    144  CZ        20.2620    8.3420   -0.5600 C.ar  352  PHE352     -0.0000
    145  N         14.7830   11.1270   -3.4960 N.3   358  PHE358     -0.1241
    146  CA        15.4690   10.3650   -4.5330 C.3   358  PHE358      0.1605
    147  C         14.6190    9.1830   -4.9760 C.2   358  PHE358      0.2264
    148  O         14.2810    9.0690   -6.1570 O.2   358  PHE358     -0.2867
    149  CB        16.8360    9.8780   -4.0520 C.3   358  PHE358      0.0534
    150  CG        17.9590   10.8570   -4.2880 C.ar  358  PHE358     -0.0203
    151  CD1       17.9500   12.1170   -3.6940 C.ar  358  PHE358     -0.0042
    152  CD2       19.0520   10.4970   -5.0660 C.ar  358  PHE358     -0.0042
    153  CE1       19.0000   13.0070   -3.8990 C.ar  358  PHE358     -0.0003
    154  CE2       20.1060   11.3840   -5.2760 C.ar  358  PHE358     -0.0003
    155  CZ        20.0760   12.6390   -4.6960 C.ar  358  PHE358     -0.0000
    156  N         13.3260    7.1920   -8.8530 N.3   362  ASP362     -0.1239
    157  CA        13.8250    5.8670   -9.2250 C.3   362  ASP362      0.1674
    158  C         12.6940    4.9430   -9.6800 C.2   362  ASP362      0.2266
    159  O         12.6780    4.4860  -10.8230 O.2   362  ASP362     -0.2867
    160  CB        14.6070    5.2400   -8.0680 C.3   362  ASP362      0.1410
    161  CG        16.0270    5.7700   -7.9640 C.2   362  ASP362      0.3668
    162  OD1       16.6400    6.0780   -9.0080 O.co2 362  ASP362     -0.2456
    163  OD2       16.5530    5.8700   -6.8380 O.co2 362  ASP362     -0.2456
@<TRIPOS>BOND
     1    27    26   ar
     2    37    38    1
     3    28    26   ar
     4    38    41    1
     5    38    39    1
     6    26    25    1
     7    41    42    1
     8    40    39    2
     9    39    47   am
    10    25    22    1
    11    22    21    1
    12    22    23    1
    13    31    32    2
    14    31    30    1
    15    42    44   ar
    16    42    43   ar
    17    47    48    1
    18    23    29   am
    19    23    24    2
    20    29    30    1
    21    44    46   ar
    22    43    45   ar
    23    49    50    2
    24    49    48    1
    25     1     2    1
    26    52    53    1
    27   159   158    2
    28     9     7   am
    29    30    33    1
    30     2     5    1
    31     2     3    1
    32    33    34    1
    33    48    51    1
    34     6     5    1
    35     6     7    1
    36    73    72    1
    37     7     8    2
    38   158   157    1
    39    45    46   ar
    40    34    35    1
    41     4     3    2
    42    53    54    1
    43    53    56    1
    44    70    72   ar
    45    70    68   ar
    46     3    10   am
    47    54    55    2
    48   157   156    1
    49   157   160    1
    50   162   161   ar
    51    72    71   ar
    52   117   116   ar
    53   117   115   ar
    54   116   114   ar
    55    56    57    1
    56    59    57   ar
    57    59    61   ar
    58    68    67   ar
    59    10    11    1
    60    57    58   ar
    61    61    60   ar
    62   160   161    1
    63   161   163   ar
    64    35    36    1
    65    58    60   ar
    66   115   113   ar
    67    71    69   ar
    68   114   113   ar
    69    12    11    1
    70    12    13    2
    71    11    14    1
    72    67    69   ar
    73    67    66    1
    74   113   112    1
    75    63    66    1
    76    63    62    1
    77    63    64    1
    78   148   147    2
    79    16    18   ar
    80    16    15   ar
    81    14    15    1
    82    18    20   ar
    83   112   109    1
    84    64    65    2
    85    15    17   ar
    86   154   152   ar
    87   154   155   ar
    88    78    79    1
    89    78    75    1
    90   111   110    2
    91   152   150   ar
    92   147   146    1
    93   155   153   ar
    94   146   149    1
    95   146   145    1
    96   110   109    1
    97    20    19   ar
    98   109   108    1
    99   150   149    1
   100   150   151   ar
   101   108   101   am
   102    74    75    1
   103    17    19   ar
   104    75    76    1
   105   153   151   ar
   106    98    97    2
   107   101   100    1
   108   101   102    2
   109   100    99    1
   110   100   103    1
   111   125   123    1
   112    97    99   am
   113    97    96    1
   114    76    77    2
   115    76    80   am
   116   104   103    1
   117   104   105    1
   118    80    81    1
   119    96    95    1
   120    94    92    1
   121   107   105   am
   122   105   106    2
   123   123   124    1
   124   123   122    1
   125   142   140   ar
   126   142   144   ar
   127   140   139   ar
   128    81    84    1
   129    81    82    1
   130   133   132    1
   131   144   143   ar
   132   122   119    1
   133    92    89    1
   134    92    93    1
   135    88    89    1
   136   132   131    1
   137   119   118    1
   138   119   120    1
   139    84    85    1
   140    89    90    1
   141    82    83    2
   142   139   138    1
   143   139   141   ar
   144   135   138    1
   145   135   134    1
   146   135   136    1
   147   137   136    2
   148   143   141   ar
   149   131   130    1
   150   120   121    2
   151    85    87    1
   152    85    86    1
   153    90    91    2
   154   130   127    1
   155   126   127    1
   156   127   128    1
   157   128   129    2
