@<TRIPOS>MOLECULE
tmp/2yfoA00.pdb
 135 129 0 0 0
SMALL
GASTEIGER

@<TRIPOS>ATOM
      1  N         31.4980    1.0640   57.0100 N.3   198  HIS198     -0.1241
      2  CA        30.1830    1.6420   56.8690 C.3   198  HIS198      0.1621
      3  C         29.4780    1.6140   58.2330 C.2   198  HIS198      0.2264
      4  O         29.5160    0.6110   58.9580 O.2   198  HIS198     -0.2867
      5  CB        29.3660    0.8960   55.8200 C.3   198  HIS198      0.0745
      6  CG        27.9870    1.4200   55.7280 C.ar  198  HIS198      0.0817
      7  ND1       26.9110    0.7760   56.2970 N.ar  198  HIS198     -0.2268
      8  CD2       27.5430    2.6130   55.2540 C.ar  198  HIS198      0.1154
      9  CE1       25.8370    1.5480   56.1390 C.ar  198  HIS198      0.1986
     10  NE2       26.1950    2.6760   55.5240 N.ar  198  HIS198     -0.2212
     11  N         14.1190    9.3780   55.5720 N.3   335  TRP335     -0.1241
     12  CA        14.7170    8.0460   55.3870 C.3   335  TRP335      0.1605
     13  C         14.4810    7.0810   56.5390 C.2   335  TRP335      0.2264
     14  O         13.7580    6.1130   56.3650 O.2   335  TRP335     -0.2867
     15  CB        16.2100    8.1290   55.0440 C.3   335  TRP335      0.0550
     16  CG        16.8480    6.8030   54.8960 C.ar  335  TRP335      0.0003
     17  CD1       17.8650    6.3140   55.6590 C.ar  335  TRP335      0.0946
     18  CD2       16.6030    5.8210   53.8900 C.ar  335  TRP335      0.0152
     19  NE1       18.2490    5.1050   55.2200 N.ar  335  TRP335     -0.2442
     20  CE2       17.5100    4.7590   54.1230 C.ar  335  TRP335      0.0810
     21  CE3       15.7000    5.7300   52.8000 C.ar  335  TRP335      0.0012
     22  CZ2       17.5650    3.6260   53.3130 C.ar  335  TRP335      0.0191
     23  CZ3       15.7460    4.5910   52.0080 C.ar  335  TRP335      0.0001
     24  CH2       16.6700    3.5580   52.2700 C.ar  335  TRP335      0.0015
     25  N         13.8110   11.9690   51.0540 N.3   365  ASP365     -0.1225
     26  CA        15.0030   11.1970   50.8160 C.3   365  ASP365      0.1805
     27  C         14.7530   10.1780   49.6920 C.2   365  ASP365      0.2597
     28  O         13.8760   10.4080   48.8310 O.2   365  ASP365     -0.2718
     29  CB        15.4980   10.5720   52.1420 C.3   365  ASP365      0.1424
     30  CG        17.0000   10.2820   52.1490 C.2   365  ASP365      0.3668
     31  OD1       17.7490   11.2080   52.5450 O.co2 365  ASP365     -0.2456
     32  OD2       17.3580    9.1450   51.7450 O.co2 365  ASP365     -0.2456
     33  N         15.4970    9.0910   49.6350 N.am  366  ASP366     -0.1974
     34  CA        15.4040    8.1550   48.5400 C.3   366  ASP366      0.1709
     35  C         13.9680    7.6110   48.4150 C.2   366  ASP366      0.2293
     36  O         13.2280    7.5040   49.3960 O.2   366  ASP366     -0.2864
     37  CB        16.4350    7.0440   48.8340 C.3   366  ASP366      0.1436
     38  CG        16.6620    6.0410   47.7230 C.2   366  ASP366      0.3671
     39  OD1       16.0540    6.0850   46.6150 O.co2 366  ASP366     -0.2456
     40  OD2       17.4850    5.1160   47.9530 O.co2 366  ASP366     -0.2456
     41  N         16.7570   14.2650   47.9030 N.3   410  TRP410     -0.1241
     42  CA        17.9160   13.3870   47.7550 C.3   410  TRP410      0.1605
     43  C         18.1320   12.9760   46.3120 C.2   410  TRP410      0.2264
     44  O         17.1830   12.7120   45.5660 O.2   410  TRP410     -0.2867
     45  CB        17.6510   12.1570   48.6140 C.3   410  TRP410      0.0550
     46  CG        18.6250   11.0120   48.6210 C.ar  410  TRP410      0.0003
     47  CD1       19.4880   10.7010   49.6540 C.ar  410  TRP410      0.0946
     48  CD2       18.7500    9.9210   47.6660 C.ar  410  TRP410      0.0152
     49  NE1       20.1450    9.5340   49.3730 N.ar  410  TRP410     -0.2442
     50  CE2       19.7050    9.0210   48.1830 C.ar  410  TRP410      0.0810
     51  CE3       18.1370    9.6010   46.4360 C.ar  410  TRP410      0.0012
     52  CZ2       20.0460    7.8540   47.5310 C.ar  410  TRP410      0.0191
     53  CZ3       18.5010    8.4500   45.7890 C.ar  410  TRP410      0.0001
     54  CH2       19.4560    7.5880   46.3370 C.ar  410  TRP410      0.0015
     55  N         24.9960   -3.0100   46.5680 N.3   442  ARG442     -0.1245
     56  CA        23.6130   -2.5020   46.6870 C.3   442  ARG442      0.1563
     57  C         22.8790   -2.6750   45.3520 C.2   442  ARG442      0.2260
     58  O         22.0260   -1.8520   44.9900 O.2   442  ARG442     -0.2867
     59  CB        23.5410   -1.0490   47.1810 C.3   442  ARG442      0.0307
     60  CG        22.2610   -0.7630   47.9010 C.3   442  ARG442      0.0489
     61  CD        22.0180    0.6960   48.1630 C.3   442  ARG442      0.2205
     62  NE        20.8580    0.9150   49.0210 N.pl3 442  ARG442     -0.0865
     63  CZ        20.4390    2.0930   49.4650 C.cat 442  ARG442      0.5346
     64  NH1       20.9760    3.2220   49.0360 N.pl3 442  ARG442      0.1354
     65  NH2       19.4080    2.1430   50.3100 N.pl3 442  ARG442      0.1354
     66  N         20.5080   16.6750   49.1400 N.3   475  LYS475     -0.1245
     67  CA        21.4270   15.6750   49.7020 C.3   475  LYS475      0.1561
     68  C         21.9420   14.8460   48.5450 C.2   475  LYS475      0.2260
     69  O         21.1570   14.1660   47.8830 O.2   475  LYS475     -0.2867
     70  CB        20.6980   14.8270   50.7310 C.3   475  LYS475      0.0271
     71  CG        21.5070   13.7050   51.3940 C.3   475  LYS475      0.0035
     72  CD        20.6030   13.0350   52.4440 C.3   475  LYS475      0.0206
     73  CE        21.1840   11.7270   52.9690 C.3   475  LYS475      0.1093
     74  NZ        20.2170   11.0110   53.8540 N.3   475  LYS475     -0.1314
     75  N         24.0820   11.8290   47.4080 N.3   477  ASP477     -0.1239
     76  CA        24.5770   10.5640   47.9550 C.3   477  ASP477      0.1674
     77  C         25.3190    9.7820   46.8900 C.2   477  ASP477      0.2266
     78  O         25.3610   10.1740   45.7280 O.2   477  ASP477     -0.2867
     79  CB        23.3800    9.8010   48.5050 C.3   477  ASP477      0.1410
     80  CG        23.7150    8.7570   49.5290 C.2   477  ASP477      0.3668
     81  OD1       24.9110    8.5090   49.8530 O.co2 477  ASP477     -0.2456
     82  OD2       22.7190    8.1620   50.0170 O.co2 477  ASP477     -0.2456
     83  N         26.3830    5.4710   46.8390 N.3   479  ASN479     -0.1240
     84  CA        26.2000    4.2920   47.6900 C.3   479  ASN479      0.1653
     85  C         26.9880    3.0220   47.3790 C.2   479  ASN479      0.2266
     86  O         26.6210    1.9600   47.8930 O.2   479  ASN479     -0.2867
     87  CB        24.6990    3.9710   47.8710 C.3   479  ASN479      0.1155
     88  CG        24.0740    4.8770   48.8980 C.2   479  ASN479      0.2627
     89  OD1       24.5220    4.8970   50.0640 O.2   479  ASN479     -0.2716
     90  ND2       23.0830    5.6920   48.5030 N.am  479  ASN479     -0.0877
     91  N         26.9110   13.1890   50.9190 N.3   517  CYS517     -0.1235
     92  CA        26.6440   11.8820   51.5490 C.3   517  CYS517      0.1677
     93  C         27.2620   10.7890   50.7400 C.2   517  CYS517      0.2270
     94  O         27.3870   10.9150   49.5230 O.2   517  CYS517     -0.2867
     95  CB        25.1170   11.6790   51.6740 C.3   517  CYS517      0.0956
     96  SG        24.5750   10.2990   52.6910 S.3   517  CYS517     -0.0801
     97  N         26.6950    6.8270   51.7320 N.3   519  GLY519     -0.1210
     98  CA        26.3450    5.8850   52.7740 C.3   519  GLY519      0.1956
     99  C         26.8030    6.4110   54.1060 C.2   519  GLY519      0.2612
    100  O         27.5470    5.7260   54.8320 O.2   519  GLY519     -0.2717
    101  N         26.3890    7.6210   54.4620 N.am  520  GLY520     -0.1956
    102  CA        26.9790    8.3060   55.5890 C.3   520  GLY520      0.1869
    103  C         28.2630    9.0160   55.1890 C.2   520  GLY520      0.2309
    104  O         28.3020    9.7230   54.1710 O.2   520  GLY520     -0.2863
    105  N         26.7030   14.1670   55.6480 N.3   536  TRP536     -0.1241
    106  CA        26.0560   13.2220   56.5610 C.3   536  TRP536      0.1605
    107  C         27.1120   12.3600   57.2120 C.2   536  TRP536      0.2264
    108  O         27.8210   11.6450   56.5310 O.2   536  TRP536     -0.2867
    109  CB        25.0280   12.4050   55.7790 C.3   536  TRP536      0.0550
    110  CG        24.2300   11.4510   56.5620 C.ar  536  TRP536      0.0003
    111  CD1       24.0110   10.1560   56.2380 C.ar  536  TRP536      0.0946
    112  CD2       23.5430   11.6750   57.8230 C.ar  536  TRP536      0.0152
    113  NE1       23.2190    9.5440   57.2070 N.ar  536  TRP536     -0.2442
    114  CE2       22.9420   10.4440   58.1980 C.ar  536  TRP536      0.0810
    115  CE3       23.3570   12.7870   58.6590 C.ar  536  TRP536      0.0012
    116  CZ2       22.2050   10.3100   59.3690 C.ar  536  TRP536      0.0191
    117  CZ3       22.6410   12.6230   59.8290 C.ar  536  TRP536      0.0001
    118  CH2       22.0630   11.4000   60.1670 C.ar  536  TRP536      0.0015
    119  N         25.6630    6.8180   58.6840 N.3   539  ASP539     -0.1239
    120  CA        24.3510    6.1880   58.7410 C.3   539  ASP539      0.1674
    121  C         24.0560    5.6690   60.1300 C.2   539  ASP539      0.2266
    122  O         22.8990    5.4020   60.4680 O.2   539  ASP539     -0.2867
    123  CB        24.2400    5.0390   57.7450 C.3   539  ASP539      0.1410
    124  CG        23.9770    5.5090   56.3300 C.2   539  ASP539      0.3668
    125  OD1       23.3980    6.6200   56.2070 O.co2 539  ASP539     -0.2456
    126  OD2       24.3490    4.7880   55.3860 O.co2 539  ASP539     -0.2456
    127  N         15.1980   12.6370   62.1780 N.3   595  GLU595     -0.1245
    128  CA        15.0200   11.6050   61.1600 C.3   595  GLU595      0.1567
    129  C         14.2100   10.4820   61.7660 C.2   595  GLU595      0.2260
    130  O         14.7450    9.4510   62.1870 O.2   595  GLU595     -0.2867
    131  CB        16.3680   11.1480   60.5970 C.3   595  GLU595      0.0388
    132  CG        16.2570   10.2610   59.3940 C.3   595  GLU595      0.1160
    133  CD        17.5230   10.1070   58.6220 C.2   595  GLU595      0.3649
    134  OE1       18.3740   11.0240   58.6370 O.co2 595  GLU595     -0.2457
    135  OE2       17.6620    9.0590   57.9590 O.co2 595  GLU595     -0.2457
@<TRIPOS>BOND
     1    58    57    2
     2    57    56    1
     3    44    43    2
     4    78    77    2
     5    53    54   ar
     6    53    51   ar
     7    43    42    1
     8    54    52   ar
     9    51    48   ar
    10    55    56    1
    11    39    38   ar
    12    56    59    1
    13    83    84    1
    14    77    76    1
    15    59    60    1
    16    85    84    1
    17    85    86    2
    18    75    76    1
    19    52    50   ar
    20    48    50   ar
    21    48    46   ar
    22    84    87    1
    23    38    40   ar
    24    38    37    1
    25    42    41    1
    26    42    45    1
    27    87    88    1
    28    69    68    2
    29    60    61    1
    30    76    79    1
    31    61    62    1
    32    50    49   ar
    33    35    34    1
    34    35    36    2
    35    90    88   am
    36    79    80    1
    37    34    37    1
    38    34    33    1
    39    68    67    1
    40    45    46    1
    41    46    47   ar
    42    28    27    2
    43    88    89    2
    44    62    63    2
    45    64    63    1
    46    66    67    1
    47    49    47   ar
    48    63    65    1
    49    94    93    2
    50    80    81   ar
    51    80    82   ar
    52    33    27   am
    53    27    26    1
    54    67    70    1
    55    70    71    1
    56    93    92    1
    57    26    25    1
    58    26    29    1
    59    91    92    1
    60    71    72    1
    61    92    95    1
    62    95    96    1
    63    97    98    1
    64    32    30   ar
    65    23    24   ar
    66    23    21   ar
    67    29    30    1
    68    30    31   ar
    69    24    22   ar
    70    72    73    1
    71    98    99    1
    72    21    18   ar
    73    73    74    1
    74    22    20   ar
    75    18    20   ar
    76    18    16   ar
    77    99   101   am
    78    99   100    2
    79    20    19   ar
    80   104   103    2
    81   101   102    1
    82    16    15    1
    83    16    17   ar
    84    15    12    1
    85   103   102    1
    86    19    17   ar
    87     8    10   ar
    88     8     6   ar
    89   126   124   ar
    90    12    11    1
    91    12    13    1
    92    10     9   ar
    93   105   106    1
    94     6     5    1
    95     6     7   ar
    96   109   106    1
    97   109   110    1
    98     5     2    1
    99     9     7   ar
   100   125   124   ar
   101   111   110   ar
   102   111   113   ar
   103   124   123    1
   104    14    13    2
   105   108   107    2
   106   106   107    1
   107   110   112   ar
   108     2     1    1
   109     2     3    1
   110   113   114   ar
   111   123   120    1
   112   112   114   ar
   113   112   115   ar
   114   135   133   ar
   115   114   116   ar
   116     3     4    2
   117   133   134   ar
   118   133   132    1
   119   115   117   ar
   120   119   120    1
   121   120   121    1
   122   116   118   ar
   123   132   131    1
   124   117   118   ar
   125   121   122    2
   126   131   128    1
   127   128   129    1
   128   128   127    1
   129   129   130    2
