@<TRIPOS>MOLECULE
tmp/2yfsA00.pdb
 185 177 0 0 0
SMALL
GASTEIGER

@<TRIPOS>ATOM
      1  N         56.9200   70.2140   46.2070 N.3    96  TRP96      -0.1227
      2  CA        56.0250   69.1180   45.8080 C.3    96  TRP96       0.1737
      3  C         54.9030   69.5160   44.8500 C.2    96  TRP96       0.2595
      4  O         55.2090   69.9050   43.7260 O.2    96  TRP96      -0.2718
      5  CB        55.5370   68.2860   46.9960 C.3    96  TRP96       0.0564
      6  CG        54.9110   69.0040   48.1410 C.ar   96  TRP96       0.0003
      7  CD1       53.5940   68.9800   48.4860 C.ar   96  TRP96       0.0946
      8  CD2       55.5700   69.8050   49.1310 C.ar   96  TRP96       0.0152
      9  NE1       53.3860   69.7150   49.6270 N.ar   96  TRP96      -0.2442
     10  CE2       54.5770   70.2320   50.0490 C.ar   96  TRP96       0.0810
     11  CE3       56.8990   70.1980   49.3410 C.ar   96  TRP96       0.0012
     12  CZ2       54.8690   71.0390   51.1640 C.ar   96  TRP96       0.0191
     13  CZ3       57.1880   71.0050   50.4640 C.ar   96  TRP96       0.0001
     14  CH2       56.1790   71.4110   51.3540 C.ar   96  TRP96       0.0015
     15  N         53.6350   69.4000   45.2560 N.am   97  ASN97      -0.1974
     16  CA        52.5300   69.6840   44.3470 C.3    97  ASN97       0.1688
     17  C         52.7630   70.9790   43.5760 C.2    97  ASN97       0.2292
     18  O         53.0300   71.9870   44.1670 O.2    97  ASN97      -0.2864
     19  CB        51.2060   69.7870   45.0790 C.3    97  ASN97       0.1181
     20  CG        50.8300   68.5160   45.8020 C.2    97  ASN97       0.2629
     21  OD1       51.6600   67.6310   46.0040 O.2    97  ASN97      -0.2716
     22  ND2       49.5630   68.4290   46.2370 N.am   97  ASN97      -0.0877
     23  N         53.8980   74.0990   45.9920 N.3   121  MET121     -0.1245
     24  CA        54.1000   74.0240   47.4060 C.3   121  MET121      0.1570
     25  C         55.5690   73.7700   47.6970 C.2   121  MET121      0.2261
     26  O         56.1740   72.8850   47.0980 O.2   121  MET121     -0.2867
     27  CB        53.2220   72.9450   47.9950 C.3   121  MET121      0.0387
     28  CG        51.7560   73.3130   47.9750 C.3   121  MET121      0.0595
     29  SD        50.7110   72.0990   48.8140 S.3   121  MET121     -0.1393
     30  CE        51.2130   72.3560   50.5220 C.3   121  MET121      0.0692
     31  N         53.9300   74.7190   54.9620 N.3   130  ASN130     -0.1240
     32  CA        53.1460   74.5640   53.7250 C.3   130  ASN130      0.1653
     33  C         52.6940   75.8880   53.0880 C.2   130  ASN130      0.2266
     34  O         51.6570   76.4640   53.4670 O.2   130  ASN130     -0.2867
     35  CB        51.9270   73.6820   53.9900 C.3   130  ASN130      0.1155
     36  CG        52.3010   72.3620   54.5990 C.2   130  ASN130      0.2627
     37  OD1       53.0900   71.6180   54.0320 O.2   130  ASN130     -0.2716
     38  ND2       51.7530   72.0630   55.7620 N.am  130  ASN130     -0.0877
     39  N         47.6550   75.3130   50.2920 N.3   164  TRP164     -0.1227
     40  CA        47.8530   74.0470   49.6190 C.3   164  TRP164      0.1737
     41  C         47.4240   74.1990   48.1480 C.2   164  TRP164      0.2596
     42  O         47.1070   75.2930   47.6980 O.2   164  TRP164     -0.2718
     43  CB        47.0450   72.9580   50.3080 C.3   164  TRP164      0.0564
     44  CG        47.3990   72.7150   51.7490 C.ar  164  TRP164      0.0003
     45  CD1       48.3120   73.4060   52.5150 C.ar  164  TRP164      0.0946
     46  CD2       46.8190   71.7340   52.6180 C.ar  164  TRP164      0.0152
     47  NE1       48.3530   72.8910   53.7920 N.ar  164  TRP164     -0.2442
     48  CE2       47.4470   71.8680   53.8840 C.ar  164  TRP164      0.0810
     49  CE3       45.8410   70.7500   52.4470 C.ar  164  TRP164      0.0012
     50  CZ2       47.1290   71.0580   54.9660 C.ar  164  TRP164      0.0191
     51  CZ3       45.5190   69.9450   53.5110 C.ar  164  TRP164      0.0001
     52  CH2       46.1700   70.0970   54.7690 C.ar  164  TRP164      0.0015
     53  N         47.3920   73.1020   47.4060 N.am  165  SER165     -0.1952
     54  CA        47.2900   73.1430   45.9420 C.3   165  SER165      0.1924
     55  C         46.0330   73.7500   45.3510 C.2   165  SER165      0.2314
     56  O         44.9720   73.7110   45.9590 O.2   165  SER165     -0.2863
     57  CB        47.4270   71.7400   45.3870 C.3   165  SER165      0.2116
     58  OG        48.5910   71.1730   45.9430 O.3   165  SER165     -0.2180
     59  N         43.2800   70.8590   60.0990 N.3   191  ASN191     -0.1240
     60  CA        43.4620   71.4900   58.7940 C.3   191  ASN191      0.1653
     61  C         42.1330   71.9170   58.1740 C.2   191  ASN191      0.2266
     62  O         41.5950   71.2570   57.2940 O.2   191  ASN191     -0.2867
     63  CB        44.2380   70.5700   57.8460 C.3   191  ASN191      0.1155
     64  CG        45.6550   70.2660   58.3370 C.2   191  ASN191      0.2627
     65  OD1       46.4320   71.1700   58.6800 O.2   191  ASN191     -0.2716
     66  ND2       46.0110   68.9860   58.3280 N.am  191  ASN191     -0.0877
     67  N         38.8980   61.8660   57.5420 N.3   245  ASN245     -0.1240
     68  CA        39.5960   62.7790   56.6720 C.3   245  ASN245      0.1653
     69  C         38.7120   63.9940   56.4470 C.2   245  ASN245      0.2266
     70  O         37.4890   63.8860   56.4270 O.2   245  ASN245     -0.2867
     71  CB        39.9250   62.0820   55.3420 C.3   245  ASN245      0.1155
     72  CG        40.7690   62.9500   54.4090 C.2   245  ASN245      0.2627
     73  OD1       41.8400   63.4320   54.8040 O.2   245  ASN245     -0.2716
     74  ND2       40.2920   63.1570   53.1680 N.am  245  ASN245     -0.0877
     75  N         39.8070   70.9730   48.9450 N.3   249  ARG249     -0.1231
     76  CA        41.0980   71.4020   48.4320 C.3   249  ARG249      0.1694
     77  C         41.3440   71.0500   46.9880 C.2   249  ARG249      0.2592
     78  O         40.4990   70.4370   46.3370 O.2   249  ARG249     -0.2718
     79  CB        42.2170   70.8230   49.2910 C.3   249  ARG249      0.0321
     80  CG        42.2800   69.3050   49.3450 C.3   249  ARG249      0.0489
     81  CD        43.3900   68.8680   50.2430 C.3   249  ARG249      0.2205
     82  NE        43.5750   67.4200   50.2230 N.pl3 249  ARG249     -0.0865
     83  CZ        43.3000   66.6050   51.2330 C.cat 249  ARG249      0.5346
     84  NH1       42.8240   67.0850   52.3690 N.pl3 249  ARG249      0.1354
     85  NH2       43.4980   65.3020   51.1010 N.pl3 249  ARG249      0.1354
     86  N         42.5190   71.4410   46.4930 N.am  250  ASP250     -0.1974
     87  CA        42.9890   71.0580   45.1660 C.3   250  ASP250      0.1709
     88  C         42.0600   71.5110   44.0320 C.2   250  ASP250      0.2293
     89  O         41.6910   70.7050   43.1850 O.2   250  ASP250     -0.2864
     90  CB        43.2520   69.5380   45.0890 C.3   250  ASP250      0.1436
     91  CG        44.3420   69.0700   46.0480 C.2   250  ASP250      0.3671
     92  OD1       45.0090   69.9130   46.6980 O.co2 250  ASP250     -0.2456
     93  OD2       44.5590   67.8420   46.1480 O.co2 250  ASP250     -0.2456
     94  N         40.2980   59.2810   50.3230 N.3   347  GLU347     -0.1245
     95  CA        41.2130   60.2430   49.7140 C.3   347  GLU347      0.1567
     96  C         41.5050   60.0810   48.2220 C.2   347  GLU347      0.2260
     97  O         42.2660   59.2080   47.8130 O.2   347  GLU347     -0.2867
     98  CB        42.5310   60.3120   50.4920 C.3   347  GLU347      0.0388
     99  CG        43.2150   61.6730   50.3370 C.3   347  GLU347      0.1160
    100  CD        44.4630   61.8200   51.1830 C.2   347  GLU347      0.3649
    101  OE1       45.4680   61.1090   50.9010 O.co2 347  GLU347     -0.2457
    102  OE2       44.4360   62.6720   52.1080 O.co2 347  GLU347     -0.2457
    103  N         42.7830   62.8130   45.2320 N.3   349  GLU349     -0.1231
    104  CA        43.4290   64.1150   45.2820 C.3   349  GLU349      0.1699
    105  C         43.7790   64.7130   43.9260 C.2   349  GLU349      0.2592
    106  O         43.7970   64.0450   42.9020 O.2   349  GLU349     -0.2718
    107  CB        44.7180   64.0580   46.1260 C.3   349  GLU349      0.0402
    108  CG        44.8500   62.8940   47.0530 C.3   349  GLU349      0.1161
    109  CD        45.8360   63.1610   48.1460 C.2   349  GLU349      0.3649
    110  OE1       45.4980   63.9760   49.0400 O.co2 349  GLU349     -0.2457
    111  OE2       46.9480   62.5770   48.1200 O.co2 349  GLU349     -0.2457
    112  N         44.0960   65.9920   43.9460 N.am  350  ARG350     -0.1980
    113  CA        44.6030   66.6750   42.7690 C.3   350  ARG350      0.1597
    114  C         43.8680   66.3640   41.4880 C.2   350  ARG350      0.2287
    115  O         44.4720   65.9330   40.5420 O.2   350  ARG350     -0.2864
    116  CB        46.1040   66.4380   42.6140 C.3   350  ARG350      0.0334
    117  CG        46.9040   67.3290   43.5610 C.3   350  ARG350      0.0492
    118  CD        48.2180   67.6990   42.9700 C.3   350  ARG350      0.2205
    119  NE        48.1780   68.8860   42.1220 N.pl3 350  ARG350     -0.0865
    120  CZ        49.2020   69.2670   41.3540 C.cat 350  ARG350      0.5346
    121  NH1       50.3220   68.5470   41.3010 N.pl3 350  ARG350      0.1354
    122  NH2       49.1120   70.3660   40.6330 N.pl3 350  ARG350      0.1354
    123  N         46.3010   57.4820   46.9700 N.3   367  ARG367     -0.1245
    124  CA        47.1230   56.5810   47.7340 C.3   367  ARG367      0.1563
    125  C         46.2220   55.4310   48.1920 C.2   367  ARG367      0.2260
    126  O         45.3010   55.6330   49.0040 O.2   367  ARG367     -0.2867
    127  CB        47.6810   57.2860   48.9650 C.3   367  ARG367      0.0307
    128  CG        48.5250   58.5240   48.7200 C.3   367  ARG367      0.0489
    129  CD        48.9170   59.1310   50.0730 C.3   367  ARG367      0.2205
    130  NE        49.6710   60.3730   49.9540 N.pl3 367  ARG367     -0.0865
    131  CZ        50.9540   60.4570   49.5860 C.cat 367  ARG367      0.5346
    132  NH1       51.6490   59.3610   49.2720 N.pl3 367  ARG367      0.1354
    133  NH2       51.5420   61.6600   49.5110 N.pl3 367  ARG367      0.1354
    134  N         44.8160   54.7400   51.7550 N.3   370  ARG370     -0.1245
    135  CA        43.6930   55.5000   52.3200 C.3   370  ARG370      0.1563
    136  C         42.3870   54.7790   52.0040 C.2   370  ARG370      0.2260
    137  O         41.3100   55.2130   52.3950 O.2   370  ARG370     -0.2867
    138  CB        43.6370   56.9380   51.7750 C.3   370  ARG370      0.0307
    139  CG        44.9910   57.6520   51.6390 C.3   370  ARG370      0.0489
    140  CD        45.6370   57.9790   52.9880 C.3   370  ARG370      0.2205
    141  NE        46.9180   58.7140   52.8480 N.pl3 370  ARG370     -0.0865
    142  CZ        48.0640   58.4070   53.4750 C.cat 370  ARG370      0.5346
    143  NH1       48.1250   57.3870   54.3260 N.pl3 370  ARG370      0.1354
    144  NH2       49.1560   59.1300   53.2600 N.pl3 370  ARG370      0.1354
    145  N         54.8080   61.0440   43.1320 N.3   425  TYR425     -0.1227
    146  CA        53.4090   61.2550   43.4730 C.3   425  TYR425      0.1736
    147  C         52.9110   62.5390   42.8550 C.2   425  TYR425      0.2596
    148  O         53.6620   63.2540   42.1870 O.2   425  TYR425     -0.2718
    149  CB        53.1500   61.2180   44.9840 C.3   425  TYR425      0.0548
    150  CG        51.6670   61.1100   45.3360 C.ar  425  TYR425     -0.0200
    151  CD1       50.8690   60.0980   44.7900 C.ar  425  TYR425     -0.0009
    152  CD2       51.0640   62.0250   46.2120 C.ar  425  TYR425     -0.0009
    153  CE1       49.5060   59.9930   45.0880 C.ar  425  TYR425      0.0417
    154  CE2       49.7020   61.9370   46.5370 C.ar  425  TYR425      0.0417
    155  CZ        48.9250   60.9180   45.9650 C.ar  425  TYR425      0.1957
    156  OH        47.5830   60.8170   46.2740 O.3   425  TYR425     -0.2866
    157  N         51.6120   62.7680   43.0180 N.am  426  SER426     -0.1952
    158  CA        50.9520   64.0070   42.6410 C.3   426  SER426      0.1924
    159  C         50.9840   64.2520   41.1370 C.2   426  SER426      0.2314
    160  O         51.2450   65.3680   40.6690 O.2   426  SER426     -0.2863
    161  CB        51.5660   65.1600   43.4130 C.3   426  SER426      0.2116
    162  OG        50.6880   66.2520   43.4690 O.3   426  SER426     -0.2180
    163  N         55.9790   65.1210   41.1740 N.3   444  TYR444     -0.1241
    164  CA        57.1820   65.3540   41.9020 C.3   444  TYR444      0.1605
    165  C         57.8110   64.0170   42.2110 C.2   444  TYR444      0.2264
    166  O         57.1090   63.0040   42.2770 O.2   444  TYR444     -0.2867
    167  CB        56.9490   66.2120   43.1450 C.3   444  TYR444      0.0534
    168  CG        56.2490   65.5590   44.3120 C.ar  444  TYR444     -0.0201
    169  CD1       56.9640   64.8580   45.2860 C.ar  444  TYR444     -0.0009
    170  CD2       54.8640   65.7230   44.5020 C.ar  444  TYR444     -0.0009
    171  CE1       56.3190   64.3150   46.3710 C.ar  444  TYR444      0.0417
    172  CE2       54.2210   65.1660   45.5820 C.ar  444  TYR444      0.0417
    173  CZ        54.9470   64.4670   46.5020 C.ar  444  TYR444      0.1957
    174  OH        54.2900   63.9250   47.5740 O.3   444  TYR444     -0.2866
    175  N         58.5330   63.6120   50.4840 N.3   448  ARG448     -0.1245
    176  CA        58.8840   64.6430   51.4470 C.3   448  ARG448      0.1563
    177  C         59.5450   64.0440   52.6910 C.2   448  ARG448      0.2260
    178  O         59.5950   62.8300   52.8480 O.2   448  ARG448     -0.2867
    179  CB        57.6250   65.4440   51.8200 C.3   448  ARG448      0.0307
    180  CG        57.0120   66.2220   50.6380 C.3   448  ARG448      0.0489
    181  CD        55.6680   66.8360   51.0160 C.3   448  ARG448      0.2205
    182  NE        55.8490   67.7160   52.1620 N.pl3 448  ARG448     -0.0865
    183  CZ        54.8880   68.1180   52.9910 C.cat 448  ARG448      0.5346
    184  NH1       53.6360   67.7310   52.8200 N.pl3 448  ARG448      0.1354
    185  NH2       55.1920   68.9300   54.0020 N.pl3 448  ARG448      0.1354
@<TRIPOS>BOND
     1   115   114    2
     2   122   120    1
     3   160   159    2
     4   159   158    1
     5   163   164    1
     6   121   120    1
     7   120   119    2
     8   114   113    1
     9   164   165    1
    10   164   167    1
    11   119   118    1
    12   148   147    2
    13   165   166    2
    14   116   113    1
    15   116   117    1
    16   158   157    1
    17   158   161    1
    18   113   112    1
    19   147   157   am
    20   147   146    1
    21   106   105    2
    22   118   117    1
    23   145   146    1
    24   167   168    1
    25    89    88    2
    26   161   162    1
    27   146   149    1
    28    17    18    2
    29    17    16    1
    30     4     3    2
    31   105   112   am
    32   105   104    1
    33    88    87    1
    34   168   170   ar
    35   168   169   ar
    36    16    19    1
    37    16    15    1
    38   170   172   ar
    39   151   153   ar
    40   151   150   ar
    41     3    15   am
    42     3     2    1
    43   149   150    1
    44    19    20    1
    45   153   155   ar
    46    90    87    1
    47    90    91    1
    48    87    86    1
    49   103   104    1
    50   104   107    1
    51   169   171   ar
    52   150   152   ar
    53    55    54    1
    54    55    56    2
    55    57    54    1
    56    57    58    1
    57   172   173   ar
    58    20    21    2
    59    20    22   am
    60     2     1    1
    61     2     5    1
    62    54    53    1
    63   155   156    1
    64   155   154   ar
    65    23    24    1
    66    91    93   ar
    67    91    92   ar
    68   107   108    1
    69   152   154   ar
    70    78    77    2
    71   171   173   ar
    72    86    77   am
    73   173   174    1
    74   123   124    1
    75    77    76    1
    76     5     6    1
    77   108   109    1
    78    26    25    2
    79    24    25    1
    80    24    27    1
    81    53    41   am
    82    42    41    2
    83   124   125    1
    84   124   127    1
    85    97    96    2
    86    28    27    1
    87    28    29    1
    88   111   109   ar
    89     6     7   ar
    90     6     8   ar
    91   109   110   ar
    92    41    40    1
    93   125   126    2
    94    96    95    1
    95    76    75    1
    96    76    79    1
    97     7     9   ar
    98   128   127    1
    99   128   129    1
   100    29    30    1
   101     8    11   ar
   102     8    10   ar
   103   132   131    1
   104    79    80    1
   105    11    13   ar
   106    80    81    1
   107   133   131    1
   108   131   130    2
   109    40    39    1
   110    40    43    1
   111     9    10   ar
   112    95    94    1
   113    95    98    1
   114   130   129    1
   115    10    12   ar
   116    82    81    1
   117    82    83    2
   118    43    44    1
   119    99    98    1
   120    99   100    1
   121    13    14   ar
   122   175   176    1
   123   180   181    1
   124   180   179    1
   125   101   100   ar
   126   181   182    1
   127    85    83    1
   128    12    14   ar
   129   100   102   ar
   130    83    84    1
   131   176   179    1
   132   176   177    1
   133   139   138    1
   134   139   140    1
   135    44    45   ar
   136    44    46   ar
   137   134   135    1
   138   138   135    1
   139   136   135    1
   140   136   137    2
   141   182   183    2
   142    49    46   ar
   143    49    51   ar
   144    45    47   ar
   145    46    48   ar
   146   177   178    2
   147   184   183    1
   148   141   140    1
   149   141   142    2
   150   183   185    1
   151    33    34    2
   152    33    32    1
   153    74    72   am
   154   144   142    1
   155   142   143    1
   156    51    52   ar
   157    32    35    1
   158    32    31    1
   159    47    48   ar
   160    48    50   ar
   161    35    36    1
   162    37    36    2
   163    72    73    2
   164    72    71    1
   165    36    38   am
   166    52    50   ar
   167    71    68    1
   168    70    69    2
   169    69    68    1
   170    68    67    1
   171    62    61    2
   172    63    64    1
   173    63    60    1
   174    61    60    1
   175    66    64   am
   176    64    65    2
   177    60    59    1
