@<TRIPOS>MOLECULE
tmp/2yftA00.pdb
 210 201 0 0 0
SMALL
GASTEIGER

@<TRIPOS>ATOM
      1  N         56.6960   69.8130   45.4860 N.3    96  TRP96      -0.1227
      2  CA        55.8060   68.7180   45.1450 C.3    96  TRP96       0.1737
      3  C         54.6980   69.1820   44.2130 C.2    96  TRP96       0.2595
      4  O         55.0080   69.6950   43.1400 O.2    96  TRP96      -0.2718
      5  CB        55.3420   67.9310   46.3780 C.3    96  TRP96       0.0564
      6  CG        54.6860   68.6890   47.5120 C.ar   96  TRP96       0.0003
      7  CD1       53.3640   68.6620   47.8440 C.ar   96  TRP96       0.0946
      8  CD2       55.3350   69.5080   48.5020 C.ar   96  TRP96       0.0152
      9  NE1       53.1380   69.4400   48.9650 N.ar   96  TRP96      -0.2442
     10  CE2       54.3310   69.9650   49.3870 C.ar   96  TRP96       0.0810
     11  CE3       56.6740   69.8950   48.7260 C.ar   96  TRP96       0.0012
     12  CZ2       54.6120   70.8140   50.4890 C.ar   96  TRP96       0.0191
     13  CZ3       56.9570   70.7370   49.8200 C.ar   96  TRP96       0.0001
     14  CH2       55.9250   71.1890   50.6830 C.ar   96  TRP96       0.0015
     15  N         53.4350   69.0340   44.6090 N.am   97  ASP97      -0.1974
     16  CA        52.3030   69.3350   43.7190 C.3    97  ASP97       0.1709
     17  C         52.4620   70.6780   43.0060 C.2    97  ASP97       0.2293
     18  O         52.5390   71.7290   43.6570 O.2    97  ASP97      -0.2864
     19  CB        51.0040   69.3510   44.5240 C.3    97  ASP97       0.1436
     20  CG        50.6430   67.9890   45.0730 C.2    97  ASP97       0.3671
     21  OD1       51.5450   67.2130   45.4140 O.co2  97  ASP97      -0.2456
     22  OD2       49.4430   67.7040   45.2010 O.co2  97  ASP97      -0.2456
     23  N         53.6280   73.8080   45.3120 N.3   121  MET121     -0.1245
     24  CA        53.8410   73.7240   46.7490 C.3   121  MET121      0.1570
     25  C         55.3040   73.4380   47.0110 C.2   121  MET121      0.2261
     26  O         55.8780   72.5540   46.3740 O.2   121  MET121     -0.2867
     27  CB        52.9890   72.5950   47.3180 C.3   121  MET121      0.0387
     28  CG        51.4770   72.8860   47.2330 C.3   121  MET121      0.0595
     29  SD        50.5190   71.6970   48.1820 S.3   121  MET121     -0.1393
     30  CE        50.9710   72.1310   49.8750 C.3   121  MET121      0.0692
     31  N         53.7490   74.5250   54.2770 N.3   130  ASN130     -0.1240
     32  CA        52.9620   74.2670   53.0720 C.3   130  ASN130      0.1653
     33  C         52.4910   75.5660   52.4430 C.2   130  ASN130      0.2266
     34  O         51.4660   76.1260   52.8540 O.2   130  ASN130     -0.2867
     35  CB        51.7700   73.3700   53.4110 C.3   130  ASN130      0.1155
     36  CG        52.2010   72.0010   53.8900 C.2   130  ASN130      0.2627
     37  OD1       52.8230   71.2410   53.1430 O.2   130  ASN130     -0.2716
     38  ND2       51.9020   71.6860   55.1470 N.am  130  ASN130     -0.0877
     39  N         47.4420   75.0430   49.6980 N.3   164  TRP164     -0.1227
     40  CA        47.6210   73.7710   49.0100 C.3   164  TRP164      0.1737
     41  C         47.1620   73.9020   47.5560 C.2   164  TRP164      0.2596
     42  O         46.8250   74.9970   47.1000 O.2   164  TRP164     -0.2718
     43  CB        46.9020   72.6150   49.7210 C.3   164  TRP164      0.0564
     44  CG        47.2620   72.3460   51.1750 C.ar  164  TRP164      0.0003
     45  CD1       48.1300   73.0450   51.9930 C.ar  164  TRP164      0.0946
     46  CD2       46.6980   71.3190   51.9810 C.ar  164  TRP164      0.0152
     47  NE1       48.1360   72.4890   53.2620 N.ar  164  TRP164     -0.2442
     48  CE2       47.2650   71.4270   53.2730 C.ar  164  TRP164      0.0810
     49  CE3       45.7560   70.3090   51.7350 C.ar  164  TRP164      0.0012
     50  CZ2       46.9300   70.5550   54.3070 C.ar  164  TRP164      0.0191
     51  CZ3       45.4250   69.4410   52.7620 C.ar  164  TRP164      0.0001
     52  CH2       46.0060   69.5710   54.0350 C.ar  164  TRP164      0.0015
     53  N         47.1220   72.7710   46.8560 N.am  165  SER165     -0.1952
     54  CA        47.0570   72.7640   45.3880 C.3   165  SER165      0.1924
     55  C         45.8070   73.3540   44.7360 C.2   165  SER165      0.2314
     56  O         44.7330   73.4150   45.3310 O.2   165  SER165     -0.2863
     57  CB        47.2700   71.3420   44.8740 C.3   165  SER165      0.2116
     58  OG        48.4870   70.8490   45.3840 O.3   165  SER165     -0.2180
     59  N         43.1280   70.4590   59.3870 N.3   191  ASN191     -0.1240
     60  CA        43.3300   71.0310   58.0610 C.3   191  ASN191      0.1653
     61  C         42.0000   71.4770   57.4540 C.2   191  ASN191      0.2266
     62  O         41.4230   70.7930   56.6030 O.2   191  ASN191     -0.2867
     63  CB        44.0490   70.0400   57.1520 C.3   191  ASN191      0.1155
     64  CG        45.4840   69.8010   57.5860 C.2   191  ASN191      0.2627
     65  OD1       46.1860   70.7310   57.9760 O.2   191  ASN191     -0.2716
     66  ND2       45.9200   68.5460   57.5300 N.am  191  ASN191     -0.0877
     67  N         40.0740   73.0750   55.0580 N.3   193  GLN193     -0.1245
     68  CA        40.3720   73.4500   53.6760 C.3   193  GLN193      0.1566
     69  C         39.2080   74.1660   53.0250 C.2   193  GLN193      0.2260
     70  O         38.0540   73.8160   53.2590 O.2   193  GLN193     -0.2867
     71  CB        40.6830   72.2020   52.8610 C.3   193  GLN193      0.0367
     72  CG        41.8680   71.3930   53.3880 C.3   193  GLN193      0.0905
     73  CD        41.6760   69.9190   53.1340 C.2   193  GLN193      0.2608
     74  OE1       41.4890   69.5020   51.9910 O.2   193  GLN193     -0.2717
     75  NE2       41.7120   69.1190   54.2000 N.am  193  GLN193     -0.0878
     76  N         38.5520   61.6060   57.0590 N.3   245  ASN245     -0.1225
     77  CA        39.3650   62.5380   56.2890 C.3   245  ASN245      0.1785
     78  C         38.6010   63.8490   56.0560 C.2   245  ASN245      0.2597
     79  O         37.3670   63.8320   56.0070 O.2   245  ASN245     -0.2718
     80  CB        39.7490   61.8900   54.9600 C.3   245  ASN245      0.1169
     81  CG        40.9680   62.5310   54.3250 C.2   245  ASN245      0.2627
     82  OD1       41.7800   63.1700   55.0040 O.2   245  ASN245     -0.2716
     83  ND2       41.1050   62.3650   53.0070 N.am  245  ASN245     -0.0877
     84  N         39.3180   64.9760   55.9760 N.am  246  ILE246     -0.1980
     85  CA        38.7410   66.2610   55.5420 C.3   246  ILE246      0.1595
     86  C         39.2740   66.5670   54.1550 C.2   246  ILE246      0.2287
     87  O         40.4930   66.5090   53.9360 O.2   246  ILE246     -0.2864
     88  CB        39.1960   67.4890   56.3950 C.3   246  ILE246      0.0276
     89  CG1       39.1750   67.2150   57.8850 C.3   246  ILE246      0.0022
     90  CG2       38.3500   68.7350   56.0590 C.3   246  ILE246      0.0022
     91  CD1       39.7570   68.3800   58.7150 C.3   246  ILE246      0.0001
     92  N         39.6610   70.6330   48.3230 N.3   249  ARG249     -0.1231
     93  CA        40.9630   71.0830   47.8310 C.3   249  ARG249      0.1694
     94  C         41.2060   70.7590   46.3660 C.2   249  ARG249      0.2592
     95  O         40.3610   70.1370   45.7100 O.2   249  ARG249     -0.2718
     96  CB        42.0870   70.4790   48.6990 C.3   249  ARG249      0.0321
     97  CG        42.2260   68.9410   48.6640 C.3   249  ARG249      0.0489
     98  CD        43.5030   68.5640   49.4300 C.3   249  ARG249      0.2205
     99  NE        43.7490   67.1220   49.5160 N.pl3 249  ARG249     -0.0865
    100  CZ        43.3240   66.3340   50.5020 C.cat 249  ARG249      0.5346
    101  NH1       42.5810   66.8210   51.4900 N.pl3 249  ARG249      0.1354
    102  NH2       43.6360   65.0450   50.4980 N.pl3 249  ARG249      0.1354
    103  N         42.3640   71.2050   45.8590 N.am  250  ASP250     -0.1974
    104  CA        42.8550   70.8010   44.5350 C.3   250  ASP250      0.1709
    105  C         41.9090   71.2410   43.4060 C.2   250  ASP250      0.2293
    106  O         41.6200   70.4610   42.4950 O.2   250  ASP250     -0.2864
    107  CB        43.0930   69.2770   44.4750 C.3   250  ASP250      0.1436
    108  CG        44.1590   68.7960   45.4620 C.2   250  ASP250      0.3671
    109  OD1       44.6460   69.6150   46.2710 O.co2 250  ASP250     -0.2456
    110  OD2       44.4980   67.5860   45.4310 O.co2 250  ASP250     -0.2456
    111  N         40.1230   59.1030   49.9770 N.3   347  GLU347     -0.1245
    112  CA        41.0500   60.0650   49.3630 C.3   347  GLU347      0.1567
    113  C         41.3350   59.8480   47.8730 C.2   347  GLU347      0.2260
    114  O         41.9870   58.8720   47.4890 O.2   347  GLU347     -0.2867
    115  CB        42.3700   60.1100   50.1430 C.3   347  GLU347      0.0388
    116  CG        43.1390   61.4030   49.9560 C.3   347  GLU347      0.1160
    117  CD        44.3100   61.4930   50.9030 C.2   347  GLU347      0.3649
    118  OE1       45.3260   60.8190   50.6460 O.co2 347  GLU347     -0.2457
    119  OE2       44.2000   62.2270   51.9060 O.co2 347  GLU347     -0.2457
    120  N         42.7260   62.4890   44.7840 N.3   349  GLU349     -0.1231
    121  CA        43.3740   63.8090   44.8110 C.3   349  GLU349      0.1699
    122  C         43.6900   64.3650   43.4360 C.2   349  GLU349      0.2592
    123  O         43.6710   63.6420   42.4470 O.2   349  GLU349     -0.2718
    124  CB        44.6700   63.7360   45.6320 C.3   349  GLU349      0.0402
    125  CG        44.4550   63.0550   46.9820 C.3   349  GLU349      0.1161
    126  CD        45.6860   62.9860   47.8440 C.2   349  GLU349      0.3649
    127  OE1       46.6490   62.2790   47.4740 O.co2 349  GLU349     -0.2457
    128  OE2       45.6590   63.6150   48.9250 O.co2 349  GLU349     -0.2457
    129  N         44.0040   65.6590   43.3950 N.am  350  ARG350     -0.1980
    130  CA        44.5060   66.3150   42.1790 C.3   350  ARG350      0.1597
    131  C         43.6930   66.0120   40.9200 C.2   350  ARG350      0.2287
    132  O         44.2600   65.6120   39.8900 O.2   350  ARG350     -0.2864
    133  CB        45.9840   65.9580   41.9470 C.3   350  ARG350      0.0334
    134  CG        46.9190   66.5520   43.0210 C.3   350  ARG350      0.0492
    135  CD        48.2060   67.0690   42.3810 C.3   350  ARG350      0.2205
    136  NE        48.0320   68.3250   41.6720 N.pl3 350  ARG350     -0.0865
    137  CZ        48.8770   68.8130   40.7690 C.cat 350  ARG350      0.5346
    138  NH1       49.9860   68.1510   40.4000 N.pl3 350  ARG350      0.1354
    139  NH2       48.5890   69.9620   40.1990 N.pl3 350  ARG350      0.1354
    140  N         46.3120   57.2360   46.5700 N.3   367  ARG367     -0.1245
    141  CA        47.1590   56.2750   47.2410 C.3   367  ARG367      0.1563
    142  C         46.2060   55.1740   47.7070 C.2   367  ARG367      0.2260
    143  O         45.2890   55.4300   48.4890 O.2   367  ARG367     -0.2867
    144  CB        47.9190   56.9320   48.4070 C.3   367  ARG367      0.0307
    145  CG        48.9830   57.9820   47.9530 C.3   367  ARG367      0.0489
    146  CD        49.8690   58.4450   49.1260 C.3   367  ARG367      0.2205
    147  NE        50.8310   59.4910   48.7350 N.pl3 367  ARG367     -0.0865
    148  CZ        52.0520   59.2780   48.2400 C.cat 367  ARG367      0.5346
    149  NH1       52.5240   58.0450   48.0580 N.pl3 367  ARG367      0.1354
    150  NH2       52.8260   60.3180   47.9340 N.pl3 367  ARG367      0.1354
    151  N         44.7520   54.3880   51.2010 N.3   370  ARG370     -0.1245
    152  CA        43.6330   55.1480   51.7660 C.3   370  ARG370      0.1563
    153  C         42.3030   54.4400   51.4740 C.2   370  ARG370      0.2260
    154  O         41.2200   54.9330   51.8390 O.2   370  ARG370     -0.2867
    155  CB        43.5960   56.5710   51.2010 C.3   370  ARG370      0.0307
    156  CG        44.9370   57.3130   51.2050 C.3   370  ARG370      0.0489
    157  CD        45.5250   57.4700   52.5910 C.3   370  ARG370      0.2205
    158  NE        46.4130   58.6350   52.6380 N.pl3 370  ARG370     -0.0865
    159  CZ        47.7410   58.5860   52.5680 C.cat 370  ARG370      0.5346
    160  NH1       48.3730   57.4260   52.4770 N.pl3 370  ARG370      0.1354
    161  NH2       48.4420   59.7130   52.6120 N.pl3 370  ARG370      0.1354
    162  N         54.5060   60.7470   42.5510 N.3   425  TYR425     -0.1227
    163  CA        53.1120   60.9600   42.9220 C.3   425  TYR425      0.1736
    164  C         52.6150   62.2560   42.2800 C.2   425  TYR425      0.2596
    165  O         53.3800   62.9470   41.6030 O.2   425  TYR425     -0.2718
    166  CB        52.9270   60.9790   44.4610 C.3   425  TYR425      0.0548
    167  CG        51.4580   60.8740   44.8410 C.ar  425  TYR425     -0.0200
    168  CD1       50.6890   59.7970   44.3870 C.ar  425  TYR425     -0.0009
    169  CD2       50.8320   61.8610   45.5990 C.ar  425  TYR425     -0.0009
    170  CE1       49.3350   59.6900   44.6930 C.ar  425  TYR425      0.0417
    171  CE2       49.4600   61.7700   45.8990 C.ar  425  TYR425      0.0417
    172  CZ        48.7370   60.6650   45.4550 C.ar  425  TYR425      0.1957
    173  OH        47.3970   60.5250   45.7260 O.3   425  TYR425     -0.2866
    174  N         51.3290   62.5470   42.4770 N.am  426  SER426     -0.1952
    175  CA        50.7280   63.8070   42.0330 C.3   426  SER426      0.1924
    176  C         50.7440   63.9560   40.5000 C.2   426  SER426      0.2314
    177  O         50.9980   65.0470   39.9790 O.2   426  SER426     -0.2863
    178  CB        51.4110   64.9850   42.7480 C.3   426  SER426      0.2116
    179  OG        50.7880   66.2250   42.4860 O.3   426  SER426     -0.2180
    180  N         55.7020   64.7950   40.5360 N.3   444  TYR444     -0.1241
    181  CA        56.9310   64.9430   41.2790 C.3   444  TYR444      0.1605
    182  C         57.5390   63.5900   41.5660 C.2   444  TYR444      0.2264
    183  O         56.8360   62.5700   41.6470 O.2   444  TYR444     -0.2867
    184  CB        56.7750   65.7930   42.5370 C.3   444  TYR444      0.0534
    185  CG        56.0620   65.1930   43.7150 C.ar  444  TYR444     -0.0201
    186  CD1       56.7650   64.5040   44.7180 C.ar  444  TYR444     -0.0009
    187  CD2       54.6950   65.3790   43.8810 C.ar  444  TYR444     -0.0009
    188  CE1       56.1010   63.9920   45.8340 C.ar  444  TYR444      0.0417
    189  CE2       54.0190   64.8590   44.9970 C.ar  444  TYR444      0.0417
    190  CZ        54.7280   64.1840   45.9630 C.ar  444  TYR444      0.1957
    191  OH        54.0570   63.7020   47.0660 O.3   444  TYR444     -0.2866
    192  N         59.6270   61.0310   47.2130 N.3   447  ASN447     -0.1225
    193  CA        58.6470   61.4270   48.2190 C.3   447  ASN447      0.1785
    194  C         59.2170   62.4160   49.2270 C.2   447  ASN447      0.2597
    195  O         60.4230   62.4650   49.4580 O.2   447  ASN447     -0.2718
    196  CB        58.0270   60.2000   48.9040 C.3   447  ASN447      0.1169
    197  CG        56.8660   59.6330   48.0960 C.2   447  ASN447      0.2627
    198  OD1       55.8560   60.3190   47.8840 O.2   447  ASN447     -0.2716
    199  ND2       57.0080   58.4000   47.6250 N.am  447  ASN447     -0.0877
    200  N         58.3240   63.1970   49.8310 N.am  448  ARG448     -0.1979
    201  CA        58.7150   64.2600   50.7490 C.3   448  ARG448      0.1597
    202  C         59.3400   63.7230   52.0330 C.2   448  ARG448      0.2287
    203  O         59.2000   62.5350   52.3760 O.2   448  ARG448     -0.2864
    204  CB        57.4850   65.1130   51.1030 C.3   448  ARG448      0.0334
    205  CG        56.8940   65.8570   49.8980 C.3   448  ARG448      0.0492
    206  CD        55.5080   66.4230   50.2520 C.3   448  ARG448      0.2205
    207  NE        55.6170   67.3220   51.3970 N.pl3 448  ARG448     -0.0865
    208  CZ        54.6010   67.7170   52.1630 C.cat 448  ARG448      0.5346
    209  NH1       53.3740   67.3010   51.9160 N.pl3 448  ARG448      0.1354
    210  NH2       54.8270   68.5320   53.1780 N.pl3 448  ARG448      0.1354
@<TRIPOS>BOND
     1   132   131    2
     2   177   176    2
     3   139   137    1
     4   138   137    1
     5   176   175    1
     6   180   181    1
     7   137   136    2
     8   131   130    1
     9   181   182    1
    10   181   184    1
    11   182   183    2
    12   165   164    2
    13   136   135    1
    14   133   130    1
    15   133   134    1
    16   175   174    1
    17   175   178    1
    18   130   129    1
    19   164   174   am
    20   164   163    1
    21   135   134    1
    22   123   122    2
    23   179   178    1
    24   106   105    2
    25   184   185    1
    26   162   163    1
    27   163   166    1
    28    17    18    2
    29    17    16    1
    30     4     3    2
    31   129   122   am
    32   105   104    1
    33   122   121    1
    34   185   187   ar
    35   185   186   ar
    36    16    19    1
    37    16    15    1
    38   187   189   ar
    39     3    15   am
    40     3     2    1
    41   168   170   ar
    42   168   167   ar
    43   166   167    1
    44   107   104    1
    45   107   108    1
    46    19    20    1
    47   104   103    1
    48   170   172   ar
    49   186   188   ar
    50    55    56    2
    51    55    54    1
    52   120   121    1
    53   121   124    1
    54   167   169   ar
    55    57    58    1
    56    57    54    1
    57   189   190   ar
    58    20    22   ar
    59    20    21   ar
    60     2     1    1
    61     2     5    1
    62    23    24    1
    63    54    53    1
    64   110   108   ar
    65   172   173    1
    66   172   171   ar
    67   108   109   ar
    68   169   171   ar
    69   124   125    1
    70    95    94    2
    71   188   190   ar
    72   103    94   am
    73   190   191    1
    74    94    93    1
    75    26    25    2
    76     5     6    1
    77   140   141    1
    78    24    25    1
    79    24    27    1
    80    53    41   am
    81   125   126    1
    82    42    41    2
    83   192   193    1
    84    28    27    1
    85    28    29    1
    86   141   142    1
    87   141   144    1
    88   127   126   ar
    89   114   113    2
    90     6     7   ar
    91     6     8   ar
    92    41    40    1
    93   199   197   am
    94   142   143    2
    95    93    92    1
    96    93    96    1
    97   126   128   ar
    98     7     9   ar
    99   113   112    1
   100   198   197    2
   101   150   148    1
   102   145   144    1
   103   145   146    1
   104   149   148    1
   105   197   196    1
   106    29    30    1
   107   193   196    1
   108   193   194    1
   109   148   147    2
   110     8    11   ar
   111     8    10   ar
   112    97    96    1
   113    97    98    1
   114    11    13   ar
   115   147   146    1
   116     9    10   ar
   117    40    39    1
   118    40    43    1
   119   194   195    2
   120   194   200   am
   121   112   111    1
   122   112   115    1
   123    10    12   ar
   124    98    99    1
   125    99   100    2
   126    43    44    1
   127    13    14   ar
   128   200   201    1
   129   205   206    1
   130   205   204    1
   131   116   115    1
   132   116   117    1
   133   206   207    1
   134    12    14   ar
   135   102   100    1
   136   100   101    1
   137   118   117   ar
   138   201   204    1
   139   201   202    1
   140   117   119   ar
   141    44    46   ar
   142    44    45   ar
   143   151   152    1
   144   155   156    1
   145   155   152    1
   146   156   157    1
   147   207   208    2
   148   153   152    1
   149   153   154    2
   150    49    46   ar
   151    49    51   ar
   152   209   208    1
   153    46    48   ar
   154    74    73    2
   155    45    47   ar
   156   202   203    2
   157   208   210    1
   158    33    34    2
   159    33    32    1
   160   160   159    1
   161   159   161    1
   162   159   158    2
   163   157   158    1
   164    51    52   ar
   165    71    72    1
   166    71    68    1
   167    83    81   am
   168    69    70    2
   169    69    68    1
   170    32    35    1
   171    32    31    1
   172    73    72    1
   173    73    75   am
   174    37    36    2
   175    47    48   ar
   176    48    50   ar
   177    35    36    1
   178    68    67    1
   179    36    38   am
   180    87    86    2
   181    52    50   ar
   182    86    85    1
   183    81    80    1
   184    81    82    2
   185    80    77    1
   186    85    84    1
   187    85    88    1
   188    84    78   am
   189    79    78    2
   190    78    77    1
   191    90    88    1
   192    77    76    1
   193    88    89    1
   194    62    61    2
   195    63    64    1
   196    63    60    1
   197    61    60    1
   198    66    64   am
   199    64    65    2
   200    89    91    1
   201    60    59    1
