@<TRIPOS>MOLECULE
tmp/2yfyA00.pdb
 195 186 0 0 0
SMALL
GASTEIGER

@<TRIPOS>ATOM
      1  N          1.1260   15.5310   94.7750 N.3   252  LYS252     -0.1245
      2  CA         0.2820   15.0400   93.6850 C.3   252  LYS252      0.1561
      3  C          0.8990   15.2710   92.3070 C.2   252  LYS252      0.2260
      4  O          0.9750   14.3510   91.4950 O.2   252  LYS252     -0.2867
      5  CB        -1.1160   15.6700   93.7330 C.3   252  LYS252      0.0271
      6  CG        -2.0670   15.0740   94.7680 C.3   252  LYS252      0.0035
      7  CD        -2.1660   15.9570   96.0020 C.3   252  LYS252      0.0206
      8  CE        -3.4380   15.6880   96.7940 C.3   252  LYS252      0.1093
      9  NZ        -4.6570   16.0600   96.0130 N.3   252  LYS252     -0.1314
     10  N          3.7180   12.9420   91.3160 N.3   255  GLU255     -0.1231
     11  CA         3.2270   11.6300   90.8960 C.3   255  GLU255      0.1699
     12  C          2.5380   11.7370   89.5420 C.2   255  GLU255      0.2592
     13  O          2.5030   10.7760   88.7720 O.2   255  GLU255     -0.2718
     14  CB         2.2610   11.0330   91.9300 C.3   255  GLU255      0.0402
     15  CG         0.8100   11.4980   91.7850 C.3   255  GLU255      0.1161
     16  CD        -0.1460   10.7890   92.7320 C.2   255  GLU255      0.3649
     17  OE1        0.2460    9.7510   93.3040 O.co2 255  GLU255     -0.2457
     18  OE2       -1.2900   11.2680   92.9020 O.co2 255  GLU255     -0.2457
     19  N          1.9910   12.9130   89.2580 N.am  256  PHE256     -0.1976
     20  CA         1.3330   13.1420   87.9860 C.3   256  PHE256      0.1639
     21  C          2.3460   13.0200   86.8470 C.2   256  PHE256      0.2290
     22  O          2.2070   12.1640   85.9750 O.2   256  PHE256     -0.2864
     23  CB         0.6410   14.5050   87.9760 C.3   256  PHE256      0.0560
     24  CG         0.1280   14.9100   86.6280 C.ar  256  PHE256     -0.0200
     25  CD1        0.9420   15.6050   85.7500 C.ar  256  PHE256     -0.0042
     26  CD2       -1.1600   14.5870   86.2310 C.ar  256  PHE256     -0.0042
     27  CE1        0.4830   15.9770   84.5000 C.ar  256  PHE256     -0.0003
     28  CE2       -1.6280   14.9590   84.9790 C.ar  256  PHE256     -0.0003
     29  CZ        -0.8030   15.6550   84.1130 C.ar  256  PHE256     -0.0000
     30  N          3.6030    9.4680   86.5920 N.3   259  GLN259     -0.1231
     31  CA         2.7350    8.6050   85.7960 C.3   259  GLN259      0.1698
     32  C          2.7550    9.0240   84.3330 C.2   259  GLN259      0.2592
     33  O          2.8340    8.1820   83.4400 O.2   259  GLN259     -0.2718
     34  CB         1.2970    8.6280   86.3250 C.3   259  GLN259      0.0381
     35  CG         0.9870    7.5590   87.3690 C.3   259  GLN259      0.0905
     36  CD         1.1130    6.1450   86.8190 C.2   259  GLN259      0.2608
     37  OE1        0.8960    5.9070   85.6310 O.2   259  GLN259     -0.2717
     38  NE2        1.4760    5.2020   87.6840 N.am  259  GLN259     -0.0878
     39  N          2.6880   10.3300   84.0970 N.am  260  LEU260     -0.1980
     40  CA         2.6600   10.8650   82.7430 C.3   260  LEU260      0.1596
     41  C          3.8330   10.3300   81.9310 C.2   260  LEU260      0.2287
     42  O          3.7020   10.0640   80.7360 O.2   260  LEU260     -0.2864
     43  CB         2.6830   12.3950   82.7690 C.3   260  LEU260      0.0297
     44  CG         2.1800   13.1010   81.5080 C.3   260  LEU260      0.0022
     45  CD1        0.7820   12.6190   81.1500 C.3   260  LEU260      0.0001
     46  CD2        2.2000   14.6120   81.6900 C.3   260  LEU260      0.0001
     47  N          2.8410    6.7480   80.8350 N.3   263  VAL263     -0.1231
     48  CA         1.8230    6.8500   79.7920 C.3   263  VAL263      0.1692
     49  C          2.4630    7.2180   78.4600 C.2   263  VAL263      0.2591
     50  O          2.2550    6.5430   77.4530 O.2   263  VAL263     -0.2718
     51  CB         0.7560    7.9070   80.1290 C.3   263  VAL263      0.0266
     52  CG1       -0.5470    7.5860   79.4110 C.3   263  VAL263      0.0020
     53  CG2        0.5340    7.9780   81.6280 C.3   263  VAL263      0.0020
     54  N          3.2500    8.2900   78.4680 N.am  264  ILE264     -0.1980
     55  CA         3.9690    8.7360   77.2800 C.3   264  ILE264      0.1595
     56  C          4.7310    7.5880   76.6220 C.2   264  ILE264      0.2287
     57  O          4.5330    7.3010   75.4420 O.2   264  ILE264     -0.2864
     58  CB         4.9480    9.8840   77.6110 C.3   264  ILE264      0.0276
     59  CG1        4.1870   11.1990   77.7880 C.3   264  ILE264      0.0022
     60  CG2        5.9940   10.0220   76.5230 C.3   264  ILE264      0.0022
     61  CD1        5.0780   12.4080   77.9560 C.3   264  ILE264      0.0001
     62  N          4.3570    4.4600   77.0430 N.3   266  LEU266     -0.1231
     63  CA         3.3930    3.4520   76.6210 C.3   266  LEU266      0.1693
     64  C          2.7870    3.7870   75.2630 C.2   266  LEU266      0.2591
     65  O          2.5880    2.9010   74.4320 O.2   266  LEU266     -0.2718
     66  CB         2.2830    3.2910   77.6600 C.3   266  LEU266      0.0284
     67  CG         2.7390    2.8810   79.0600 C.3   266  LEU266      0.0019
     68  CD1        1.5420    2.6150   79.9620 C.3   266  LEU266      0.0001
     69  CD2        3.6420    1.6620   78.9880 C.3   266  LEU266      0.0001
     70  N          2.4890    5.0640   75.0400 N.am  267  ILE267     -0.1980
     71  CA         1.8740    5.4800   73.7840 C.3   267  ILE267      0.1595
     72  C          2.7780    5.1290   72.6120 C.2   267  ILE267      0.2287
     73  O          2.3320    4.5620   71.6140 O.2   267  ILE267     -0.2864
     74  CB         1.5600    6.9900   73.7610 C.3   267  ILE267      0.0276
     75  CG1        0.8740    7.4110   75.0620 C.3   267  ILE267      0.0022
     76  CG2        0.6980    7.3350   72.5520 C.3   267  ILE267      0.0022
     77  CD1       -0.4320    8.1440   74.8590 C.3   267  ILE267      0.0001
     78  N          2.6680    1.4270   71.9020 N.3   270  ALA270     -0.1245
     79  CA         1.4450    1.1220   71.1590 C.3   270  ALA270      0.1562
     80  C          1.4970    1.6650   69.7330 C.2   270  ALA270      0.2260
     81  O          1.2790    0.9300   68.7690 O.2   270  ALA270     -0.2867
     82  CB         0.2260    1.6670   71.8960 C.3   270  ALA270      0.0290
     83  N          0.7150   16.4430   76.1640 N.3   306  ALA306     -0.1245
     84  CA         0.5270   15.7170   77.4130 C.3   306  ALA306      0.1562
     85  C          0.6680   16.6390   78.6180 C.2   306  ALA306      0.2260
     86  O         -0.1070   16.5580   79.5700 O.2   306  ALA306     -0.2867
     87  CB         1.5230   14.5700   77.5100 C.3   306  ALA306      0.0290
     88  N         -5.8560   19.7800   82.7170 N.3   765  ILE765     -0.1231
     89  CA        -5.4750   18.3870   82.5300 C.3   765  ILE765      0.1692
     90  C         -6.3260   17.7510   81.4360 C.2   765  ILE765      0.2592
     91  O         -5.8090   17.0630   80.5580 O.2   765  ILE765     -0.2718
     92  CB        -5.6430   17.5770   83.8300 C.3   765  ILE765      0.0266
     93  CG1       -4.8300   18.2010   84.9650 C.3   765  ILE765      0.0019
     94  CG2       -5.2230   16.1310   83.6160 C.3   765  ILE765      0.0020
     95  CD1       -3.3390   18.1490   84.7420 C.3   765  ILE765      0.0001
     96  N         -7.6330   17.9900   81.4920 N.am  766  SER766     -0.1952
     97  CA        -8.5600   17.4070   80.5290 C.3   766  SER766      0.1924
     98  C         -8.1840   17.7940   79.1060 C.2   766  SER766      0.2314
     99  O         -8.0840   16.9340   78.2330 O.2   766  SER766     -0.2863
    100  CB        -9.9990   17.8290   80.8330 C.3   766  SER766      0.2116
    101  OG       -10.2020   19.1990   80.5310 O.3   766  SER766     -0.2180
    102  N         -5.3290   18.6540   77.9880 N.3   768  ASN768     -0.1225
    103  CA        -4.1420   17.8710   77.6770 C.3   768  ASN768      0.1785
    104  C         -4.5360   16.4720   77.2290 C.2   768  ASN768      0.2597
    105  O         -4.2010   16.0490   76.1240 O.2   768  ASN768     -0.2718
    106  CB        -3.1920   17.8160   78.8740 C.3   768  ASN768      0.1169
    107  CG        -2.5540   19.1600   79.1670 C.2   768  ASN768      0.2627
    108  OD1       -2.9360   19.8540   80.1090 O.2   768  ASN768     -0.2716
    109  ND2       -1.5910   19.5470   78.3400 N.am  768  ASN768     -0.0877
    110  N         -5.2700   15.7660   78.0830 N.am  769  VAL769     -0.1980
    111  CA        -5.7280   14.4200   77.7620 C.3   769  VAL769      0.1595
    112  C         -6.2820   14.3560   76.3370 C.2   769  VAL769      0.2287
    113  O         -5.8410   13.5360   75.5320 O.2   769  VAL769     -0.2864
    114  CB        -6.7840   13.9240   78.7750 C.3   769  VAL769      0.0276
    115  CG1       -7.2050   12.4980   78.4540 C.3   769  VAL769      0.0022
    116  CG2       -6.2350   14.0040   80.1910 C.3   769  VAL769      0.0022
    117  N         -3.6250   14.6900   73.6630 N.3   772  VAL772     -0.1231
    118  CA        -2.8260   13.4830   73.5150 C.3   772  VAL772      0.1692
    119  C         -3.5500   12.4930   72.6020 C.2   772  VAL772      0.2591
    120  O         -2.9400   11.8920   71.7170 O.2   772  VAL772     -0.2718
    121  CB        -2.5250   12.8230   74.8790 C.3   772  VAL772      0.0266
    122  CG1       -1.7820   11.5130   74.6820 C.3   772  VAL772      0.0020
    123  CG2       -1.7060   13.7570   75.7570 C.3   772  VAL772      0.0020
    124  N         -4.8560   12.3400   72.8100 N.am  773  VAL773     -0.1980
    125  CA        -5.6560   11.3960   72.0290 C.3   773  VAL773      0.1595
    126  C         -5.6170   11.7120   70.5360 C.2   773  VAL773      0.2287
    127  O         -5.3170   10.8470   69.7120 O.2   773  VAL773     -0.2864
    128  CB        -7.1280   11.3760   72.4880 C.3   773  VAL773      0.0276
    129  CG1       -7.8680   10.2170   71.8350 C.3   773  VAL773      0.0022
    130  CG2       -7.2090   11.2730   73.9990 C.3   773  VAL773      0.0022
    131  N         -2.3640   10.8040   69.1610 N.3   776  PHE776     -0.1241
    132  CA        -2.2650    9.3580   69.0800 C.3   776  PHE776      0.1605
    133  C         -3.0550    8.7980   67.9010 C.2   776  PHE776      0.2264
    134  O         -2.5500    7.9660   67.1470 O.2   776  PHE776     -0.2867
    135  CB        -2.7480    8.7270   70.3800 C.3   776  PHE776      0.0534
    136  CG        -2.8730    7.2420   70.3060 C.ar  776  PHE776     -0.0203
    137  CD1       -1.7660    6.4620   70.0300 C.ar  776  PHE776     -0.0042
    138  CD2       -4.0930    6.6240   70.5070 C.ar  776  PHE776     -0.0042
    139  CE1       -1.8690    5.0900   69.9550 C.ar  776  PHE776     -0.0003
    140  CE2       -4.2060    5.2490   70.4360 C.ar  776  PHE776     -0.0003
    141  CZ        -3.0910    4.4800   70.1600 C.ar  776  PHE776     -0.0000
    142  N         -7.2800   12.5060   95.7610 N.3   827  PRO827     -0.2102
    143  CA        -6.7920   12.8740   94.4280 C.3   827  PRO827      0.1504
    144  C         -7.7380   13.8420   93.7180 C.2   827  PRO827      0.2576
    145  O         -8.9280   13.8860   94.0390 O.2   827  PRO827     -0.2718
    146  CB        -6.7640   11.5320   93.6950 C.3   827  PRO827      0.0282
    147  CG        -7.8560   10.7390   94.3370 C.3   827  PRO827      0.0208
    148  CD        -7.8540   11.1490   95.7880 C.3   827  PRO827      0.0893
    149  N         -7.2130   14.6030   92.7610 N.am  828  LEU828     -0.1966
    150  CA        -8.0410   15.5310   91.9960 C.3   828  LEU828      0.1728
    151  C         -9.0300   14.7860   91.1120 C.2   828  LEU828      0.2616
    152  O        -10.1980   15.1560   91.0310 O.2   828  LEU828     -0.2715
    153  CB        -7.1830   16.4630   91.1350 C.3   828  LEU828      0.0311
    154  CG        -6.2560   17.4370   91.8640 C.3   828  LEU828      0.0022
    155  CD1       -6.8450   17.8130   93.2170 C.3   828  LEU828      0.0001
    156  CD2       -4.8710   16.8370   92.0300 C.3   828  LEU828      0.0001
    157  N         -8.5560   13.7330   90.4530 N.am  829  ILE829     -0.1977
    158  CA        -9.3830   12.9990   89.5040 C.3   829  ILE829      0.1596
    159  C         -9.3350   11.4880   89.7350 C.2   829  ILE829      0.2287
    160  O         -8.2840   10.8600   89.6010 O.2   829  ILE829     -0.2864
    161  CB        -8.9770   13.3130   88.0540 C.3   829  ILE829      0.0276
    162  CG1       -9.0310   14.8200   87.8040 C.3   829  ILE829      0.0022
    163  CG2       -9.8840   12.5940   87.0880 C.3   829  ILE829      0.0022
    164  CD1       -8.7160   15.2040   86.3820 C.3   829  ILE829      0.0001
    165  N        -12.6140   10.6470   86.5990 N.3   834  PHE834     -0.1241
    166  CA       -11.5490   10.1730   85.7240 C.3   834  PHE834      0.1605
    167  C        -12.1360    9.6200   84.4380 C.2   834  PHE834      0.2264
    168  O        -11.6690    9.9300   83.3400 O.2   834  PHE834     -0.2867
    169  CB       -10.7050    9.1050   86.4210 C.3   834  PHE834      0.0534
    170  CG        -9.7350    8.4100   85.5090 C.ar  834  PHE834     -0.0203
    171  CD1       -8.8490    9.1360   84.7270 C.ar  834  PHE834     -0.0042
    172  CD2       -9.7070    7.0280   85.4350 C.ar  834  PHE834     -0.0042
    173  CE1       -7.9560    8.4940   83.8840 C.ar  834  PHE834     -0.0003
    174  CE2       -8.8180    6.3810   84.5980 C.ar  834  PHE834     -0.0003
    175  CZ        -7.9410    7.1140   83.8210 C.ar  834  PHE834     -0.0000
    176  N        -13.4840   12.6260   82.2180 N.3   837  TYR837     -0.1227
    177  CA       -12.4200   13.2640   81.4550 C.3   837  TYR837      0.1736
    178  C        -11.7550   12.2860   80.4980 C.2   837  TYR837      0.2595
    179  O        -11.1020   12.6920   79.5370 O.2   837  TYR837     -0.2718
    180  CB       -11.3920   13.8840   82.3940 C.3   837  TYR837      0.0548
    181  CG       -11.8790   15.1570   83.0430 C.ar  837  TYR837     -0.0200
    182  CD1      -12.7970   15.9840   82.4020 C.ar  837  TYR837     -0.0009
    183  CD2      -11.4300   15.5300   84.2960 C.ar  837  TYR837     -0.0009
    184  CE1      -13.2450   17.1500   82.9970 C.ar  837  TYR837      0.0417
    185  CE2      -11.8720   16.6920   84.8970 C.ar  837  TYR837      0.0417
    186  CZ       -12.7790   17.4980   84.2440 C.ar  837  TYR837      0.1957
    187  OH       -13.2270   18.6580   84.8330 O.3   837  TYR837     -0.2866
    188  N        -11.9260   10.9970   80.7690 N.am  838  MET838     -0.1979
    189  CA       -11.4610    9.9520   79.8670 C.3   838  MET838      0.1605
    190  C        -12.3040    9.9840   78.5990 C.2   838  MET838      0.2287
    191  O        -11.7790   10.0030   77.4820 O.2   838  MET838     -0.2864
    192  CB       -11.5750    8.5840   80.5420 C.3   838  MET838      0.0413
    193  CG       -11.2230    7.4060   79.6520 C.3   838  MET838      0.0598
    194  SD        -9.6050    6.7050   80.0320 S.3   838  MET838     -0.1393
    195  CE        -8.5140    8.0280   79.5140 C.3   838  MET838      0.0692
@<TRIPOS>BOND
     1   134   133    2
     2   133   132    1
     3    81    80    2
     4   132   131    1
     5   132   135    1
     6   127   126    2
     7    80    79    1
     8   139   137   ar
     9   139   141   ar
    10   137   136   ar
    11   141   140   ar
    12   136   135    1
    13   136   138   ar
    14   140   138   ar
    15   126   125    1
    16    79    82    1
    17    79    78    1
    18    73    72    2
    19   120   119    2
    20   129   128    1
    21   125   128    1
    22   125   124    1
    23   128   130    1
    24    76    74    1
    25   119   124   am
    26   119   118    1
    27    72    71    1
    28   118   117    1
    29   118   121    1
    30    74    71    1
    31    74    75    1
    32    71    70    1
    33    65    64    2
    34   122   121    1
    35    77    75    1
    36   121   123    1
    37    70    64   am
    38    64    63    1
    39    57    56    2
    40   113   112    2
    41   105   104    2
    42    83    84    1
    43   112   111    1
    44    60    58    1
    45    63    62    1
    46    63    66    1
    47    56    55    1
    48   104   103    1
    49   104   110   am
    50    55    58    1
    51    55    54    1
    52    84    87    1
    53    84    85    1
    54    50    49    2
    55   191   190    2
    56    58    59    1
    57    66    67    1
    58   103   102    1
    59   103   106    1
    60   111   110    1
    61   111   114    1
    62    59    61    1
    63    99    98    2
    64   109   107   am
    65   115   114    1
    66    49    54   am
    67    49    48    1
    68   190   189    1
    69    85    86    2
    70   114   116    1
    71   106   107    1
    72    69    67    1
    73    67    68    1
    74    98    97    1
    75   107   108    2
    76    52    51    1
    77   195   194    1
    78   179   178    2
    79   193   194    1
    80   193   192    1
    81    48    51    1
    82    48    47    1
    83   189   192    1
    84   189   188    1
    85    51    53    1
    86   178   188   am
    87   178   177    1
    88    97   100    1
    89    97    96    1
    90   101   100    1
    91    91    90    2
    92    42    41    2
    93    45    44    1
    94    90    96   am
    95    90    89    1
    96   177   176    1
    97   177   180    1
    98    44    46    1
    99    44    43    1
   100    41    40    1
   101   180   181    1
   102   182   184   ar
   103   182   181   ar
   104    89    88    1
   105    89    92    1
   106    40    43    1
   107    40    39    1
   108   184   186   ar
   109   181   183   ar
   110   168   167    2
   111    33    32    2
   112    94    92    1
   113   175   173   ar
   114   175   174   ar
   115    92    93    1
   116   173   171   ar
   117    39    32   am
   118    29    27   ar
   119    29    28   ar
   120   186   187    1
   121   186   185   ar
   122   183   185   ar
   123    32    31    1
   124   167   166    1
   125    27    25   ar
   126   174   172   ar
   127   171   170   ar
   128    95    93    1
   129    28    26   ar
   130   172   170   ar
   131   170   169    1
   132    37    36    2
   133   166   169    1
   134   166   165    1
   135    25    24   ar
   136    31    34    1
   137    31    30    1
   138    22    21    2
   139    26    24   ar
   140    34    35    1
   141   164   162    1
   142    24    23    1
   143    36    35    1
   144    36    38   am
   145    21    20    1
   146   163   161    1
   147   162   161    1
   148    23    20    1
   149    20    19    1
   150   161   158    1
   151    13    12    2
   152    19    12   am
   153   158   159    1
   154   158   157    1
   155    12    11    1
   156   160   159    2
   157   157   151   am
   158    11    10    1
   159    11    14    1
   160   152   151    2
   161   151   150    1
   162   153   154    1
   163   153   150    1
   164     4     3    2
   165    15    14    1
   166    15    16    1
   167   154   156    1
   168   154   155    1
   169   150   149    1
   170     3     2    1
   171    16    18   ar
   172    16    17   ar
   173   149   144   am
   174     2     5    1
   175     2     1    1
   176   146   147    1
   177   146   143    1
   178   144   145    2
   179   144   143    1
   180     5     6    1
   181   147   148    1
   182   143   142    1
   183     6     7    1
   184   142   148    1
   185     7     8    1
   186     9     8    1
