@<TRIPOS>MOLECULE
tmp/2yg1A00.pdb
 99 95 0 0 0
SMALL
GASTEIGER

@<TRIPOS>ATOM
      1  N        -26.4120   18.0380  -27.8050 N.3   268  GLY268     -0.1210
      2  CA       -27.8130   17.9590  -28.2170 C.3   268  GLY268      0.1956
      3  C        -28.3120   18.9990  -29.2000 C.2   268  GLY268      0.2612
      4  O        -29.5250   19.1810  -29.3480 O.2   268  GLY268     -0.2717
      5  N        -27.3900   19.6760  -29.8810 N.am  269  ASN269     -0.1960
      6  CA       -27.7650   20.6370  -30.9150 C.3   269  ASN269      0.1819
      7  C        -27.0900   20.3210  -32.2440 C.2   269  ASN269      0.2621
      8  O        -25.9630   20.7640  -32.5120 O.2   269  ASN269     -0.2715
      9  CB       -27.4790   22.0850  -30.4730 C.3   269  ASN269      0.1195
     10  CG       -28.1920   23.1120  -31.3410 C.2   269  ASN269      0.2630
     11  OD1      -28.3080   22.9500  -32.5590 O.2   269  ASN269     -0.2716
     12  ND2      -28.6680   24.1790  -30.7160 N.am  269  ASN269     -0.0877
     13  N        -27.7930   19.5490  -33.0750 N.am  270  GLN270     -0.1963
     14  CA       -27.2420   19.0780  -34.3370 C.3   270  GLN270      0.1733
     15  C        -27.2530   20.1210  -35.4630 C.2   270  GLN270      0.2617
     16  O        -26.6620   19.8970  -36.5180 O.2   270  GLN270     -0.2715
     17  CB       -27.9170   17.7630  -34.7590 C.3   270  GLN270      0.0408
     18  CG       -27.8460   16.6830  -33.6700 C.3   270  GLN270      0.0908
     19  CD       -28.2420   15.2980  -34.1620 C.2   270  GLN270      0.2608
     20  OE1      -28.3930   15.0700  -35.3660 O.2   270  GLN270     -0.2717
     21  NE2      -28.4170   14.3630  -33.2250 N.am  270  GLN270     -0.0878
     22  N        -27.8880   21.2680  -35.2280 N.am  271  THR271     -0.1937
     23  CA       -28.0210   22.3020  -36.2690 C.3   271  THR271      0.2028
     24  C        -27.1120   23.5200  -36.0630 C.2   271  THR271      0.2642
     25  O        -27.1740   24.4790  -36.8380 O.2   271  THR271     -0.2714
     26  CB       -29.4920   22.8010  -36.4040 C.3   271  THR271      0.1808
     27  OG1      -29.8250   23.6580  -35.3040 O.3   271  THR271     -0.2208
     28  CG2      -30.4650   21.6400  -36.4510 C.3   271  THR271      0.0379
     29  N        -26.2690   23.4820  -35.0330 N.am  272  PHE272     -0.1973
     30  CA       -25.5280   24.6740  -34.6220 C.3   272  PHE272      0.1639
     31  C        -24.2550   24.9390  -35.4340 C.2   272  PHE272      0.2290
     32  O        -23.9640   26.0860  -35.7920 O.2   272  PHE272     -0.2864
     33  CB       -25.1860   24.6110  -33.1290 C.3   272  PHE272      0.0560
     34  CG       -24.5120   25.8560  -32.6060 C.ar  272  PHE272     -0.0200
     35  CD1      -25.2040   27.0590  -32.5370 C.ar  272  PHE272     -0.0042
     36  CD2      -23.1810   25.8210  -32.1890 C.ar  272  PHE272     -0.0042
     37  CE1      -24.5810   28.2140  -32.0610 C.ar  272  PHE272     -0.0003
     38  CE2      -22.5490   26.9670  -31.7040 C.ar  272  PHE272     -0.0003
     39  CZ       -23.2500   28.1660  -31.6400 C.ar  272  PHE272     -0.0000
     40  N        -25.5300   27.4290  -38.3130 N.3   278  THR278     -0.1218
     41  CA       -25.4630   28.7380  -37.6510 C.3   278  THR278      0.1862
     42  C        -24.0310   29.2800  -37.6320 C.2   278  THR278      0.2287
     43  O        -23.7830   30.4370  -37.9910 O.2   278  THR278     -0.2866
     44  CB       -26.0810   28.6830  -36.2380 C.3   278  THR278      0.1770
     45  OG1      -27.3620   28.0540  -36.3170 O.3   278  THR278     -0.2211
     46  CG2      -26.2660   30.0810  -35.6590 C.3   278  THR278      0.0375
     47  N        -21.2690   38.9730  -37.5200 N.3   314  LYS314     -0.1245
     48  CA       -22.2650   38.6820  -36.4880 C.3   314  LYS314      0.1561
     49  C        -21.6710   37.8980  -35.3230 C.2   314  LYS314      0.2260
     50  O        -21.0040   36.8850  -35.5300 O.2   314  LYS314     -0.2867
     51  CB       -23.4340   37.9000  -37.0910 C.3   314  LYS314      0.0271
     52  CG       -24.6480   37.7660  -36.1840 C.3   314  LYS314      0.0035
     53  CD       -25.8520   37.2590  -36.9690 C.3   314  LYS314      0.0206
     54  CE       -27.0700   37.1070  -36.0800 C.3   314  LYS314      0.1093
     55  NZ       -27.4210   38.3770  -35.3800 N.3   314  LYS314     -0.1314
     56  N        -22.0280   35.3020  -32.5220 N.3   316  ILE316     -0.1231
     57  CA       -22.8700   34.1340  -32.2780 C.3   316  ILE316      0.1692
     58  C        -22.5930   33.5550  -30.8780 C.2   316  ILE316      0.2592
     59  O        -21.4890   33.0860  -30.5920 O.2   316  ILE316     -0.2718
     60  CB       -22.6660   33.0620  -33.3840 C.3   316  ILE316      0.0266
     61  CG1      -23.0350   33.6310  -34.7610 C.3   316  ILE316      0.0019
     62  CG2      -23.4940   31.8040  -33.1070 C.3   316  ILE316      0.0020
     63  CD1      -22.2310   33.0550  -35.9040 C.3   316  ILE316      0.0001
     64  N        -23.6020   33.6090  -30.0080 N.am  317  ALA317     -0.1966
     65  CA       -23.5270   33.0060  -28.6760 C.3   317  ALA317      0.1728
     66  C        -23.3760   31.4920  -28.7970 C.2   317  ALA317      0.2616
     67  O        -23.8650   30.8920  -29.7620 O.2   317  ALA317     -0.2715
     68  CB       -24.7740   33.3490  -27.8680 C.3   317  ALA317      0.0334
     69  N        -22.6940   30.8760  -27.8340 N.am  318  ASN318     -0.1958
     70  CA       -22.5570   29.4140  -27.8210 C.3   318  ASN318      0.1819
     71  C        -23.9240   28.7260  -27.7050 C.2   318  ASN318      0.2622
     72  O        -24.8590   29.2920  -27.1410 O.2   318  ASN318     -0.2715
     73  CB       -21.6100   28.9530  -26.6940 C.3   318  ASN318      0.1195
     74  CG       -21.1400   27.5180  -26.8780 C.2   318  ASN318      0.2630
     75  OD1      -21.1000   27.0080  -27.9960 O.2   318  ASN318     -0.2716
     76  ND2      -20.7980   26.8560  -25.7790 N.am  318  ASN318     -0.0877
     77  N        -24.0520   27.5240  -28.2640 N.am  319  SER319     -0.1936
     78  CA       -25.2960   26.7610  -28.1400 C.3   319  SER319      0.2055
     79  C        -25.5220   26.3120  -26.6970 C.2   319  SER319      0.2642
     80  O        -24.5730   26.1630  -25.9290 O.2   319  SER319     -0.2714
     81  CB       -25.2910   25.5480  -29.0670 C.3   319  SER319      0.2130
     82  OG       -24.2770   24.6300  -28.7020 O.3   319  SER319     -0.2179
     83  N        -26.7850   26.1160  -26.3330 N.am  320  LYS320     -0.1977
     84  CA       -27.1320   25.6070  -25.0100 C.3   320  LYS320      0.1596
     85  C        -27.1890   24.0860  -25.0670 C.2   320  LYS320      0.2287
     86  O        -27.4580   23.5180  -26.1230 O.2   320  LYS320     -0.2864
     87  CB       -28.4860   26.1670  -24.5680 C.3   320  LYS320      0.0298
     88  CG       -28.4590   27.6550  -24.1990 C.3   320  LYS320      0.0038
     89  CD       -29.8670   28.2470  -24.1700 C.3   320  LYS320      0.0206
     90  CE       -29.9070   29.6080  -23.4640 C.3   320  LYS320      0.1093
     91  NZ       -29.1940   30.6950  -24.2130 N.3   320  LYS320     -0.1314
     92  N        -28.7930   20.4340  -24.5710 N.3   322  ASN322     -0.1240
     93  CA       -30.1330   19.9360  -24.7960 C.3   322  ASN322      0.1653
     94  C        -30.1220   18.4340  -24.5620 C.2   322  ASN322      0.2266
     95  O        -30.2660   17.6430  -25.4860 O.2   322  ASN322     -0.2867
     96  CB       -30.5770   20.2800  -26.2190 C.3   322  ASN322      0.1155
     97  CG       -31.9820   19.8210  -26.5200 C.2   322  ASN322      0.2627
     98  OD1      -32.8530   19.8550  -25.6600 O.2   322  ASN322     -0.2716
     99  ND2      -32.2060   19.3790  -27.7440 N.am  322  ASN322     -0.0877
@<TRIPOS>BOND
     1    40    41    1
     2    43    42    2
     3    41    42    1
     4    41    44    1
     5    47    48    1
     6    51    48    1
     7    51    52    1
     8    53    52    1
     9    53    54    1
    10    25    24    2
    11    16    15    2
    12    48    49    1
    13    28    26    1
    14    26    23    1
    15    26    27    1
    16    45    44    1
    17    23    24    1
    18    23    22    1
    19    44    46    1
    20    54    55    1
    21    24    29   am
    22    63    61    1
    23    32    31    2
    24    50    49    2
    25    15    22   am
    26    15    14    1
    27    31    30    1
    28    20    19    2
    29    29    30    1
    30    61    60    1
    31    17    14    1
    32    17    18    1
    33    30    33    1
    34    14    13    1
    35    19    18    1
    36    19    21   am
    37    60    62    1
    38    60    57    1
    39    33    34    1
    40    13     7   am
    41    34    35   ar
    42    34    36   ar
    43    11    10    2
    44    35    37   ar
    45    56    57    1
    46     8     7    2
    47    57    58    1
    48     7     6    1
    49    36    38   ar
    50    37    39   ar
    51    38    39   ar
    52    10    12   am
    53    10     9    1
    54     6     9    1
    55     6     5    1
    56    58    59    2
    57    58    64   am
    58    64    65    1
    59     5     3   am
    60    67    66    2
    61     4     3    2
    62     3     2    1
    63    81    82    1
    64    81    78    1
    65    66    65    1
    66    66    69   am
    67    65    68    1
    68    77    78    1
    69    77    71   am
    70     2     1    1
    71    78    79    1
    72    75    74    2
    73    69    70    1
    74    70    71    1
    75    70    73    1
    76    99    97   am
    77    71    72    2
    78    74    73    1
    79    74    76   am
    80    79    83   am
    81    79    80    2
    82    97    96    1
    83    97    98    2
    84    83    84    1
    85    96    93    1
    86    86    85    2
    87    95    94    2
    88    85    84    1
    89    84    87    1
    90    93    92    1
    91    93    94    1
    92    87    88    1
    93    91    90    1
    94    88    89    1
    95    89    90    1
