@<TRIPOS>MOLECULE
tmp/2yg2B01.pdb
 251 237 0 0 0
SMALL
GASTEIGER

@<TRIPOS>ATOM
      1  N        -27.0100   38.9310   31.3600 N.3     8  PHE8       -0.1241
      2  CA       -26.8860   37.5440   31.8010 C.3     8  PHE8        0.1605
      3  C        -28.1710   36.9330   32.3850 C.2     8  PHE8        0.2264
      4  O        -28.5840   35.8250   31.9530 O.2     8  PHE8       -0.2867
      5  CB       -25.7280   37.3390   32.7900 C.3     8  PHE8        0.0534
      6  CG       -25.6570   35.9300   33.2980 C.ar    8  PHE8       -0.0203
      7  CD1      -24.9950   34.9560   32.5620 C.ar    8  PHE8       -0.0042
      8  CD2      -26.3150   35.5570   34.4700 C.ar    8  PHE8       -0.0042
      9  CE1      -24.9510   33.6330   33.0040 C.ar    8  PHE8       -0.0003
     10  CE2      -26.2930   34.2160   34.9260 C.ar    8  PHE8       -0.0003
     11  CZ       -25.6200   33.2580   34.1830 C.ar    8  PHE8       -0.0000
     12  N        -30.4580   33.8070   30.2990 N.3    12  HIS12      -0.1241
     13  CA       -30.5660   32.4790   30.9060 C.3    12  HIS12       0.1621
     14  C        -31.8520   32.1650   31.6700 C.2    12  HIS12       0.2264
     15  O        -31.9490   31.1160   32.3000 O.2    12  HIS12      -0.2867
     16  CB       -29.3180   32.2470   31.7680 C.3    12  HIS12       0.0745
     17  CG       -28.0590   32.3490   30.9750 C.ar   12  HIS12       0.0817
     18  ND1      -27.4020   33.5440   30.7770 N.ar   12  HIS12      -0.2268
     19  CD2      -27.4000   31.4300   30.2340 C.ar   12  HIS12       0.1154
     20  CE1      -26.3580   33.3430   29.9910 C.ar   12  HIS12       0.1986
     21  NE2      -26.3330   32.0680   29.6520 N.ar   12  HIS12      -0.2212
     22  N        -33.8680   24.4890   32.0640 N.3    16  TRP16      -0.1241
     23  CA       -32.6010   23.8350   31.7730 C.3    16  TRP16       0.1605
     24  C        -32.7410   22.3880   32.2780 C.2    16  TRP16       0.2264
     25  O        -33.5090   22.1360   33.2030 O.2    16  TRP16      -0.2867
     26  CB       -31.4730   24.5190   32.5570 C.3    16  TRP16       0.0550
     27  CG       -31.1900   25.9040   32.1070 C.ar   16  TRP16       0.0003
     28  CD1      -31.7730   27.0500   32.5560 C.ar   16  TRP16       0.0946
     29  CD2      -30.2870   26.2840   31.0830 C.ar   16  TRP16       0.0152
     30  NE1      -31.2790   28.1270   31.8800 N.ar   16  TRP16      -0.2442
     31  CE2      -30.3670   27.6900   30.9600 C.ar   16  TRP16       0.0810
     32  CE3      -29.4200   25.5780   30.2470 C.ar   16  TRP16       0.0012
     33  CZ2      -29.5990   28.4050   30.0630 C.ar   16  TRP16       0.0191
     34  CZ3      -28.6640   26.2950   29.3380 C.ar   16  TRP16       0.0001
     35  CH2      -28.7440   27.6950   29.2650 C.ar   16  TRP16       0.0015
     36  N        -24.8440   12.4160   44.9090 N.3    31  THR31      -0.1203
     37  CA       -26.0350   13.2900   44.8680 C.3    31  THR31       0.1994
     38  C        -26.9930   12.8570   43.7830 C.2    31  THR31       0.2617
     39  O        -28.2060   12.9330   43.9570 O.2    31  THR31      -0.2717
     40  CB       -25.6170   14.7450   44.5140 C.3    31  THR31       0.1784
     41  OG1      -24.6090   15.1800   45.4260 O.3    31  THR31      -0.2211
     42  CG2      -26.7790   15.7210   44.5380 C.3    31  THR31       0.0376
     43  N        -26.4440   12.4120   42.6610 N.am   32  PHE32      -0.1975
     44  CA       -27.2350   12.1950   41.4630 C.3    32  PHE32       0.1639
     45  C        -27.5250   10.7370   41.1960 C.2    32  PHE32       0.2290
     46  O        -28.2020   10.4350   40.2420 O.2    32  PHE32      -0.2864
     47  CB       -26.5410   12.8500   40.2820 C.3    32  PHE32       0.0560
     48  CG       -26.2570   14.3080   40.5240 C.ar   32  PHE32      -0.0200
     49  CD1      -27.3060   15.2050   40.6960 C.ar   32  PHE32      -0.0042
     50  CD2      -24.9460   14.7650   40.6600 C.ar   32  PHE32      -0.0042
     51  CE1      -27.0580   16.5610   40.9500 C.ar   32  PHE32      -0.0003
     52  CE2      -24.6980   16.1120   40.9140 C.ar   32  PHE32      -0.0003
     53  CZ       -25.7660   17.0030   41.0540 C.ar   32  PHE32      -0.0000
     54  N        -33.6440   15.8970   35.8810 N.3    38  ILE38      -0.1245
     55  CA       -34.0190   17.0680   36.6680 C.3    38  ILE38       0.1561
     56  C        -34.2820   18.1780   35.6670 C.2    38  ILE38       0.2260
     57  O        -33.4770   18.3720   34.7390 O.2    38  ILE38      -0.2867
     58  CB       -32.9290   17.5620   37.6440 C.3    38  ILE38       0.0252
     59  CG1      -32.3440   16.4000   38.5030 C.3    38  ILE38       0.0019
     60  CG2      -33.5050   18.6880   38.5200 C.3    38  ILE38       0.0019
     61  CD1      -31.1100   16.8540   39.3630 C.3    38  ILE38       0.0001
     62  N        -34.9690   22.3120   35.6170 N.3    40  PHE40      -0.1241
     63  CA       -34.6940   23.5160   36.4150 C.3    40  PHE40       0.1605
     64  C        -35.3870   24.7040   35.7490 C.2    40  PHE40       0.2264
     65  O        -35.5700   24.6990   34.5400 O.2    40  PHE40      -0.2867
     66  CB       -33.1930   23.8120   36.4250 C.3    40  PHE40       0.0534
     67  CG       -32.3920   22.8780   37.2630 C.ar   40  PHE40      -0.0203
     68  CD1      -32.2140   23.1310   38.6220 C.ar   40  PHE40      -0.0042
     69  CD2      -31.8100   21.7260   36.7030 C.ar   40  PHE40      -0.0042
     70  CE1      -31.4600   22.2300   39.4340 C.ar   40  PHE40      -0.0003
     71  CE2      -31.0450   20.8520   37.5010 C.ar   40  PHE40      -0.0003
     72  CZ       -30.8770   21.1000   38.8580 C.ar   40  PHE40      -0.0000
     73  N        -35.0080   29.0160   35.9550 N.3    42  MET42      -0.1245
     74  CA       -34.4260   30.1900   36.5840 C.3    42  MET42       0.1570
     75  C        -35.3120   31.3910   36.3060 C.2    42  MET42       0.2261
     76  O        -35.7570   31.6260   35.1740 O.2    42  MET42      -0.2867
     77  CB       -32.9710   30.4090   36.1560 C.3    42  MET42       0.0387
     78  CG       -32.2420   31.4950   36.9670 C.3    42  MET42       0.0595
     79  SD       -32.6710   33.1540   36.4340 S.3    42  MET42      -0.1393
     80  CE       -31.3960   33.4750   35.2170 C.3    42  MET42       0.0692
     81  N        -31.2750   35.4800   42.0090 N.3    48  LEU48      -0.1245
     82  CA       -31.8130   34.5870   40.9880 C.3    48  LEU48       0.1561
     83  C        -32.5470   33.4860   41.7350 C.2    48  LEU48       0.2260
     84  O        -31.9930   32.9020   42.6730 O.2    48  LEU48      -0.2867
     85  CB       -30.6860   33.9910   40.1350 C.3    48  LEU48       0.0270
     86  CG       -29.6740   34.9620   39.5110 C.3    48  LEU48       0.0019
     87  CD1      -28.4280   34.2480   39.0090 C.3    48  LEU48       0.0001
     88  CD2      -30.3270   35.7460   38.4060 C.3    48  LEU48       0.0001
     89  N        -33.9750   29.8920   41.6610 N.3    50  LEU50      -0.1245
     90  CA       -33.8510   28.6380   40.9250 C.3    50  LEU50       0.1561
     91  C        -34.7880   27.6170   41.5190 C.2    50  LEU50       0.2260
     92  O        -34.6890   27.2950   42.7100 O.2    50  LEU50      -0.2867
     93  CB       -32.4130   28.0930   40.9850 C.3    50  LEU50       0.0270
     94  CG       -32.0600   26.8280   40.1780 C.3    50  LEU50       0.0019
     95  CD1      -31.9770   27.1100   38.6790 C.3    50  LEU50       0.0001
     96  CD2      -30.7250   26.2860   40.6750 C.3    50  LEU50       0.0001
     97  N        -37.0170   17.1980   40.6780 N.3    54  ILE54      -0.1245
     98  CA       -36.1740   16.0430   40.4320 C.3    54  ILE54       0.1561
     99  C        -37.0780   14.8390   40.2360 C.2    54  ILE54       0.2260
    100  O        -37.9040   14.5630   41.0880 O.2    54  ILE54      -0.2867
    101  CB       -35.2280   15.7790   41.6120 C.3    54  ILE54       0.0252
    102  CG1      -34.3190   16.9920   41.8470 C.3    54  ILE54       0.0019
    103  CG2      -34.3700   14.5190   41.3310 C.3    54  ILE54       0.0019
    104  CD1      -33.6270   16.9220   43.2040 C.3    54  ILE54       0.0001
    105  N        -37.6750   21.3590   44.3890 N.3    64  ARG64      -0.1245
    106  CA       -36.5940   21.9980   45.1140 C.3    64  ARG64       0.1563
    107  C        -36.5880   23.4810   44.7790 C.2    64  ARG64       0.2260
    108  O        -37.0740   23.8730   43.7120 O.2    64  ARG64      -0.2867
    109  CB       -35.2620   21.3910   44.6970 C.3    64  ARG64       0.0307
    110  CG       -35.1860   19.8460   44.9540 C.3    64  ARG64       0.0489
    111  CD       -35.2150   19.5290   46.4810 C.3    64  ARG64       0.2205
    112  NE       -34.2340   20.3540   47.1590 N.pl3  64  ARG64      -0.0865
    113  CZ       -32.9240   20.1290   47.1390 C.cat  64  ARG64       0.5346
    114  NH1      -32.4360   19.0380   46.5410 N.pl3  64  ARG64       0.1354
    115  NH2      -32.1090   20.9890   47.7250 N.pl3  64  ARG64       0.1354
    116  N        -33.7110   27.0240   45.3650 N.3    66  TRP66      -0.1241
    117  CA       -32.5300   27.6650   45.9020 C.3    66  TRP66       0.1605
    118  C        -32.6070   29.1510   45.5270 C.2    66  TRP66       0.2264
    119  O        -33.3010   29.5340   44.5810 O.2    66  TRP66      -0.2867
    120  CB       -31.2440   27.0640   45.3210 C.3    66  TRP66       0.0550
    121  CG       -31.0620   25.5550   45.4020 C.ar   66  TRP66       0.0003
    122  CD1      -30.3060   24.8530   46.3250 C.ar   66  TRP66       0.0946
    123  CD2      -31.5780   24.5880   44.4900 C.ar   66  TRP66       0.0152
    124  NE1      -30.3560   23.4980   46.0450 N.ar   66  TRP66      -0.2442
    125  CE2      -31.1140   23.3130   44.9170 C.ar   66  TRP66       0.0810
    126  CE3      -32.3810   24.6690   43.3340 C.ar   66  TRP66       0.0012
    127  CZ2      -31.4410   22.1330   44.2480 C.ar   66  TRP66       0.0191
    128  CZ3      -32.7120   23.4790   42.6730 C.ar   66  TRP66       0.0001
    129  CH2      -32.2310   22.2410   43.1290 C.ar   66  TRP66       0.0015
    130  N        -29.8720   31.9780   44.4510 N.3    68  TYR68      -0.1241
    131  CA       -28.5020   32.2950   44.1070 C.3    68  TYR68       0.1605
    132  C        -28.2840   33.8130   44.0990 C.2    68  TYR68       0.2264
    133  O        -29.1080   34.5700   43.5920 O.2    68  TYR68      -0.2867
    134  CB       -28.1260   31.6990   42.7590 C.3    68  TYR68       0.0534
    135  CG       -27.7930   30.2120   42.7790 C.ar   68  TYR68      -0.0201
    136  CD1      -28.7760   29.2540   43.0420 C.ar   68  TYR68      -0.0009
    137  CD2      -26.4860   29.7670   42.5210 C.ar   68  TYR68      -0.0009
    138  CE1      -28.4710   27.8890   43.0440 C.ar   68  TYR68       0.0417
    139  CE2      -26.1680   28.4090   42.5160 C.ar   68  TYR68       0.0417
    140  CZ       -27.1630   27.4770   42.7840 C.ar   68  TYR68       0.1957
    141  OH       -26.8610   26.1330   42.7710 O.3    68  TYR68      -0.2866
    142  N        -21.0520   32.6250   41.9360 N.3    77  LEU77      -0.1245
    143  CA       -22.4220   32.7030   42.3800 C.3    77  LEU77       0.1561
    144  C        -22.5000   32.0110   43.7200 C.2    77  LEU77       0.2260
    145  O        -22.0370   30.8780   43.8690 O.2    77  LEU77      -0.2867
    146  CB       -23.3590   32.0290   41.3750 C.3    77  LEU77       0.0270
    147  CG       -23.4260   32.6880   39.9940 C.3    77  LEU77       0.0019
    148  CD1      -24.3080   31.8990   39.0870 C.3    77  LEU77       0.0001
    149  CD2      -23.9320   34.1110   40.1020 C.3    77  LEU77       0.0001
    150  N        -25.6900   28.3080   52.1410 N.3    82  ARG82      -0.1245
    151  CA       -24.4990   27.4740   52.0200 C.3    82  ARG82       0.1563
    152  C        -23.2630   28.3640   51.9070 C.2    82  ARG82       0.2260
    153  O        -22.7420   28.5580   50.8100 O.2    82  ARG82      -0.2867
    154  CB       -24.5990   26.5430   50.7980 C.3    82  ARG82       0.0307
    155  CG       -25.7380   25.5340   50.8290 C.3    82  ARG82       0.0489
    156  CD       -26.8900   25.9490   49.9220 C.3    82  ARG82       0.2205
    157  NE       -27.9820   24.9680   49.8960 N.pl3  82  ARG82      -0.0865
    158  CZ       -28.0580   23.9130   49.0840 C.cat  82  ARG82       0.5346
    159  NH1      -27.1060   23.6550   48.1890 N.pl3  82  ARG82       0.1354
    160  NH2      -29.1040   23.1050   49.1680 N.pl3  82  ARG82       0.1354
    161  N        -20.2130   27.1270   49.8050 N.3    85  MET85      -0.1245
    162  CA       -20.4480   26.7480   48.4150 C.3    85  MET85       0.1570
    163  C        -20.0400   27.8490   47.4280 C.2    85  MET85       0.2261
    164  O        -20.3120   29.0310   47.6630 O.2    85  MET85      -0.2867
    165  CB       -21.9150   26.3910   48.2200 C.3    85  MET85       0.0387
    166  CG       -22.2170   25.7730   46.8960 C.3    85  MET85       0.0595
    167  SD       -23.9750   25.4550   46.7660 S.3    85  MET85      -0.1393
    168  CE       -24.0410   24.9420   45.0600 C.3    85  MET85       0.0692
    169  N        -20.0090   28.4860   42.9930 N.3    87  THR87      -0.1218
    170  CA       -20.4550   28.0050   41.6890 C.3    87  THR87       0.1862
    171  C        -19.8760   28.9220   40.6010 C.2    87  THR87       0.2287
    172  O        -20.1460   30.1330   40.5930 O.2    87  THR87      -0.2866
    173  CB       -22.0010   27.9740   41.5940 C.3    87  THR87       0.1770
    174  OG1      -22.5200   27.0470   42.5720 O.3    87  THR87      -0.2211
    175  CG2      -22.4550   27.5640   40.1880 C.3    87  THR87       0.0375
    176  N        -19.4680   29.4310   36.3760 N.3    89  LEU89      -0.1245
    177  CA       -20.0980   29.0800   35.1130 C.3    89  LEU89       0.1561
    178  C        -19.0880   29.0390   33.9840 C.2    89  LEU89       0.2260
    179  O        -18.1630   29.8710   33.9120 O.2    89  LEU89      -0.2867
    180  CB       -21.1950   30.0820   34.7650 C.3    89  LEU89       0.0270
    181  CG       -22.3490   30.2570   35.7540 C.3    89  LEU89       0.0019
    182  CD1      -23.4140   31.1370   35.1340 C.3    89  LEU89       0.0001
    183  CD2      -22.9640   28.9220   36.1290 C.3    89  LEU89       0.0001
    184  N        -24.4000   24.6190   29.0630 N.3    98  ILE98      -0.1245
    185  CA       -23.7510   25.4450   30.0500 C.3    98  ILE98       0.1561
    186  C        -23.1080   24.4910   31.0460 C.2    98  ILE98       0.2260
    187  O        -23.6030   23.3800   31.2750 O.2    98  ILE98      -0.2867
    188  CB       -24.7420   26.4510   30.7010 C.3    98  ILE98       0.0252
    189  CG1      -23.9930   27.6100   31.3710 C.3    98  ILE98       0.0019
    190  CG2      -25.7100   25.7600   31.6610 C.3    98  ILE98       0.0019
    191  CD1      -24.8390   28.8760   31.4980 C.3    98  ILE98       0.0001
    192  N        -21.2000   24.0430   34.8830 N.3   100  LEU100     -0.1245
    193  CA       -20.9340   24.5570   36.1970 C.3   100  LEU100      0.1561
    194  C        -19.7110   23.8300   36.7340 C.2   100  LEU100      0.2260
    195  O        -19.4750   22.6590   36.4100 O.2   100  LEU100     -0.2867
    196  CB       -22.1550   24.3130   37.1070 C.3   100  LEU100      0.0270
    197  CG       -23.2890   25.3520   37.1100 C.3   100  LEU100      0.0019
    198  CD1      -23.9620   25.5090   35.7680 C.3   100  LEU100      0.0001
    199  CD2      -24.3270   25.0060   38.1500 C.3   100  LEU100      0.0001
    200  N        -18.9300   23.2900   40.5520 N.3   102  GLU102     -0.1245
    201  CA       -19.4810   23.4520   41.8700 C.3   102  GLU102      0.1567
    202  C        -18.5140   22.8620   42.8830 C.2   102  GLU102      0.2260
    203  O        -18.0050   21.7500   42.6890 O.2   102  GLU102     -0.2867
    204  CB       -20.7660   22.6640   41.9210 C.3   102  GLU102      0.0388
    205  CG       -21.7530   23.0840   42.9530 C.3   102  GLU102      0.1160
    206  CD       -23.0510   22.3070   42.7580 C.2   102  GLU102      0.3649
    207  OE1      -23.0050   21.0800   42.9330 O.co2 102  GLU102     -0.2457
    208  OE2      -24.0830   22.9160   42.4050 O.co2 102  GLU102     -0.2457
    209  N        -16.3570   18.3300   48.3560 N.3   107  TYR107     -0.1241
    210  CA       -16.5960   18.0060   46.9550 C.3   107  TYR107      0.1605
    211  C        -16.1810   19.0800   45.9590 C.2   107  TYR107      0.2264
    212  O        -16.1830   20.2790   46.2640 O.2   107  TYR107     -0.2867
    213  CB       -18.0630   17.5790   46.7200 C.3   107  TYR107      0.0534
    214  CG       -19.0580   18.7160   46.7430 C.ar  107  TYR107     -0.0201
    215  CD1      -19.5750   19.1900   47.9420 C.ar  107  TYR107     -0.0009
    216  CD2      -19.4790   19.3180   45.5610 C.ar  107  TYR107     -0.0009
    217  CE1      -20.4800   20.2450   47.9650 C.ar  107  TYR107      0.0417
    218  CE2      -20.4140   20.3620   45.5680 C.ar  107  TYR107      0.0417
    219  CZ       -20.8960   20.8200   46.7800 C.ar  107  TYR107      0.1957
    220  OH       -21.8070   21.8540   46.7940 O.3   107  TYR107     -0.2866
    221  N        -17.0660   19.2390   41.6010 N.3   109  ARG109     -0.1245
    222  CA       -17.6200   18.5430   40.4570 C.3   109  ARG109      0.1563
    223  C        -17.9940   19.4780   39.3090 C.2   109  ARG109      0.2260
    224  O        -18.4150   20.6220   39.5210 O.2   109  ARG109     -0.2867
    225  CB       -18.8380   17.7030   40.8790 C.3   109  ARG109      0.0307
    226  CG       -19.9570   18.5090   41.4970 C.3   109  ARG109      0.0489
    227  CD       -20.8820   17.5910   42.2480 C.3   109  ARG109      0.2205
    228  NE       -21.9250   18.3370   42.9300 N.pl3 109  ARG109     -0.0865
    229  CZ       -22.6530   17.8390   43.9190 C.cat 109  ARG109      0.5346
    230  NH1      -22.4220   16.6030   44.3650 N.pl3 109  ARG109      0.1354
    231  NH2      -23.5830   18.5900   44.4850 N.pl3 109  ARG109      0.1354
    232  N        -20.6430   20.0320   36.2900 N.3   111  LEU111     -0.1245
    233  CA       -22.0350   19.6430   36.0110 C.3   111  LEU111      0.1561
    234  C        -22.4690   20.2350   34.6790 C.2   111  LEU111      0.2260
    235  O        -22.2330   21.4240   34.4090 O.2   111  LEU111     -0.2867
    236  CB       -22.9600   20.1270   37.1230 C.3   111  LEU111      0.0270
    237  CG       -22.6340   19.6920   38.5650 C.3   111  LEU111      0.0019
    238  CD1      -23.6580   20.2630   39.5330 C.3   111  LEU111      0.0001
    239  CD2      -22.5690   18.1640   38.6900 C.3   111  LEU111      0.0001
    240  N        -25.4190   21.0660   31.8530 N.3   113  TYR113     -0.1241
    241  CA       -26.8470   21.3250   31.6330 C.3   113  TYR113      0.1605
    242  C        -27.0770   21.6910   30.1860 C.2   113  TYR113      0.2264
    243  O        -26.1760   22.1470   29.4900 O.2   113  TYR113     -0.2867
    244  CB       -27.3190   22.4770   32.5210 C.3   113  TYR113      0.0534
    245  CG       -27.0840   22.1730   33.9640 C.ar  113  TYR113     -0.0201
    246  CD1      -25.8630   22.4780   34.5710 C.ar  113  TYR113     -0.0009
    247  CD2      -28.0520   21.5020   34.7200 C.ar  113  TYR113     -0.0009
    248  CE1      -25.6180   22.1510   35.9030 C.ar  113  TYR113      0.0417
    249  CE2      -27.8230   21.1860   36.0540 C.ar  113  TYR113      0.0417
    250  CZ       -26.6110   21.4950   36.6340 C.ar  113  TYR113      0.1957
    251  OH       -26.3610   21.1850   37.9640 O.3   113  TYR113     -0.2866
@<TRIPOS>BOND
     1   184   185    1
     2    35    34   ar
     3    35    33   ar
     4    34    32   ar
     5   243   242    2
     6    21    20   ar
     7    21    19   ar
     8    20    18   ar
     9   185   188    1
    10   185   186    1
    11    33    31   ar
    12   242   241    1
    13    19    17   ar
    14    32    29   ar
    15    12    13    1
    16   188   189    1
    17   188   190    1
    18    18    17   ar
    19    13    14    1
    20    13    16    1
    21    31    29   ar
    22    31    30   ar
    23    17    16    1
    24   186   187    2
    25    29    27   ar
    26     1     2    1
    27   189   191    1
    28   241   240    1
    29   241   244    1
    30    14    15    2
    31    23    22    1
    32    23    24    1
    33    23    26    1
    34     2     3    1
    35     2     5    1
    36    30    28   ar
    37     4     3    2
    38    27    28   ar
    39    27    26    1
    40    24    25    2
    41   244   245    1
    42     7     9   ar
    43     7     6   ar
    44     5     6    1
    45     9    11   ar
    46     6     8   ar
    47   179   178    2
    48   245   246   ar
    49   245   247   ar
    50   178   177    1
    51    11    10   ar
    52   235   234    2
    53     8    10   ar
    54    65    64    2
    55   246   248   ar
    56   234   233    1
    57   247   249   ar
    58    57    56    2
    59   180   177    1
    60   180   181    1
    61   192   193    1
    62   177   176    1
    63   182   181    1
    64    76    75    2
    65    80    79    1
    66    62    63    1
    67    56    55    1
    68    64    63    1
    69   181   183    1
    70   198   197    1
    71    54    55    1
    72   248   250   ar
    73    73    74    1
    74   233   232    1
    75   233   236    1
    76   249   250   ar
    77    77    74    1
    78    77    78    1
    79   193   194    1
    80   193   196    1
    81    75    74    1
    82   195   194    2
    83    63    66    1
    84    66    67    1
    85    79    78    1
    86   250   251    1
    87    55    58    1
    88    69    67   ar
    89    69    71   ar
    90   196   197    1
    91   197   199    1
    92   236   237    1
    93    67    68   ar
    94    71    72   ar
    95    58    59    1
    96    58    60    1
    97    88    86    1
    98    59    61    1
    99   237   239    1
   100   237   238    1
   101    68    70   ar
   102    95    94    1
   103    72    70   ar
   104    87    86    1
   105   148   147    1
   106   223   224    2
   107   223   222    1
   108    86    85    1
   109   147   149    1
   110   147   146    1
   111    85    82    1
   112    94    96    1
   113    94    93    1
   114   175   173    1
   115    99    98    1
   116    99   100    2
   117    46    45    2
   118    47    48    1
   119    47    44    1
   120    98    97    1
   121    98   101    1
   122   222   225    1
   123   222   221    1
   124    48    50   ar
   125    48    49   ar
   126   200   201    1
   127   172   171    2
   128   171   170    1
   129    50    52   ar
   130    49    51   ar
   131   225   226    1
   132    52    53   ar
   133    90    93    1
   134    90    91    1
   135    90    89    1
   136    51    53   ar
   137    82    83    1
   138    82    81    1
   139    45    44    1
   140   103   101    1
   141   146   143    1
   142    44    43    1
   143   226   227    1
   144    91    92    2
   145   173   170    1
   146   173   174    1
   147   101   102    1
   148   170   169    1
   149    83    84    2
   150   102   104    1
   151   201   204    1
   152   201   202    1
   153   204   205    1
   154   142   143    1
   155   227   228    1
   156   143   144    1
   157   208   206   ar
   158   139   137   ar
   159   139   140   ar
   160   137   135   ar
   161    43    38   am
   162   128   129   ar
   163   128   126   ar
   164   203   202    2
   165   206   207   ar
   166   206   205    1
   167   134   135    1
   168   134   131    1
   169   141   140    1
   170   135   136   ar
   171   140   138   ar
   172   228   229    2
   173   136   138   ar
   174   129   127   ar
   175   126   123   ar
   176   133   132    2
   177   108   107    2
   178   144   145    2
   179    38    39    2
   180    38    37    1
   181   229   230    1
   182   229   231    1
   183   132   131    1
   184   131   130    1
   185   127   125   ar
   186   105   106    1
   187   123   125   ar
   188   123   121   ar
   189    40    42    1
   190    40    37    1
   191    40    41    1
   192   119   118    2
   193   109   110    1
   194   109   106    1
   195   107   106    1
   196    37    36    1
   197   125   124   ar
   198   110   111    1
   199   168   167    1
   200   120   121    1
   201   120   117    1
   202   116   117    1
   203   121   122   ar
   204   118   117    1
   205   216   218   ar
   206   216   214   ar
   207   218   219   ar
   208   211   212    2
   209   211   210    1
   210   124   122   ar
   211   111   112    1
   212   114   113    1
   213   213   214    1
   214   213   210    1
   215   214   215   ar
   216   167   166    1
   217   219   220    1
   218   219   217   ar
   219   166   165    1
   220   210   209    1
   221   113   112    2
   222   113   115    1
   223   163   164    2
   224   163   162    1
   225   215   217   ar
   226   159   158    1
   227   165   162    1
   228   162   161    1
   229   158   160    1
   230   158   157    2
   231   157   156    1
   232   156   155    1
   233   154   155    1
   234   154   151    1
   235   153   152    2
   236   152   151    1
   237   151   150    1
