@<TRIPOS>MOLECULE
tmp/2ygmB00.pdb
 122 117 0 0 0
SMALL
GASTEIGER

@<TRIPOS>ATOM
      1  N         13.7520    7.6330   32.7410 N.3    19  GLY19      -0.1210
      2  CA        13.4850    8.7960   33.5890 C.3    19  GLY19       0.1956
      3  C         13.1320   10.1040   32.8940 C.2    19  GLY19       0.2612
      4  O         12.9060   11.1140   33.5650 O.2    19  GLY19      -0.2717
      5  N         13.0900   10.0960   31.5620 N.am   20  ASP20      -0.1959
      6  CA        12.7180   11.2920   30.7940 C.3    20  ASP20       0.1840
      7  C         11.2230   11.5380   30.9210 C.2    20  ASP20       0.2622
      8  O         10.4400   10.5900   30.9260 O.2    20  ASP20      -0.2715
      9  CB        13.1100   11.1480   29.3200 C.3    20  ASP20       0.1450
     10  CG        13.0160   12.4700   28.5510 C.2    20  ASP20       0.3671
     11  OD1       11.8880   12.9420   28.2910 O.co2  20  ASP20      -0.2456
     12  OD2       14.0750   13.0330   28.1970 O.co2  20  ASP20      -0.2456
     13  N         10.8320   12.8080   31.0150 N.am   21  ILE21      -0.1963
     14  CA         9.4220   13.1660   31.2140 C.3    21  ILE21       0.1727
     15  C          8.5380   12.8420   30.0110 C.2    21  ILE21       0.2616
     16  O          7.3470   12.5970   30.1700 O.2    21  ILE21      -0.2715
     17  CB         9.2250   14.6610   31.6330 C.3    21  ILE21       0.0290
     18  CG1        9.6920   15.6260   30.5350 C.3    21  ILE21       0.0022
     19  CG2        9.9070   14.9540   32.9680 C.3    21  ILE21       0.0023
     20  CD1        8.5860   16.0230   29.5550 C.3    21  ILE21       0.0001
     21  N          9.1330   12.8370   28.8200 N.am   22  ASP22      -0.1971
     22  CA         8.4000   12.6130   27.5790 C.3    22  ASP22       0.1709
     23  C          8.3130   11.1270   27.2470 C.2    22  ASP22       0.2293
     24  O          9.2880   10.5240   26.8000 O.2    22  ASP22      -0.2864
     25  CB         9.0580   13.3800   26.4270 C.3    22  ASP22       0.1436
     26  CG         8.2980   13.2440   25.1080 C.2    22  ASP22       0.3671
     27  OD1        7.3370   12.4440   25.0190 O.co2  22  ASP22      -0.2456
     28  OD2        8.6730   13.9490   24.1470 O.co2  22  ASP22      -0.2456
     29  N          9.1210    9.2130   23.8450 N.3    25  LYS25      -0.1245
     30  CA        10.5090    8.8030   23.6410 C.3    25  LYS25       0.1561
     31  C         10.7420    7.4010   24.2020 C.2    25  LYS25       0.2260
     32  O         10.1960    7.0450   25.2490 O.2    25  LYS25      -0.2867
     33  CB        11.4630    9.8020   24.2990 C.3    25  LYS25       0.0271
     34  CG        11.6290   11.0990   23.5190 C.3    25  LYS25       0.0035
     35  CD        12.4390   12.1190   24.2910 C.3    25  LYS25       0.0206
     36  CE        12.5080   13.4320   23.5360 C.3    25  LYS25       0.1093
     37  NZ        13.1400   14.5070   24.3510 N.3    25  LYS25      -0.1314
     38  N         18.8470   10.7500   24.2660 N.3    34  THR34      -0.1218
     39  CA        18.3400   12.0030   23.7070 C.3    34  THR34       0.1862
     40  C         18.6490   12.1520   22.2070 C.2    34  THR34       0.2287
     41  O         17.7350   12.4080   21.4110 O.2    34  THR34      -0.2866
     42  CB        18.8110   13.2200   24.5330 C.3    34  THR34       0.1770
     43  OG1       18.2330   13.1470   25.8440 O.3    34  THR34      -0.2211
     44  CG2       18.3970   14.5310   23.8820 C.3    34  THR34       0.0375
     45  N         17.6100    6.8190   30.3190 N.3    63  VAL63      -0.1245
     46  CA        17.6690    7.9000   31.3100 C.3    63  VAL63       0.1561
     47  C         17.3610    7.3300   32.6960 C.2    63  VAL63       0.2260
     48  O         16.3450    6.6510   32.8820 O.2    63  VAL63      -0.2867
     49  CB        16.6800    9.0530   30.9900 C.3    63  VAL63       0.0252
     50  CG1       16.5990   10.0430   32.1530 C.3    63  VAL63       0.0019
     51  CG2       17.0830    9.7780   29.7210 C.3    63  VAL63       0.0019
     52  N         23.8860   16.6440   27.9650 N.3    93  ASN93      -0.1240
     53  CA        23.8300   18.0720   28.2740 C.3    93  ASN93       0.1653
     54  C         24.3630   18.3430   29.6770 C.2    93  ASN93       0.2266
     55  O         23.6120   18.3580   30.6550 O.2    93  ASN93      -0.2867
     56  CB        22.4010   18.6120   28.1140 C.3    93  ASN93       0.1155
     57  CG        21.8550   18.4200   26.7080 C.2    93  ASN93       0.2627
     58  OD1       20.6570   18.2020   26.5210 O.2    93  ASN93      -0.2716
     59  ND2       22.7330   18.4960   25.7120 N.am   93  ASN93      -0.0877
     60  N         25.3000   22.3200   32.7960 N.3    96  ARG96      -0.1245
     61  CA        24.7700   22.5520   34.1370 C.3    96  ARG96       0.1563
     62  C         25.2990   21.5080   35.1250 C.2    96  ARG96       0.2260
     63  O         25.4060   20.3230   34.7930 O.2    96  ARG96      -0.2867
     64  CB        23.2390   22.5240   34.1160 C.3    96  ARG96       0.0307
     65  CG        22.5900   23.7040   33.4000 C.3    96  ARG96       0.0489
     66  CD        21.0670   23.6150   33.4140 C.3    96  ARG96       0.2205
     67  NE        20.5310   23.3300   34.7470 N.pl3  96  ARG96      -0.0865
     68  CZ        19.2600   23.5000   35.1080 C.cat  96  ARG96       0.5346
     69  NH1       18.3670   23.9710   34.2460 N.pl3  96  ARG96       0.1354
     70  NH2       18.8800   23.2030   36.3430 N.pl3  96  ARG96       0.1354
     71  N         23.0260   18.5900   36.0450 N.3    99  HIS99      -0.1241
     72  CA        22.8020   17.6770   34.9300 C.3    99  HIS99       0.1621
     73  C         23.9040   16.6190   34.8760 C.2    99  HIS99       0.2264
     74  O         25.0480   16.8910   35.2390 O.2    99  HIS99      -0.2867
     75  CB        22.7760   18.4550   33.6140 C.3    99  HIS99       0.0745
     76  CG        21.4550   19.0870   33.3000 C.ar   99  HIS99       0.0817
     77  ND1       20.8090   19.9420   34.1670 N.ar   99  HIS99      -0.2268
     78  CD2       20.6720   19.0060   32.1990 C.ar   99  HIS99       0.1154
     79  CE1       19.6770   20.3480   33.6190 C.ar   99  HIS99       0.1986
     80  NE2       19.5720   19.7950   32.4240 N.ar   99  HIS99      -0.2212
     81  N         16.4950   13.7100   37.1720 N.3   155  THR155     -0.1203
     82  CA        16.8210   12.8350   36.0390 C.3   155  THR155      0.1994
     83  C         17.6390   13.5680   34.9690 C.2   155  THR155      0.2618
     84  O         18.1230   12.9500   34.0150 O.2   155  THR155     -0.2717
     85  CB        15.5480   12.2110   35.3960 C.3   155  THR155      0.1784
     86  OG1       14.8370   13.2000   34.6390 O.3   155  THR155     -0.2211
     87  CG2       14.6220   11.6220   36.4640 C.3   155  THR155      0.0376
     88  N         17.8020   14.8790   35.1510 N.am  156  TRP156     -0.1961
     89  CA        18.3800   15.7630   34.1290 C.3   156  TRP156      0.1771
     90  C         19.7660   15.3330   33.6470 C.2   156  TRP156      0.2620
     91  O         20.6880   15.1750   34.4440 O.2   156  TRP156     -0.2715
     92  CB        18.4130   17.2200   34.6170 C.3   156  TRP156      0.0590
     93  CG        17.1380   17.6910   35.2860 C.ar  156  TRP156      0.0006
     94  CD1       15.8570   17.2950   34.9990 C.ar  156  TRP156      0.0946
     95  CD2       17.0290   18.6650   36.3330 C.ar  156  TRP156      0.0152
     96  NE1       14.9630   17.9480   35.8160 N.ar  156  TRP156     -0.2442
     97  CE2       15.6550   18.7950   36.6430 C.ar  156  TRP156      0.0810
     98  CE3       17.9590   19.4320   37.0480 C.ar  156  TRP156      0.0012
     99  CZ2       15.1880   19.6680   37.6350 C.ar  156  TRP156      0.0191
    100  CZ3       17.4920   20.3000   38.0360 C.ar  156  TRP156      0.0001
    101  CH2       16.1190   20.4090   38.3180 C.ar  156  TRP156      0.0015
    102  N         19.8910   15.1320   32.3360 N.am  157  GLY157     -0.1940
    103  CA        21.1670   14.7890   31.7100 C.3   157  GLY157      0.2014
    104  C         21.7370   13.4220   32.0470 C.2   157  GLY157      0.2639
    105  O         22.8780   13.1150   31.6830 O.2   157  GLY157     -0.2714
    106  N         20.9520   12.5930   32.7330 N.am  158  ASP158     -0.1957
    107  CA        21.4140   11.2720   33.1660 C.3   158  ASP158      0.1840
    108  C         21.3520   10.2620   32.0220 C.2   158  ASP158      0.2621
    109  O         20.6150    9.2720   32.0800 O.2   158  ASP158     -0.2715
    110  CB        20.6140   10.7810   34.3780 C.3   158  ASP158      0.1450
    111  CG        20.7460   11.6960   35.5830 C.2   158  ASP158      0.3671
    112  OD1       21.6010   12.6060   35.5800 O.co2 158  ASP158     -0.2456
    113  OD2       19.9900   11.5080   36.5550 O.co2 158  ASP158     -0.2456
    114  N         22.1500   10.5210   30.9890 N.am  159  GLU159     -0.1977
    115  CA        22.1830    9.6960   29.7870 C.3   159  GLU159      0.1602
    116  C         23.0220    8.4440   30.0160 C.2   159  GLU159      0.2287
    117  O         24.1150    8.3000   29.4620 O.2   159  GLU159     -0.2864
    118  CB        22.7210   10.5050   28.6040 C.3   159  GLU159      0.0415
    119  CG        21.9670   11.8050   28.3380 C.3   159  GLU159      0.1163
    120  CD        20.7240   11.6170   27.4860 C.2   159  GLU159      0.3649
    121  OE1       20.8440   11.0670   26.3740 O.co2 159  GLU159     -0.2457
    122  OE2       19.6290   12.0350   27.9240 O.co2 159  GLU159     -0.2457
@<TRIPOS>BOND
     1    41    40    2
     2    40    39    1
     3    34    35    1
     4    34    33    1
     5    36    35    1
     6    36    37    1
     7    30    29    1
     8    30    31    1
     9    30    33    1
    10    39    38    1
    11    39    42    1
    12    44    42    1
    13    28    26   ar
    14    31    32    2
    15    42    43    1
    16    27    26   ar
    17    26    25    1
    18    59    57   am
    19   121   120   ar
    20    25    22    1
    21    58    57    2
    22    57    56    1
    23    24    23    2
    24    23    22    1
    25   120   122   ar
    26   120   119    1
    27    22    21    1
    28    52    53    1
    29    56    53    1
    30    12    10   ar
    31    53    54    1
    32    11    10   ar
    33   119   118    1
    34    10     9    1
    35   118   115    1
    36    21    15   am
    37     9     6    1
    38   117   116    2
    39    20    18    1
    40    54    55    2
    41    51    49    1
    42   115   116    1
    43   115   114    1
    44    15    16    2
    45    15    14    1
    46    45    46    1
    47    18    17    1
    48     6     7    1
    49     6     5    1
    50     7     8    2
    51     7    13   am
    52   114   108   am
    53    49    46    1
    54    49    50    1
    55    13    14    1
    56    14    17    1
    57    46    47    1
    58     5     3   am
    59    17    19    1
    60   105   104    2
    61   103   104    1
    62   103   102    1
    63   108   109    2
    64   108   107    1
    65   104   106   am
    66    78    80   ar
    67    78    76   ar
    68   102    90   am
    69    80    79   ar
    70    47    48    2
    71   106   107    1
    72     1     2    1
    73    60    61    1
    74     3     4    2
    75     3     2    1
    76   107   110    1
    77    76    75    1
    78    76    77   ar
    79    65    66    1
    80    65    64    1
    81    66    67    1
    82    75    72    1
    83    79    77   ar
    84    90    89    1
    85    90    91    2
    86    84    83    2
    87    64    61    1
    88    89    92    1
    89    89    88    1
    90    61    62    1
    91    69    68    1
    92   110   111    1
    93    92    93    1
    94    86    85    1
    95    67    68    2
    96    63    62    2
    97    73    72    1
    98    73    74    2
    99    72    71    1
   100    83    88   am
   101    83    82    1
   102    94    93   ar
   103    94    96   ar
   104    68    70    1
   105    93    95   ar
   106    85    82    1
   107    85    87    1
   108   112   111   ar
   109   111   113   ar
   110    96    97   ar
   111    82    81    1
   112    95    97   ar
   113    95    98   ar
   114    97    99   ar
   115    98   100   ar
   116    99   101   ar
   117   100   101   ar
