@<TRIPOS>MOLECULE
tmp/2yguF00.pdb
 128 120 0 0 0
SMALL
GASTEIGER

@<TRIPOS>ATOM
      1  N         74.8800  149.9610  -26.1180 N.3    36  TRP36      -0.1241
      2  CA        75.6120  150.1510  -27.3760 C.3    36  TRP36       0.1605
      3  C         75.7410  151.6250  -27.7050 C.2    36  TRP36       0.2264
      4  O         76.8240  152.1030  -28.0080 O.2    36  TRP36      -0.2867
      5  CB        74.9050  149.4430  -28.5350 C.3    36  TRP36       0.0550
      6  CG        75.3290  148.0400  -28.7070 C.ar   36  TRP36       0.0003
      7  CD1       74.6290  146.9370  -28.3780 C.ar   36  TRP36       0.0946
      8  CD2       76.5830  147.5860  -29.2230 C.ar   36  TRP36       0.0152
      9  NE1       75.3560  145.8110  -28.6720 N.ar   36  TRP36      -0.2442
     10  CE2       76.5630  146.1850  -29.1860 C.ar   36  TRP36       0.0810
     11  CE3       77.7130  148.2300  -29.7110 C.ar   36  TRP36       0.0012
     12  CZ2       77.6150  145.4150  -29.6270 C.ar   36  TRP36       0.0191
     13  CZ3       78.7710  147.4610  -30.1560 C.ar   36  TRP36       0.0001
     14  CH2       78.7130  146.0660  -30.1150 C.ar   36  TRP36       0.0015
     15  N         79.1350  153.6340  -27.9900 N.3    40  MET40      -0.1245
     16  CA        79.5310  154.2720  -29.2550 C.3    40  MET40       0.1570
     17  C         79.6520  155.7960  -29.1070 C.2    40  MET40       0.2261
     18  O         80.5640  156.4200  -29.6760 O.2    40  MET40      -0.2867
     19  CB        78.5520  153.9290  -30.3770 C.3    40  MET40       0.0387
     20  CG        78.5670  152.4600  -30.8050 C.3    40  MET40       0.0595
     21  SD        80.1710  151.8560  -31.3900 S.3    40  MET40      -0.1393
     22  CE        80.6960  150.9410  -29.9350 C.3    40  MET40       0.0692
     23  N         81.4930  158.5750  -31.9500 N.3    45  VAL45      -0.1231
     24  CA        80.7950  158.3010  -33.2150 C.3    45  VAL45       0.1692
     25  C         79.7150  159.3570  -33.5150 C.2    45  VAL45       0.2592
     26  O         79.4620  159.6760  -34.6740 O.2    45  VAL45      -0.2718
     27  CB        80.1540  156.8910  -33.2190 C.3    45  VAL45       0.0266
     28  CG1       79.3030  156.6800  -34.4530 C.3    45  VAL45       0.0020
     29  CG2       81.2350  155.8210  -33.1320 C.3    45  VAL45       0.0020
     30  N         79.1020  159.9110  -32.4700 N.am   46  TYR46      -0.1976
     31  CA        78.0180  160.8920  -32.6290 C.3    46  TYR46       0.1639
     32  C         78.3750  162.3000  -32.1720 C.2    46  TYR46       0.2290
     33  O         77.5010  163.1600  -32.0920 O.2    46  TYR46      -0.2864
     34  CB        76.7480  160.4100  -31.8930 C.3    46  TYR46       0.0560
     35  CG        76.4500  158.9580  -32.1860 C.ar   46  TYR46      -0.0198
     36  CD1       76.1800  158.5380  -33.4840 C.ar   46  TYR46      -0.0009
     37  CD2       76.4990  157.9980  -31.1870 C.ar   46  TYR46      -0.0009
     38  CE1       75.9330  157.2030  -33.7710 C.ar   46  TYR46       0.0417
     39  CE2       76.2530  156.6590  -31.4710 C.ar   46  TYR46       0.0417
     40  CZ        75.9760  156.2750  -32.7680 C.ar   46  TYR46       0.1957
     41  OH        75.7440  154.9640  -33.0620 O.3    46  TYR46      -0.2866
     42  N         80.9660  155.5760  -38.1330 N.3    58  SER58      -0.1217
     43  CA        80.3570  154.2640  -37.9220 C.3    58  SER58       0.1889
     44  C         81.0720  153.1960  -38.7500 C.2    58  SER58       0.2288
     45  O         81.4380  152.1370  -38.2410 O.2    58  SER58      -0.2866
     46  CB        78.8870  154.3030  -38.2930 C.3    58  SER58       0.2089
     47  OG        78.1870  155.1840  -37.4180 O.3    58  SER58      -0.2183
     48  N         84.2620  152.3290  -37.2730 N.3    61  MET61      -0.1230
     49  CA        84.0830  151.5130  -36.0830 C.3    61  MET61       0.1702
     50  C         83.8920  150.0220  -36.4500 C.2    61  MET61       0.2592
     51  O         84.4250  149.1340  -35.7740 O.2    61  MET61      -0.2718
     52  CB        82.9020  152.0260  -35.2530 C.3    61  MET61       0.0401
     53  CG        82.7060  151.3020  -33.9100 C.3    61  MET61       0.0596
     54  SD        84.0610  151.4700  -32.7040 S.3    61  MET61      -0.1393
     55  CE        84.3120  153.2320  -32.6900 C.3    61  MET61       0.0692
     56  N         83.1480  149.7620  -37.5220 N.am   62  CYS62      -0.1970
     57  CA        82.9620  148.3960  -38.0090 C.3    62  CYS62       0.1712
     58  C         84.3070  147.6620  -38.1380 C.2    62  CYS62       0.2296
     59  O         84.4100  146.4930  -37.7500 O.2    62  CYS62      -0.2864
     60  CB        82.2440  148.3690  -39.3640 C.3    62  CYS62       0.0983
     61  SG        80.5040  148.8540  -39.3620 S.3    62  CYS62      -0.0798
     62  N         85.7850  146.7190  -34.3300 N.3    65  ILE65      -0.1245
     63  CA        85.1230  145.7220  -33.4610 C.3    65  ILE65       0.1561
     64  C         84.6820  144.4150  -34.1590 C.2    65  ILE65       0.2260
     65  O         83.9980  143.5940  -33.5540 O.2    65  ILE65      -0.2867
     66  CB        83.9310  146.3480  -32.7340 C.3    65  ILE65       0.0252
     67  CG1       82.7710  146.6250  -33.6850 C.3    65  ILE65       0.0019
     68  CG2       84.3590  147.6350  -32.0750 C.3    65  ILE65       0.0019
     69  CD1       81.6160  147.3600  -33.0290 C.3    65  ILE65       0.0001
     70  N         78.4710  145.0580  -41.9310 N.3    75  CYS75      -0.1235
     71  CA        78.3550  146.1290  -40.9230 C.3    75  CYS75       0.1677
     72  C         78.3870  147.5060  -41.5720 C.2    75  CYS75       0.2270
     73  O         77.6160  148.3820  -41.2060 O.2    75  CYS75      -0.2867
     74  CB        79.5120  146.0260  -39.9300 C.3    75  CYS75       0.0956
     75  SG        79.5370  147.2400  -38.6020 S.3    75  CYS75      -0.0801
     76  N         75.3960  150.1200  -41.5300 N.3    79  ALA79      -0.1245
     77  CA        75.6140  151.4450  -40.9410 C.3    79  ALA79       0.1562
     78  C         75.1270  152.5360  -41.8820 C.2    79  ALA79       0.2260
     79  O         74.4390  153.4700  -41.4750 O.2    79  ALA79      -0.2867
     80  CB        77.0810  151.6490  -40.6360 C.3    79  ALA79       0.0290
     81  N         69.6140  154.9370  -34.7610 N.3   100  ILE100     -0.1231
     82  CA        70.6280  154.3310  -35.6130 C.3   100  ILE100      0.1692
     83  C         71.1050  153.0310  -34.9830 C.2   100  ILE100      0.2591
     84  O         71.1860  151.9970  -35.6410 O.2   100  ILE100     -0.2718
     85  CB        71.8500  155.2670  -35.8070 C.3   100  ILE100      0.0266
     86  CG1       71.4860  156.4690  -36.6820 C.3   100  ILE100      0.0019
     87  CG2       73.0320  154.5160  -36.4540 C.3   100  ILE100      0.0020
     88  CD1       72.5010  157.5630  -36.6370 C.3   100  ILE100      0.0001
     89  N         71.4330  153.0970  -33.6990 N.am  101  ILE101     -0.1980
     90  CA        71.9150  151.9330  -32.9590 C.3   101  ILE101      0.1595
     91  C         70.8660  150.8270  -32.9530 C.2   101  ILE101      0.2287
     92  O         71.1650  149.6480  -33.1730 O.2   101  ILE101     -0.2864
     93  CB        72.2980  152.3140  -31.5200 C.3   101  ILE101      0.0276
     94  CG1       73.6200  153.0800  -31.5370 C.3   101  ILE101      0.0022
     95  CG2       72.4410  151.0790  -30.6390 C.3   101  ILE101      0.0022
     96  CD1       74.8190  152.2170  -31.8980 C.3   101  ILE101      0.0001
     97  N         70.8240  149.0890  -36.3080 N.3   104  ALA104     -0.1231
     98  CA        71.9640  148.1750  -36.4530 C.3   104  ALA104      0.1694
     99  C         71.7950  146.9190  -35.6090 C.2   104  ALA104      0.2591
    100  O         72.1760  145.8440  -36.0390 O.2   104  ALA104     -0.2718
    101  CB        73.2590  148.8690  -36.0680 C.3   104  ALA104      0.0304
    102  N         71.2650  147.0680  -34.4000 N.am  105  LEU105     -0.1980
    103  CA        71.0780  145.9240  -33.5000 C.3   105  LEU105      0.1596
    104  C         70.0420  144.9780  -34.1000 C.2   105  LEU105      0.2287
    105  O         70.2290  143.7720  -34.1730 O.2   105  LEU105     -0.2864
    106  CB        70.6020  146.3780  -32.1330 C.3   105  LEU105      0.0297
    107  CG        70.5670  145.2660  -31.0820 C.3   105  LEU105      0.0022
    108  CD1       71.9630  145.0020  -30.5550 C.3   105  LEU105      0.0001
    109  CD2       69.6310  145.6130  -29.9190 C.3   105  LEU105      0.0001
    110  N         74.0420  143.1140  -36.4610 N.3   109  VAL109     -0.1231
    111  CA        75.4550  143.4820  -36.4530 C.3   109  VAL109      0.1692
    112  C         76.1430  143.1300  -35.1210 C.2   109  VAL109      0.2591
    113  O         77.3000  142.7060  -35.1090 O.2   109  VAL109     -0.2718
    114  CB        75.6680  144.9850  -36.7540 C.3   109  VAL109      0.0266
    115  CG1       77.1300  145.3520  -36.6520 C.3   109  VAL109      0.0020
    116  CG2       75.1300  145.3330  -38.1490 C.3   109  VAL109      0.0020
    117  N         75.4300  143.2730  -34.0120 N.am  110  ALA110     -0.1980
    118  CA        76.0380  143.0440  -32.7000 C.3   110  ALA110      0.1597
    119  C         76.5690  141.6320  -32.5600 C.2   110  ALA110      0.2287
    120  O         77.6180  141.4160  -31.9470 O.2   110  ALA110     -0.2864
    121  CB        75.0590  143.3340  -31.5870 C.3   110  ALA110      0.0319
    122  N         80.1860  140.9420  -33.8440 N.3   113  THR113     -0.1218
    123  CA        81.3130  141.6650  -33.2400 C.3   113  THR113      0.1862
    124  C         82.1710  140.7410  -32.3850 C.2   113  THR113      0.2287
    125  O         81.7350  139.6850  -31.9410 O.2   113  THR113     -0.2866
    126  CB        80.8600  142.8570  -32.3820 C.3   113  THR113      0.1770
    127  OG1       80.3060  142.3770  -31.1470 O.3   113  THR113     -0.2211
    128  CG2       79.8370  143.7060  -33.1270 C.3   113  THR113      0.0375
@<TRIPOS>BOND
     1    70    71    1
     2    78    79    2
     3    78    77    1
     4    72    73    2
     5    72    71    1
     6    76    77    1
     7    77    80    1
     8    71    74    1
     9    74    75    1
    10    60    61    1
    11    60    57    1
    12    61    75    1
    13    44    45    2
    14    44    43    1
    15    46    43    1
    16    46    47    1
    17   116   114    1
    18    58    57    1
    19    58    59    2
    20    42    43    1
    21    57    56    1
    22    56    50   am
    23    48    49    1
    24   114   115    1
    25   114   111    1
    26    86    88    1
    27    86    85    1
    28   110   111    1
    29    87    85    1
    30    98    97    1
    31    98   101    1
    32    98    99    1
    33   111   112    1
    34    50    49    1
    35    50    51    2
    36    49    52    1
    37   100    99    2
    38    85    82    1
    39    84    83    2
    40    82    83    1
    41    82    81    1
    42    99   102   am
    43    52    53    1
    44   112   113    2
    45   112   117   am
    46    83    89   am
    47    26    25    2
    48    28    27    1
    49   102   103    1
    50    62    63    1
    51   105   104    2
    52    64    65    2
    53    64    63    1
    54   104   103    1
    55   117   118    1
    56    53    54    1
    57   122   123    1
    58    38    36   ar
    59    38    40   ar
    60    89    90    1
    61    67    69    1
    62    67    66    1
    63    25    24    1
    64    25    30   am
    65   103   106    1
    66    36    35   ar
    67    63    66    1
    68   123   124    1
    69   123   126    1
    70    27    24    1
    71    27    29    1
    72    24    23    1
    73    92    91    2
    74   128   126    1
    75    41    40    1
    76    90    91    1
    77    90    93    1
    78    40    39   ar
    79    66    68    1
    80    54    55    1
    81   118   119    1
    82   118   121    1
    83    31    30    1
    84    31    32    1
    85    31    34    1
    86   119   120    2
    87   124   125    2
    88   126   127    1
    89    35    34    1
    90    35    37   ar
    91    32    33    2
    92   106   107    1
    93    96    94    1
    94    94    93    1
    95    93    95    1
    96    39    37   ar
    97    21    20    1
    98    21    22    1
    99   107   108    1
   100   107   109    1
   101    20    19    1
   102    19    16    1
   103    13    14   ar
   104    13    11   ar
   105    14    12   ar
   106    11     8   ar
   107    18    17    2
   108    12    10   ar
   109    16    17    1
   110    16    15    1
   111     8    10   ar
   112     8     6   ar
   113    10     9   ar
   114     6     5    1
   115     6     7   ar
   116     9     7   ar
   117     5     2    1
   118     4     3    2
   119     3     2    1
   120     2     1    1
