@<TRIPOS>MOLECULE
tmp/2ygvC00.pdb
 141 140 0 0 0
SMALL
GASTEIGER

@<TRIPOS>ATOM
      1  N          6.7070   19.0560  -47.6470 N.3    28  PHE28      -0.1241
      2  CA         6.8670   18.9030  -49.0810 C.3    28  PHE28       0.1605
      3  C          8.0060   17.8970  -49.4180 C.2    28  PHE28       0.2264
      4  O          8.8820   17.6740  -48.5870 O.2    28  PHE28      -0.2867
      5  CB         7.1330   20.2920  -49.7130 C.3    28  PHE28       0.0534
      6  CG         8.5150   20.8140  -49.3960 C.ar   28  PHE28      -0.0203
      7  CD1        8.7510   21.5440  -48.2360 C.ar   28  PHE28      -0.0042
      8  CD2        9.5980   20.4970  -50.2100 C.ar   28  PHE28      -0.0042
      9  CE1       10.0400   21.9670  -47.9080 C.ar   28  PHE28      -0.0003
     10  CE2       10.8790   20.9320  -49.8840 C.ar   28  PHE28      -0.0003
     11  CZ        11.0900   21.6830  -48.7490 C.ar   28  PHE28      -0.0000
     12  N         16.5560   28.6100  -53.5180 N.3    37  ASP37      -0.1239
     13  CA        15.6370   28.6050  -52.3910 C.3    37  ASP37       0.1674
     14  C         14.1990   28.5090  -52.9080 C.2    37  ASP37       0.2266
     15  O         13.9030   28.8940  -54.0640 O.2    37  ASP37      -0.2867
     16  CB        15.7680   29.9170  -51.6000 C.3    37  ASP37       0.1410
     17  CG        16.9690   30.0550  -50.6920 C.2    37  ASP37       0.3668
     18  OD1       17.5770   29.0140  -50.3300 O.co2  37  ASP37      -0.2456
     19  OD2       17.2500   31.1850  -50.2670 O.co2  37  ASP37      -0.2456
     20  N          3.1230   37.4460  -45.3710 N.3    58  ASP58      -0.1225
     21  CA         4.5200   37.1250  -45.0850 C.3    58  ASP58       0.1805
     22  C          5.1370   36.2330  -46.1490 C.2    58  ASP58       0.2598
     23  O          4.4310   35.5700  -46.9080 O.2    58  ASP58      -0.2718
     24  CB         4.6670   36.4270  -43.7070 C.3    58  ASP58       0.1424
     25  CG         5.8890   36.8120  -42.8930 C.2    58  ASP58       0.3668
     26  OD1        6.9810   36.9280  -43.4810 O.co2  58  ASP58      -0.2456
     27  OD2        5.7620   36.9370  -41.6600 O.co2  58  ASP58      -0.2456
     28  N          6.4740   36.1890  -46.1460 N.am   59  SER59      -0.1938
     29  CA         7.2960   35.3880  -47.0260 C.3    59  SER59       0.2055
     30  C          8.3190   34.6680  -46.1920 C.2    59  SER59       0.2643
     31  O          8.7520   35.1600  -45.1430 O.2    59  SER59      -0.2714
     32  CB         8.0230   36.2750  -48.0330 C.3    59  SER59       0.2130
     33  OG         7.1790   36.6790  -49.0980 O.3    59  SER59      -0.2179
     34  N          8.7320   33.5080  -46.6690 N.am   60  ILE60      -0.1963
     35  CA         9.7600   32.7220  -46.0130 C.3    60  ILE60       0.1727
     36  C         10.5500   31.9740  -47.0720 C.2    60  ILE60       0.2616
     37  O          9.9740   31.4520  -48.0340 O.2    60  ILE60      -0.2715
     38  CB         9.2120   31.8200  -44.8460 C.3    60  ILE60       0.0290
     39  CG1       10.3530   31.2810  -43.9520 C.3    60  ILE60       0.0022
     40  CG2        8.3540   30.6760  -45.3550 C.3    60  ILE60       0.0023
     41  CD1        9.9820   31.0220  -42.5400 C.3    60  ILE60       0.0001
     42  N         11.8670   31.9420  -46.9020 N.am   61  LEU61      -0.1963
     43  CA        12.7360   31.2070  -47.8010 C.3    61  LEU61       0.1728
     44  C         13.1460   29.9080  -47.1610 C.2    61  LEU61       0.2616
     45  O         13.5080   29.8820  -45.9920 O.2    61  LEU61      -0.2715
     46  CB        13.9790   32.0160  -48.1630 C.3    61  LEU61       0.0311
     47  CG        13.7420   33.2650  -49.0060 C.3    61  LEU61       0.0022
     48  CD1       14.8560   34.2700  -48.7610 C.3    61  LEU61       0.0001
     49  CD2       13.5650   32.9230  -50.4940 C.3    61  LEU61       0.0001
     50  N         13.0230   28.8180  -47.9120 N.am   62  VAL62      -0.1963
     51  CA        13.4500   27.4960  -47.4680 C.3    62  VAL62       0.1727
     52  C         14.8340   27.3350  -48.0810 C.2    62  VAL62       0.2617
     53  O         14.9480   27.3250  -49.3180 O.2    62  VAL62      -0.2715
     54  CB        12.4680   26.3560  -47.8400 C.3    62  VAL62       0.0290
     55  CG1       13.1530   25.0020  -47.7800 C.3    62  VAL62       0.0023
     56  CG2       11.2660   26.3690  -46.9150 C.3    62  VAL62       0.0023
     57  N         15.8520   27.3100  -47.1860 N.am   63  GLY63      -0.1941
     58  CA        17.2930   27.2350  -47.4530 C.3    63  GLY63       0.1998
     59  C         17.7180   26.1830  -48.4510 C.2    63  GLY63       0.2480
     60  O         16.9250   25.7990  -49.3170 O.2    63  GLY63      -0.2729
     61  N         18.9560   25.6850  -48.3820 N.am   64  PRO64      -0.2726
     62  CA        19.3710   24.6390  -49.3390 C.3    64  PRO64       0.1402
     63  C         18.4420   23.4160  -49.2400 C.2    64  PRO64       0.2269
     64  O         18.3430   22.7850  -48.1780 O.2    64  PRO64      -0.2865
     65  CB        20.8080   24.3330  -48.9500 C.3    64  PRO64       0.0296
     66  CG        21.2090   25.4480  -48.0670 C.3    64  PRO64       0.0237
     67  CD        20.0140   26.0060  -47.4200 C.3    64  PRO64       0.0939
     68  N         17.2630   19.8880  -49.4390 N.3    66  PRO66      -0.2116
     69  CA        17.7900   18.5270  -49.6010 C.3    66  PRO66       0.1372
     70  C         16.7710   17.6260  -50.2830 C.2    66  PRO66       0.2244
     71  O         15.5720   17.8930  -50.2230 O.2    66  PRO66      -0.2868
     72  CB        18.0260   18.0700  -48.1620 C.3    66  PRO66       0.0268
     73  CG        17.0210   18.8020  -47.3620 C.3    66  PRO66       0.0207
     74  CD        16.7920   20.1180  -48.0520 C.3    66  PRO66       0.0892
     75  N         11.7500   13.8110  -48.1950 N.3    69  VAL69      -0.1231
     76  CA        10.6150   14.3620  -47.4530 C.3    69  VAL69       0.1692
     77  C         11.0450   15.3950  -46.4280 C.2    69  VAL69       0.2592
     78  O         11.7280   15.0760  -45.4480 O.2    69  VAL69      -0.2718
     79  CB         9.5990   13.3230  -46.9270 C.3    69  VAL69       0.0266
     80  CG1        8.4950   14.0070  -46.1280 C.3    69  VAL69       0.0020
     81  CG2        8.9900   12.5420  -48.0860 C.3    69  VAL69       0.0020
     82  N         10.6800   16.6470  -46.7060 N.am   70  ASN70      -0.1960
     83  CA        11.0130   17.7960  -45.8840 C.3    70  ASN70       0.1819
     84  C          9.8230   18.2790  -45.0890 C.2    70  ASN70       0.2621
     85  O          8.6830   17.9400  -45.4330 O.2    70  ASN70      -0.2715
     86  CB        11.6610   18.8800  -46.7260 C.3    70  ASN70       0.1195
     87  CG        12.9510   18.4040  -47.3750 C.2    70  ASN70       0.2630
     88  OD1       13.7660   17.6920  -46.7600 O.2    70  ASN70      -0.2716
     89  ND2       13.1570   18.7550  -48.6420 N.am   70  ASN70      -0.0877
     90  N         10.1000   18.9510  -43.9470 N.am   71  LYS71      -0.1963
     91  CA         9.0980   19.4830  -43.0140 C.3    71  LYS71       0.1728
     92  C          9.6190   20.7690  -42.4570 C.2    71  LYS71       0.2616
     93  O         10.8130   20.8570  -42.1570 O.2    71  LYS71      -0.2715
     94  CB         8.9110   18.5100  -41.8380 C.3    71  LYS71       0.0311
     95  CG         7.4750   18.1800  -41.4980 C.3    71  LYS71       0.0038
     96  CD         7.4280   17.0880  -40.4690 C.3    71  LYS71       0.0206
     97  CE         6.0430   16.6340  -40.0940 C.3    71  LYS71       0.1093
     98  NZ         5.3800   15.9010  -41.1960 N.3    71  LYS71      -0.1314
     99  N          8.7620   21.7740  -42.3150 N.am   72  PHE72      -0.1960
    100  CA         9.1450   23.0670  -41.7160 C.3    72  PHE72       0.1771
    101  C          7.9200   23.8320  -41.2030 C.2    72  PHE72       0.2619
    102  O          6.7770   23.4390  -41.4740 O.2    72  PHE72      -0.2715
    103  CB        10.0320   23.9340  -42.6510 C.3    72  PHE72       0.0574
    104  CG         9.2770   24.7250  -43.6930 C.ar   72  PHE72      -0.0200
    105  CD1        8.7960   24.1110  -44.8460 C.ar   72  PHE72      -0.0042
    106  CD2        9.0000   26.0690  -43.5000 C.ar   72  PHE72      -0.0042
    107  CE1        8.0690   24.8330  -45.7910 C.ar   72  PHE72      -0.0003
    108  CE2        8.2750   26.7920  -44.4470 C.ar   72  PHE72      -0.0003
    109  CZ         7.8040   26.1680  -45.5740 C.ar   72  PHE72      -0.0000
    110  N          8.1650   24.9220  -40.4600 N.am   73  VAL73      -0.1963
    111  CA         7.0930   25.7330  -39.9090 C.3    73  VAL73       0.1727
    112  C          7.1210   27.1420  -40.4240 C.2    73  VAL73       0.2616
    113  O          8.1170   27.8710  -40.2430 O.2    73  VAL73      -0.2715
    114  CB         6.9690   25.6470  -38.3690 C.3    73  VAL73       0.0290
    115  CG1        6.1270   26.7980  -37.8040 C.3    73  VAL73       0.0023
    116  CG2        6.3880   24.2890  -37.9580 C.3    73  VAL73       0.0023
    117  N          6.0070   27.5230  -41.0800 N.am   74  PHE74      -0.1960
    118  CA         5.8680   28.8690  -41.5530 C.3    74  PHE74       0.1771
    119  C          5.0820   29.6320  -40.5030 C.2    74  PHE74       0.2620
    120  O          3.8990   29.3370  -40.2530 O.2    74  PHE74      -0.2715
    121  CB         5.2030   28.8880  -42.9300 C.3    74  PHE74       0.0574
    122  CG         5.1680   30.2160  -43.6520 C.ar   74  PHE74      -0.0200
    123  CD1        5.7500   31.3540  -43.0880 C.ar   74  PHE74      -0.0042
    124  CD2        4.5340   30.3340  -44.8840 C.ar   74  PHE74      -0.0042
    125  CE1        5.6910   32.5840  -43.7410 C.ar   74  PHE74      -0.0003
    126  CE2        4.4710   31.5610  -45.5360 C.ar   74  PHE74      -0.0003
    127  CZ         5.0590   32.6790  -44.9690 C.ar   74  PHE74      -0.0000
    128  N          5.7680   30.5740  -39.8520 N.am   75  SER75      -0.1950
    129  CA         5.1790   31.4600  -38.8460 C.3    75  SER75       0.1924
    130  C          4.9250   32.8050  -39.5090 C.2    75  SER75       0.2314
    131  O          5.7900   33.6930  -39.4730 O.2    75  SER75      -0.2863
    132  CB         6.1040   31.6150  -37.6450 C.3    75  SER75       0.2116
    133  OG         6.1700   30.3820  -36.9490 O.3    75  SER75      -0.2180
    134  N          3.1710   36.4520  -40.1610 N.3    77  ASP77      -0.1239
    135  CA         2.6330   37.6110  -39.4630 C.3    77  ASP77       0.1674
    136  C          1.1340   37.7210  -39.7040 C.2    77  ASP77       0.2266
    137  O          0.6960   37.3480  -40.7950 O.2    77  ASP77      -0.2867
    138  CB         3.3180   38.9090  -39.9540 C.3    77  ASP77       0.1410
    139  CG         4.7820   39.0870  -39.6020 C.2    77  ASP77       0.3668
    140  OD1        5.2210   38.5390  -38.5520 O.co2  77  ASP77      -0.2456
    141  OD2        5.4800   39.8020  -40.3480 O.co2  77  ASP77      -0.2456
@<TRIPOS>BOND
     1    15    14    2
     2    12    13    1
     3    14    13    1
     4    13    16    1
     5    16    17    1
     6    17    18   ar
     7    17    19   ar
     8    49    47    1
     9    70    71    2
    10    70    69    1
    11     8    10   ar
    12     8     6   ar
    13    10    11   ar
    14     5     6    1
    15     5     2    1
    16    69    68    1
    17    69    72    1
    18    68    74    1
    19     3     2    1
    20     3     4    2
    21     6     7   ar
    22    62    63    1
    23    62    65    1
    24    62    61    1
    25    53    52    2
    26    60    59    2
    27    63    64    2
    28    33    32    1
    29     2     1    1
    30    47    48    1
    31    47    46    1
    32    65    66    1
    33    11     9   ar
    34    89    87   am
    35    59    61   am
    36    59    58    1
    37    61    67    1
    38     7     9   ar
    39    75    76    1
    40    46    43    1
    41    72    73    1
    42    81    79    1
    43    52    51    1
    44    52    57   am
    45    66    67    1
    46    74    73    1
    47    37    36    2
    48    32    29    1
    49    50    51    1
    50    50    44   am
    51    54    55    1
    52    54    51    1
    53    54    56    1
    54    43    44    1
    55    43    42    1
    56    76    79    1
    57    76    77    1
    58    58    57    1
    59    87    88    2
    60    87    86    1
    61    44    45    2
    62    36    42   am
    63    36    35    1
    64    29    30    1
    65    29    28    1
    66    79    80    1
    67    23    22    2
    68    86    83    1
    69    82    77   am
    70    82    83    1
    71    34    30   am
    72    34    35    1
    73    77    78    2
    74    30    31    2
    75    22    28   am
    76    22    21    1
    77    35    38    1
    78    83    84    1
    79   107   109   ar
    80   107   105   ar
    81   109   108   ar
    82   126   127   ar
    83   126   124   ar
    84    85    84    2
    85    20    21    1
    86    40    38    1
    87    84    90   am
    88    21    24    1
    89   127   125   ar
    90   124   122   ar
    91    38    39    1
    92   105   104   ar
    93   108   106   ar
    94    39    41    1
    95    90    91    1
    96   125   123   ar
    97    24    25    1
    98   104   106   ar
    99   104   103    1
   100   122   123   ar
   101   122   121    1
   102    26    25   ar
   103    91    92    1
   104    91    94    1
   105   121   118    1
   106    25    27   ar
   107   103   100    1
   108    92    99   am
   109    92    93    2
   110    99   100    1
   111    94    95    1
   112   100   101    1
   113   118   117    1
   114   118   119    1
   115    95    96    1
   116   102   101    2
   117   101   110   am
   118    98    97    1
   119   117   112   am
   120   137   136    2
   121   119   120    2
   122   119   128   am
   123    96    97    1
   124   110   111    1
   125   112   113    2
   126   112   111    1
   127   141   139   ar
   128   134   135    1
   129   138   139    1
   130   138   135    1
   131   111   114    1
   132   128   129    1
   133   136   135    1
   134   139   140   ar
   135   130   131    2
   136   130   129    1
   137   129   132    1
   138   114   116    1
   139   114   115    1
   140   132   133    1
