@<TRIPOS>MOLECULE
tmp/2ygvD00.pdb
 150 148 0 0 0
SMALL
GASTEIGER

@<TRIPOS>ATOM
      1  N         18.0530   54.4050    8.6390 N.3    28  PHE28      -0.1241
      2  CA        16.6310   54.5450    8.9220 C.3    28  PHE28       0.1605
      3  C         16.2710   55.5470   10.0060 C.2    28  PHE28       0.2264
      4  O         17.1080   55.9180   10.8290 O.2    28  PHE28      -0.2867
      5  CB        16.0270   53.1690    9.2520 C.3    28  PHE28       0.0534
      6  CG        16.5380   52.4860   10.5040 C.ar   28  PHE28      -0.0203
      7  CD1       15.9260   52.7080   11.7410 C.ar   28  PHE28      -0.0042
      8  CD2       17.5680   51.5510   10.4360 C.ar   28  PHE28      -0.0042
      9  CE1       16.3760   52.0590   12.8960 C.ar   28  PHE28      -0.0003
     10  CE2       18.0110   50.8880   11.5910 C.ar   28  PHE28      -0.0003
     11  CZ        17.4060   51.1420   12.8120 C.ar   28  PHE28      -0.0000
     12  N         12.5510   44.1110   18.2720 N.3    37  ASP37      -0.1239
     13  CA        13.6270   44.1600   17.2910 C.3    37  ASP37       0.1674
     14  C         13.0440   44.3380   15.8790 C.2    37  ASP37       0.2266
     15  O         11.8690   44.0110   15.6230 O.2    37  ASP37      -0.2867
     16  CB        14.4020   42.8310   17.3290 C.3    37  ASP37       0.1410
     17  CG        15.3830   42.6470   18.4690 C.2    37  ASP37       0.3668
     18  OD1       15.7800   43.6680   19.0940 O.co2  37  ASP37      -0.2456
     19  OD2       15.8240   41.4940   18.6880 O.co2  37  ASP37      -0.2456
     20  N         13.5930   43.2100   11.8540 N.3    39  GLU39      -0.1245
     21  CA        14.2670   42.1110   11.1840 C.3    39  GLU39       0.1567
     22  C         14.4950   42.3850    9.7120 C.2    39  GLU39       0.2260
     23  O         13.5370   42.4790    8.9330 O.2    39  GLU39      -0.2867
     24  CB        13.5780   40.7530   11.4070 C.3    39  GLU39       0.0388
     25  CG        14.3670   39.5700   10.8570 C.3    39  GLU39       0.1160
     26  CD        13.6720   38.2270   10.9470 C.2    39  GLU39       0.3649
     27  OE1       12.4250   38.1780   10.8180 O.co2  39  GLU39      -0.2457
     28  OE2       14.3800   37.2200   11.1720 O.co2  39  GLU39      -0.2457
     29  N         19.9140   35.7010    4.0210 N.3    56  ASP56      -0.1225
     30  CA        20.2820   35.9720    5.4210 C.3    56  ASP56       0.1805
     31  C         19.2580   36.8310    6.1340 C.2    56  ASP56       0.2598
     32  O         18.4570   37.5210    5.5010 O.2    56  ASP56      -0.2718
     33  CB        21.6580   36.6840    5.5020 C.3    56  ASP56       0.1424
     34  CG        22.5260   36.2520    6.6590 C.2    56  ASP56       0.3668
     35  OD1       21.9870   36.0880    7.7760 O.co2  56  ASP56      -0.2456
     36  OD2       23.7510   36.1070    6.4590 O.co2  56  ASP56      -0.2456
     37  N         19.3470   36.8320    7.4580 N.am   57  SER57      -0.1938
     38  CA        18.5100   37.5970    8.3640 C.3    57  SER57       0.2055
     39  C         19.3990   38.2790    9.3850 C.2    57  SER57       0.2643
     40  O         20.4740   37.7640    9.7340 O.2    57  SER57      -0.2714
     41  CB        17.5360   36.6770    9.0970 C.3    57  SER57       0.2130
     42  OG        16.4490   36.2920    8.2750 O.3    57  SER57      -0.2179
     43  N         18.9400   39.4290    9.8810 N.am   58  ILE58      -0.1963
     44  CA        19.6480   40.1780   10.9030 C.3    58  ILE58       0.1727
     45  C         18.6470   40.9110   11.7670 C.2    58  ILE58       0.2616
     46  O         17.6660   41.4600   11.2570 O.2    58  ILE58      -0.2715
     47  CB        20.7990   41.0830   10.3380 C.3    58  ILE58       0.0290
     48  CG1       21.7750   41.5340   11.4510 C.3    58  ILE58       0.0022
     49  CG2       20.2640   42.2840    9.5470 C.3    58  ILE58       0.0023
     50  CD1       23.1750   41.8330   10.9810 C.3    58  ILE58       0.0001
     51  N         18.8810   40.8990   13.0790 N.am   59  LEU59      -0.1963
     52  CA        18.0230   41.5930   14.0200 C.3    59  LEU59       0.1728
     53  C         18.7030   42.8470   14.4600 C.2    59  LEU59       0.2616
     54  O         19.8820   42.8150   14.7980 O.2    59  LEU59      -0.2715
     55  CB        17.6930   40.7190   15.2410 C.3    59  LEU59       0.0311
     56  CG        16.7990   39.5060   14.9890 C.3    59  LEU59       0.0022
     57  CD1       17.0350   38.4490   16.0140 C.3    59  LEU59       0.0001
     58  CD2       15.3370   39.8970   14.9490 C.3    59  LEU59       0.0001
     59  N         17.9760   43.9630   14.4150 N.am   60  VAL60      -0.1963
     60  CA        18.4710   45.2590   14.8730 C.3    60  VAL60       0.1727
     61  C         17.9330   45.3780   16.2920 C.2    60  VAL60       0.2617
     62  O         16.6990   45.3900   16.4740 O.2    60  VAL60      -0.2715
     63  CB        18.0610   46.4350   13.9480 C.3    60  VAL60       0.0290
     64  CG1       18.1440   47.7710   14.6750 C.3    60  VAL60       0.0023
     65  CG2       18.9150   46.4580   12.6940 C.3    60  VAL60       0.0023
     66  N         18.8810   45.3790   17.2580 N.am   61  GLY61      -0.1941
     67  CA        18.6920   45.4110   18.7130 C.3    61  GLY61       0.1998
     68  C         17.7120   46.4440   19.2350 C.2    61  GLY61       0.2480
     69  O         16.8060   46.8540   18.5050 O.2    61  GLY61      -0.2729
     70  N         17.8350   46.8920   20.5020 N.am   62  PRO62      -0.2726
     71  CA        16.8670   47.8970   21.0150 C.3    62  PRO62       0.1402
     72  C         16.8820   49.1490   20.1410 C.2    62  PRO62       0.2269
     73  O         17.9260   49.7850   20.0300 O.2    62  PRO62      -0.2865
     74  CB        17.3310   48.1500   22.4500 C.3    62  PRO62       0.0296
     75  CG        18.2140   46.9940   22.7760 C.3    62  PRO62       0.0237
     76  CD        18.8470   46.5390   21.5120 C.3    62  PRO62       0.0939
     77  N         16.6620   52.6950   18.9950 N.3    64  PRO64      -0.2116
     78  CA        16.6000   54.0290   19.5930 C.3    64  PRO64       0.1372
     79  C         15.8660   54.9960   18.6930 C.2    64  PRO64       0.2244
     80  O         15.7840   54.7810   17.4790 O.2    64  PRO64      -0.2868
     81  CB        18.0840   54.4160   19.7330 C.3    64  PRO64       0.0268
     82  CG        18.7640   53.7120   18.6080 C.3    64  PRO64       0.0207
     83  CD        17.9910   52.4430   18.3840 C.3    64  PRO64       0.0892
     84  N         17.8150   58.9550   13.8360 N.3    67  VAL67      -0.1231
     85  CA        18.3200   58.4220   12.5810 C.3    67  VAL67       0.1692
     86  C         19.3940   57.4050   12.9030 C.2    67  VAL67       0.2592
     87  O         20.3820   57.7160   13.5850 O.2    67  VAL67      -0.2718
     88  CB        18.7480   59.5210   11.5990 C.3    67  VAL67       0.0266
     89  CG1       19.5200   58.9440   10.4190 C.3    67  VAL67       0.0020
     90  CG2       17.5310   60.2930   11.1120 C.3    67  VAL67       0.0020
     91  N         19.1490   56.1640   12.4760 N.am   68  ASN68      -0.1960
     92  CA        20.0300   55.0460   12.7630 C.3    68  ASN68       0.1819
     93  C         20.6600   54.4510   11.5120 C.2    68  ASN68       0.2621
     94  O         20.0560   54.4690   10.4320 O.2    68  ASN68      -0.2715
     95  CB        19.3190   54.0230   13.6590 C.3    68  ASN68       0.1195
     96  CG        18.7650   54.6200   14.9450 C.2    68  ASN68       0.2630
     97  OD1       19.4130   55.3960   15.6720 O.2    68  ASN68      -0.2716
     98  ND2       17.5550   54.2620   15.2590 N.am   68  ASN68      -0.0877
     99  N         21.9070   53.9780   11.6610 N.am   69  LYS69      -0.1963
    100  CA        22.7600   53.4390   10.5940 C.3    69  LYS69       0.1728
    101  C         23.3390   52.1160   11.0320 C.2    69  LYS69       0.2616
    102  O         23.7560   51.9780   12.1860 O.2    69  LYS69      -0.2715
    103  CB        23.9240   54.4220   10.3890 C.3    69  LYS69       0.0311
    104  CG        24.1580   54.8120    8.9570 C.3    69  LYS69       0.0038
    105  CD        25.2170   55.9000    8.8800 C.3    69  LYS69       0.0206
    106  CE        25.5160   56.3950    7.4840 C.3    69  LYS69       0.1093
    107  NZ        24.3470   57.0810    6.8650 N.3    69  LYS69      -0.1314
    108  N         23.4190   51.1560   10.1330 N.am   70  PHE70      -0.1960
    109  CA        24.0310   49.8430   10.4300 C.3    70  PHE70       0.1771
    110  C         24.4680   49.1170    9.1630 C.2    70  PHE70       0.2619
    111  O         24.1470   49.5530    8.0430 O.2    70  PHE70      -0.2715
    112  CB        23.1180   48.9420   11.3170 C.3    70  PHE70       0.0574
    113  CG        22.0290   48.1920   10.5850 C.ar   70  PHE70      -0.0200
    114  CD1       20.8550   48.8330   10.2100 C.ar   70  PHE70      -0.0042
    115  CD2       22.1950   46.8540   10.2450 C.ar   70  PHE70      -0.0042
    116  CE1       19.8660   48.1470    9.5070 C.ar   70  PHE70      -0.0003
    117  CE2       21.2080   46.1670    9.5310 C.ar   70  PHE70      -0.0003
    118  CZ        20.0590   46.8220    9.1520 C.ar   70  PHE70      -0.0000
    119  N         25.1980   48.0040    9.3360 N.am   71  VAL71      -0.1963
    120  CA        25.7040   47.2290    8.1990 C.3    71  VAL71       0.1727
    121  C         25.1620   45.8340    8.1990 C.2    71  VAL71       0.2616
    122  O         25.3780   45.0750    9.1650 O.2    71  VAL71      -0.2715
    123  CB        27.2480   47.2800    8.0290 C.3    71  VAL71       0.0290
    124  CG1       27.7560   46.1880    7.0830 C.3    71  VAL71       0.0023
    125  CG2       27.6840   48.6470    7.5350 C.3    71  VAL71       0.0023
    126  N         24.4460   45.5000    7.1120 N.am   72  PHE72      -0.1960
    127  CA        23.9490   44.1690    6.9220 C.3    72  PHE72       0.1771
    128  C         24.9640   43.4250    6.0650 C.2    72  PHE72       0.2620
    129  O         25.1920   43.7740    4.9070 O.2    72  PHE72      -0.2715
    130  CB        22.5670   44.1860    6.3000 C.3    72  PHE72       0.0574
    131  CG        21.8250   42.8610    6.2590 C.ar   72  PHE72      -0.0200
    132  CD1       22.4030   41.6940    6.7730 C.ar   72  PHE72      -0.0042
    133  CD2       20.5460   42.7790    5.7130 C.ar   72  PHE72      -0.0042
    134  CE1       21.7230   40.4780    6.7240 C.ar   72  PHE72      -0.0003
    135  CE2       19.8680   41.5610    5.6630 C.ar   72  PHE72      -0.0003
    136  CZ        20.4600   40.4190    6.1750 C.ar   72  PHE72      -0.0000
    137  N         25.6330   42.4460    6.6750 N.am   73  SER73      -0.1950
    138  CA        26.6110   41.5890    6.0140 C.3    73  SER73       0.1924
    139  C         25.9180   40.2780    5.7020 C.2    73  SER73       0.2314
    140  O         25.8760   39.3750    6.5370 O.2    73  SER73      -0.2863
    141  CB        27.8030   41.3460    6.9240 C.3    73  SER73       0.2116
    142  OG        28.5290   42.5460    7.1120 O.3    73  SER73      -0.2180
    143  N         25.0930   36.7140    3.7780 N.3    75  ASP75      -0.1239
    144  CA        25.8230   35.5990    3.2060 C.3    75  ASP75       0.1674
    145  C         25.4870   35.5460    1.7000 C.2    75  ASP75       0.2266
    146  O         24.3610   35.9290    1.3260 O.2    75  ASP75      -0.2867
    147  CB        25.4030   34.2780    3.8950 C.3    75  ASP75       0.1410
    148  CG        25.8080   34.1290    5.3440 C.2    75  ASP75       0.3668
    149  OD1       26.8690   34.6800    5.7270 O.co2  75  ASP75      -0.2456
    150  OD2       25.0820   33.4340    6.0940 O.co2  75  ASP75      -0.2456
@<TRIPOS>BOND
     1   146   145    2
     2   145   144    1
     3   144   143    1
     4   144   147    1
     5   147   148    1
     6    29    30    1
     7   129   128    2
     8   148   149   ar
     9   148   150   ar
    10    30    33    1
    11    30    31    1
    12    32    31    2
    13    33    34    1
    14   135   133   ar
    15   135   136   ar
    16   139   138    1
    17   139   140    2
    18   133   131   ar
    19   138   137    1
    20   138   141    1
    21   128   137   am
    22   128   127    1
    23    31    37   am
    24   136   134   ar
    25   131   130    1
    26   131   132   ar
    27   130   127    1
    28    36    34   ar
    29    34    35   ar
    30   134   132   ar
    31   107   106    1
    32   127   126    1
    33   141   142    1
    34   124   123    1
    35   126   121   am
    36    37    38    1
    37   106   105    1
    38   125   123    1
    39   123   120    1
    40   111   110    2
    41   121   120    1
    42   121   122    2
    43   120   119    1
    44    42    41    1
    45    38    41    1
    46    38    39    1
    47     1     2    1
    48   105   104    1
    49     2     5    1
    50     2     3    1
    51    23    22    2
    52   104   103    1
    53   118   116   ar
    54   118   117   ar
    55   110   119   am
    56   110   109    1
    57     5     6    1
    58    39    40    2
    59    39    43   am
    60   116   114   ar
    61   117   115   ar
    62    49    47    1
    63    22    21    1
    64    43    44    1
    65     3     4    2
    66   108   109    1
    67   108   101   am
    68   114   113   ar
    69   115   113   ar
    70    47    44    1
    71    47    48    1
    72   103   100    1
    73    89    88    1
    74   109   112    1
    75    94    93    2
    76     8     6   ar
    77     8    10   ar
    78     6     7   ar
    79   113   112    1
    80   100   101    1
    81   100    99    1
    82    27    26   ar
    83    25    26    1
    84    25    24    1
    85    44    45    1
    86    26    28   ar
    87    50    48    1
    88   101   102    2
    89    90    88    1
    90    21    24    1
    91    21    20    1
    92    46    45    2
    93    93    99   am
    94    93    92    1
    95    10    11   ar
    96    88    85    1
    97     7     9   ar
    98    45    51   am
    99    91    92    1
   100    91    86   am
   101    85    86    1
   102    85    84    1
   103    65    63    1
   104    92    95    1
   105    11     9   ar
   106    86    87    2
   107    51    52    1
   108    95    96    1
   109    63    64    1
   110    63    60    1
   111    52    53    1
   112    52    55    1
   113    59    53   am
   114    59    60    1
   115    53    54    2
   116    60    61    1
   117    96    98   am
   118    96    97    2
   119    58    56    1
   120    56    55    1
   121    56    57    1
   122    15    14    2
   123    14    13    1
   124    61    62    2
   125    61    66   am
   126    66    67    1
   127    13    16    1
   128    13    12    1
   129    16    17    1
   130    80    79    2
   131    83    82    1
   132    83    77    1
   133    17    19   ar
   134    17    18   ar
   135    69    68    2
   136    82    81    1
   137    79    78    1
   138    67    68    1
   139    77    78    1
   140    68    70   am
   141    78    81    1
   142    73    72    2
   143    72    71    1
   144    70    71    1
   145    70    76    1
   146    71    74    1
   147    76    75    1
   148    74    75    1
