@<TRIPOS>MOLECULE
tmp/2ygvB00.pdb
 159 160 0 0 0
SMALL
GASTEIGER

@<TRIPOS>ATOM
      1  N          2.9970   12.1900  -26.5450 N.3    28  PHE28      -0.1241
      2  CA         2.9500   11.3090  -25.3830 C.3    28  PHE28       0.1605
      3  C          2.2760    9.9840  -25.7110 C.2    28  PHE28       0.2264
      4  O          1.4580    9.8940  -26.6290 O.2    28  PHE28      -0.2867
      5  CB         2.2060   11.9780  -24.2330 C.3    28  PHE28       0.0534
      6  CG         0.7380   12.2150  -24.4930 C.ar   28  PHE28      -0.0203
      7  CD1       -0.1990   11.2210  -24.2410 C.ar   28  PHE28      -0.0042
      8  CD2        0.2840   13.4540  -24.9170 C.ar   28  PHE28      -0.0042
      9  CE1       -1.5530   11.4470  -24.4510 C.ar   28  PHE28      -0.0003
     10  CE2       -1.0740   13.6820  -25.1160 C.ar   28  PHE28      -0.0003
     11  CZ        -1.9820   12.6720  -24.8850 C.ar   28  PHE28      -0.0000
     12  N         -9.9490   14.2010  -18.7330 N.3    37  ASP37      -0.1239
     13  CA        -9.1060   15.0460  -19.5550 C.3    37  ASP37       0.1674
     14  C         -7.7340   15.2420  -18.9150 C.2    37  ASP37       0.2266
     15  O         -7.5850   15.1560  -17.6880 O.2    37  ASP37      -0.2867
     16  CB        -9.7690   16.4290  -19.6990 C.3    37  ASP37       0.1410
     17  CG       -10.9430   16.5380  -20.6650 C.2    37  ASP37       0.3668
     18  OD1      -11.0890   15.6480  -21.5380 O.co2  37  ASP37      -0.2456
     19  OD2      -11.6540   17.5540  -20.6080 O.co2  37  ASP37      -0.2456
     20  N         -1.1670   29.9440  -20.1070 N.3    58  ASP58      -0.1225
     21  CA        -2.3270   29.2880  -20.7110 C.3    58  ASP58       0.1805
     22  C         -2.5040   27.8650  -20.2180 C.2    58  ASP58       0.2598
     23  O         -1.5800   27.2420  -19.7050 O.2    58  ASP58      -0.2718
     24  CB        -2.1880   29.2380  -22.2580 C.3    58  ASP58       0.1424
     25  CG        -3.4740   29.4550  -23.0300 C.2    58  ASP58       0.3668
     26  OD1       -4.5180   28.9110  -22.6120 O.co2  58  ASP58      -0.2456
     27  OD2       -3.4260   30.1200  -24.0860 O.co2  58  ASP58      -0.2456
     28  N         -3.7040   27.3450  -20.4410 N.am   59  SER59      -0.1938
     29  CA        -4.1330   26.0000  -20.1120 C.3    59  SER59       0.2055
     30  C         -4.8310   25.4110  -21.3050 C.2    59  SER59       0.2643
     31  O         -5.4750   26.1260  -22.0790 O.2    59  SER59      -0.2714
     32  CB        -5.1110   26.0330  -18.9460 C.3    59  SER59       0.2130
     33  OG        -4.4440   26.2030  -17.7060 O.3    59  SER59      -0.2179
     34  N         -4.7200   24.1030  -21.4490 N.am   60  ILE60      -0.1963
     35  CA        -5.3860   23.3830  -22.5230 C.3    60  ILE60       0.1727
     36  C         -5.8000   22.0030  -22.0340 C.2    60  ILE60       0.2616
     37  O         -5.0490   21.3420  -21.3100 O.2    60  ILE60      -0.2715
     38  CB        -4.5770   23.3790  -23.8610 C.3    60  ILE60       0.0290
     39  CG1       -5.4670   22.9810  -25.0540 C.3    60  ILE60       0.0022
     40  CG2       -3.3220   22.5010  -23.7770 C.3    60  ILE60       0.0023
     41  CD1       -5.0420   23.5510  -26.3760 C.3    60  ILE60       0.0001
     42  N         -7.0110   21.5910  -22.3990 N.am   61  LEU61      -0.1963
     43  CA        -7.5260   20.2750  -22.0520 C.3    61  LEU61       0.1728
     44  C         -7.4280   19.3680  -23.2520 C.2    61  LEU61       0.2616
     45  O         -7.7980   19.7620  -24.3580 O.2    61  LEU61      -0.2715
     46  CB        -8.9710   20.3450  -21.5600 C.3    61  LEU61       0.0311
     47  CG        -9.1910   21.0670  -20.2370 C.3    61  LEU61       0.0022
     48  CD1      -10.5580   21.6490  -20.1740 C.3    61  LEU61       0.0001
     49  CD2       -8.8930   20.1800  -19.0540 C.3    61  LEU61       0.0001
     50  N         -6.8840   18.1760  -23.0480 N.am   62  VAL62      -0.1963
     51  CA        -6.7890   17.1540  -24.0840 C.3    62  VAL62       0.1727
     52  C         -7.9790   16.2440  -23.8220 C.2    62  VAL62       0.2617
     53  O         -8.0570   15.6510  -22.7390 O.2    62  VAL62      -0.2715
     54  CB        -5.4340   16.4060  -24.0470 C.3    62  VAL62       0.0290
     55  CG1       -5.5170   15.0570  -24.7460 C.3    62  VAL62       0.0023
     56  CG2       -4.3370   17.2480  -24.6700 C.3    62  VAL62       0.0023
     57  N         -8.9010   16.2130  -24.8000 N.am   63  GLY63      -0.1941
     58  CA       -10.1870   15.5080  -24.8140 C.3    63  GLY63       0.1998
     59  C        -10.1640   14.0560  -24.3850 C.2    63  GLY63       0.2481
     60  O         -9.2430   13.6530  -23.6730 O.2    63  GLY63      -0.2729
     61  N        -11.1500   13.2130  -24.7780 N.am   64  PRO64      -0.2715
     62  CA       -11.0950   11.7890  -24.3780 C.3    64  PRO64       0.1536
     63  C         -9.7900   11.1420  -24.8540 C.2    64  PRO64       0.2598
     64  O         -9.5420   11.0910  -26.0640 O.2    64  PRO64      -0.2715
     65  CB       -12.3370   11.1940  -25.0320 C.3    64  PRO64       0.0310
     66  CG       -13.2400   12.3660  -25.2060 C.3    64  PRO64       0.0237
     67  CD       -12.3450   13.4900  -25.5870 C.3    64  PRO64       0.0939
     68  N         -8.9140   10.7640  -23.8870 N.am   65  VAL65      -0.1964
     69  CA        -7.5850   10.2440  -24.1900 C.3    65  VAL65       0.1712
     70  C         -7.5770    8.7850  -24.6630 C.2    65  VAL65       0.2458
     71  O         -7.7260    7.8800  -23.8460 O.2    65  VAL65      -0.2730
     72  CB        -6.4970   10.5350  -23.1150 C.3    65  VAL65       0.0289
     73  CG1       -5.1150   10.1970  -23.6550 C.3    65  VAL65       0.0023
     74  CG2       -6.5280   11.9840  -22.6360 C.3    65  VAL65       0.0023
     75  N         -7.3450    8.5230  -25.9670 N.am   66  PRO66      -0.2716
     76  CA        -7.2710    7.1290  -26.4190 C.3    66  PRO66       0.1536
     77  C         -5.9130    6.5190  -26.0910 C.2    66  PRO66       0.2598
     78  O         -4.9610    7.2420  -25.8280 O.2    66  PRO66      -0.2715
     79  CB        -7.4810    7.2370  -27.9310 C.3    66  PRO66       0.0310
     80  CG        -6.9490    8.5660  -28.2790 C.3    66  PRO66       0.0237
     81  CD        -7.1170    9.4600  -27.0880 C.3    66  PRO66       0.0939
     82  N         -5.8250    5.1960  -26.1420 N.am   67  VAL67      -0.1964
     83  CA        -4.5930    4.4580  -25.8700 C.3    67  VAL67       0.1727
     84  C         -3.6570    4.5730  -27.0670 C.2    67  VAL67       0.2617
     85  O         -4.1200    4.6290  -28.2130 O.2    67  VAL67      -0.2715
     86  CB        -4.9430    2.9910  -25.5130 C.3    67  VAL67       0.0290
     87  CG1       -3.7190    2.0850  -25.4530 C.3    67  VAL67       0.0023
     88  CG2       -5.7110    2.9440  -24.2010 C.3    67  VAL67       0.0023
     89  N         -2.3550    4.5800  -26.7840 N.am   68  GLY68      -0.1940
     90  CA        -1.3080    4.6130  -27.7920 C.3    68  GLY68       0.2014
     91  C         -0.5270    5.9000  -27.7980 C.2    68  GLY68       0.2639
     92  O         -0.6030    6.6700  -26.8410 O.2    68  GLY68      -0.2714
     93  N          0.2260    6.1340  -28.8850 N.am   69  VAL69      -0.1963
     94  CA         1.0290    7.3410  -29.0750 C.3    69  VAL69       0.1727
     95  C          0.1440    8.4500  -29.6590 C.2    69  VAL69       0.2616
     96  O         -0.4600    8.2900  -30.7280 O.2    69  VAL69      -0.2715
     97  CB         2.3290    7.0790  -29.8820 C.3    69  VAL69       0.0290
     98  CG1        3.0630    8.3830  -30.1980 C.3    69  VAL69       0.0023
     99  CG2        3.2430    6.1190  -29.1300 C.3    69  VAL69       0.0023
    100  N          0.0310    9.5520  -28.9080 N.am   70  ASN70      -0.1958
    101  CA        -0.8100   10.6930  -29.2610 C.3    70  ASN70       0.1819
    102  C          0.0140   11.9220  -29.5180 C.2    70  ASN70       0.2621
    103  O          1.1160   12.0640  -28.9750 O.2    70  ASN70      -0.2715
    104  CB        -1.8250   10.9610  -28.1660 C.3    70  ASN70       0.1195
    105  CG        -2.8070    9.8470  -28.0130 C.2    70  ASN70       0.2630
    106  OD1       -3.8180    9.8170  -28.6790 O.2    70  ASN70      -0.2716
    107  ND2       -2.5060    8.8880  -27.1680 N.am   70  ASN70      -0.0877
    108  N         -0.5300   12.8180  -30.3400 N.am   71  LYS71      -0.1963
    109  CA         0.1200   14.0630  -30.7520 C.3    71  LYS71       0.1728
    110  C         -0.8930   15.1840  -30.7130 C.2    71  LYS71       0.2616
    111  O         -2.0630   14.9590  -31.0320 O.2    71  LYS71      -0.2715
    112  CB         0.6090   13.8940  -32.2000 C.3    71  LYS71       0.0311
    113  CG         2.0300   14.3490  -32.4920 C.3    71  LYS71       0.0038
    114  CD         2.2910   14.1600  -33.9810 C.3    71  LYS71       0.0206
    115  CE         3.7350   14.3170  -34.3620 C.3    71  LYS71       0.1093
    116  NZ         4.6280   13.2990  -33.7260 N.3    71  LYS71      -0.1314
    117  N         -0.4620   16.3710  -30.3020 N.am   72  PHE72      -0.1960
    118  CA        -1.3060   17.5660  -30.3070 C.3    72  PHE72       0.1771
    119  C         -0.4670   18.8680  -30.2700 C.2    72  PHE72       0.2619
    120  O          0.7540   18.8300  -30.0340 O.2    72  PHE72      -0.2715
    121  CB        -2.4120   17.5470  -29.2520 C.3    72  PHE72       0.0574
    122  CG        -1.9620   18.0080  -27.8950 C.ar   72  PHE72      -0.0200
    123  CD1       -1.2440   17.1590  -27.0580 C.ar   72  PHE72      -0.0042
    124  CD2       -2.2500   19.2970  -27.4500 C.ar   72  PHE72      -0.0042
    125  CE1       -0.8250   17.5890  -25.8030 C.ar   72  PHE72      -0.0003
    126  CE2       -1.8170   19.7380  -26.1960 C.ar   72  PHE72      -0.0003
    127  CZ        -1.0980   18.8820  -25.3900 C.ar   72  PHE72      -0.0000
    128  N         -1.1340   20.0130  -30.5120 N.am   73  VAL73      -0.1963
    129  CA        -0.4710   21.2900  -30.5260 C.3    73  VAL73       0.1727
    130  C         -1.0240   22.2030  -29.4840 C.2    73  VAL73       0.2616
    131  O         -2.2230   22.5380  -29.4900 O.2    73  VAL73      -0.2715
    132  CB        -0.3670   21.9350  -31.9340 C.3    73  VAL73       0.0290
    133  CG1       -0.0210   23.4300  -31.8670 C.3    73  VAL73       0.0023
    134  CG2        0.6530   21.1960  -32.7900 C.3    73  VAL73       0.0023
    135  N         -0.1230   22.6240  -28.5840 N.am   74  PHE74      -0.1960
    136  CA        -0.4650   23.5690  -27.5520 C.3    74  PHE74       0.1771
    137  C         -0.0780   24.9290  -28.0690 C.2    74  PHE74       0.2620
    138  O          1.1080   25.2030  -28.2990 O.2    74  PHE74      -0.2715
    139  CB         0.2130   23.2150  -26.2130 C.3    74  PHE74       0.0574
    140  CG        -0.2200   24.0100  -25.0030 C.ar   74  PHE74      -0.0200
    141  CD1       -1.1980   24.9970  -25.1050 C.ar   74  PHE74      -0.0042
    142  CD2        0.3420   23.7730  -23.7610 C.ar   74  PHE74      -0.0042
    143  CE1       -1.6010   25.7340  -23.9840 C.ar   74  PHE74      -0.0003
    144  CE2       -0.0620   24.5140  -22.6350 C.ar   74  PHE74      -0.0003
    145  CZ        -1.0320   25.4870  -22.7530 C.ar   74  PHE74      -0.0000
    146  N         -1.0940   25.7530  -28.3280 N.am   75  SER75      -0.1950
    147  CA        -0.9080   27.1230  -28.7820 C.3    75  SER75       0.1924
    148  C         -1.1410   27.9990  -27.5720 C.2    75  SER75       0.2314
    149  O         -2.2770   28.3880  -27.2980 O.2    75  SER75      -0.2863
    150  CB        -1.8730   27.4720  -29.9120 C.3    75  SER75       0.2116
    151  OG        -1.6390   26.6620  -31.0510 O.3    75  SER75      -0.2180
    152  N         -0.8890   31.3310  -25.1580 N.3    77  ASP77      -0.1239
    153  CA        -0.9120   32.7800  -25.2870 C.3    77  ASP77       0.1674
    154  C          0.4180   33.3310  -24.7710 C.2    77  ASP77       0.2266
    155  O          0.9980   32.7190  -23.8790 O.2    77  ASP77      -0.2867
    156  CB        -2.0790   33.3810  -24.4820 C.3    77  ASP77       0.1410
    157  CG        -3.4780   33.0950  -25.0020 C.2    77  ASP77       0.3668
    158  OD1       -3.6420   32.9410  -26.2460 O.co2  77  ASP77      -0.2456
    159  OD2       -4.4160   33.0560  -24.1760 O.co2  77  ASP77      -0.2456
@<TRIPOS>BOND
     1   115   114    1
     2   115   116    1
     3   114   113    1
     4   134   132    1
     5   113   112    1
     6   112   109    1
     7   132   133    1
     8   132   129    1
     9   151   150    1
    10   111   110    2
    11   109   110    1
    12   109   108    1
    13    96    95    2
    14   110   117   am
    15   129   128    1
    16   129   130    1
    17   128   119   am
    18   108   102   am
    19   118   117    1
    20   118   119    1
    21   118   121    1
    22   119   120    2
    23    98    97    1
    24   150   147    1
    25    97    99    1
    26    97    94    1
    27    95    94    1
    28    95   100   am
    29   102   101    1
    30   102   103    2
    31   131   130    2
    32   130   135   am
    33   101   100    1
    34   101   104    1
    35   121   122    1
    36    94    93    1
    37    93    91   am
    38   147   146    1
    39   147   148    1
    40   106   105    2
    41   135   136    1
    42   146   137   am
    43   138   137    2
    44    80    79    1
    45    80    81    1
    46    85    84    2
    47   104   105    1
    48   137   136    1
    49   105   107   am
    50    79    76    1
    51   122   124   ar
    52   122   123   ar
    53    91    90    1
    54    91    92    2
    55    90    89    1
    56   148   149    2
    57   136   139    1
    58   124   126   ar
    59    81    75    1
    60    84    89   am
    61    84    83    1
    62   123   125   ar
    63     4     3    2
    64     1     2    1
    65    76    77    1
    66    76    75    1
    67    41    39    1
    68   158   157   ar
    69   139   140    1
    70   126   127   ar
    71    82    77   am
    72    82    83    1
    73    77    78    2
    74    64    63    2
    75    75    70   am
    76    83    86    1
    77   125   127   ar
    78     3     2    1
    79    67    66    1
    80    67    61    1
    81    86    87    1
    82    86    88    1
    83     2     5    1
    84   153   152    1
    85   153   154    1
    86   153   156    1
    87    66    65    1
    88    10     8   ar
    89    10    11   ar
    90   141   140   ar
    91   141   143   ar
    92    39    38    1
    93    65    62    1
    94   140   142   ar
    95   157   156    1
    96   157   159   ar
    97     8     6   ar
    98    11     9   ar
    99    63    62    1
   100    63    68   am
   101    58    57    1
   102    58    59    1
   103    57    52   am
   104    61    59   am
   105    61    62    1
   106   154   155    2
   107    55    54    1
   108    56    54    1
   109    70    69    1
   110    70    71    2
   111     6     7   ar
   112     6     5    1
   113     9     7   ar
   114    59    60    2
   115    45    44    2
   116    69    68    1
   117    69    72    1
   118    27    25   ar
   119    51    54    1
   120    51    52    1
   121    51    50    1
   122   143   145   ar
   123    38    40    1
   124    38    35    1
   125    52    53    2
   126   142   144   ar
   127    73    72    1
   128    44    50   am
   129    44    43    1
   130    72    74    1
   131    25    26   ar
   132    25    24    1
   133   145   144   ar
   134    35    36    1
   135    35    34    1
   136    42    43    1
   137    42    36   am
   138    24    21    1
   139    31    30    2
   140    43    46    1
   141    36    37    2
   142    46    47    1
   143    18    17   ar
   144    34    30   am
   145    30    29    1
   146    21    22    1
   147    21    20    1
   148    17    19   ar
   149    17    16    1
   150    28    22   am
   151    28    29    1
   152    47    48    1
   153    47    49    1
   154    22    23    2
   155    29    32    1
   156    16    13    1
   157    13    14    1
   158    13    12    1
   159    32    33    1
   160    14    15    2
