@<TRIPOS>MOLECULE
tmp/2yhdA01.pdb
 81 73 0 0 0
SMALL
GASTEIGER

@<TRIPOS>ATOM
      1  N         31.7850    9.0510   10.6340 N.3    42  LEU42      -0.1245
      2  CA        32.1620    8.7410   12.0250 C.3    42  LEU42       0.1561
      3  C         32.7220    9.9800   12.7270 C.2    42  LEU42       0.2260
      4  O         32.2890   10.2980   13.7970 O.2    42  LEU42      -0.2867
      5  CB        33.2060    7.5970   12.0930 C.3    42  LEU42       0.0270
      6  CG        33.0070    6.3340   12.9410 C.3    42  LEU42       0.0019
      7  CD1       31.7080    6.2860   13.8370 C.3    42  LEU42       0.0001
      8  CD2       33.0490    5.0980   12.0180 C.3    42  LEU42       0.0001
      9  N         30.8430   11.6520   16.0140 N.3    46  VAL46      -0.1245
     10  CA        31.5030   11.8050   17.2670 C.3    46  VAL46       0.1561
     11  C         31.2850   13.2350   17.7930 C.2    46  VAL46       0.2260
     12  O         30.8510   13.4190   18.9150 O.2    46  VAL46      -0.2867
     13  CB        32.9870   11.4670   17.1330 C.3    46  VAL46       0.0252
     14  CG1       33.8250   12.0130   18.3730 C.3    46  VAL46       0.0019
     15  CG2       33.1740    9.9420   17.0130 C.3    46  VAL46       0.0019
     16  N         28.8680   14.2320   21.0870 N.3    50  LYS50      -0.1245
     17  CA        29.4260   15.0300   22.1980 C.3    50  LYS50       0.1561
     18  C         28.7630   16.4520   22.4550 C.2    50  LYS50       0.2260
     19  O         28.8840   17.0030   23.5470 O.2    50  LYS50      -0.2867
     20  CB        30.9490   15.1670   22.0500 C.3    50  LYS50       0.0271
     21  CG        31.8210   13.9260   22.2760 C.3    50  LYS50       0.0035
     22  CD        33.2290   14.4390   22.6350 C.3    50  LYS50       0.0206
     23  CE        34.3930   13.4920   22.2880 C.3    50  LYS50       0.1093
     24  NZ        34.6250   12.4370   23.3510 N.3    50  LYS50      -0.1314
     25  N         32.8930    8.2620   30.4950 N.3    60  VAL60      -0.1245
     26  CA        33.6820    8.4950   29.2890 C.3    60  VAL60       0.1561
     27  C         33.9630    7.2510   28.4000 C.2    60  VAL60       0.2260
     28  O         34.1340    7.3690   27.1560 O.2    60  VAL60      -0.2867
     29  CB        34.9940    9.2400   29.6660 C.3    60  VAL60       0.0252
     30  CG1       35.8900    8.3730   30.5830 C.3    60  VAL60       0.0019
     31  CG2       35.7370    9.6200   28.4720 C.3    60  VAL60       0.0019
     32  N         30.6600    6.7010   26.6100 N.3    63  GLN63      -0.1231
     33  CA        30.4410    7.6180   25.5310 C.3    63  GLN63       0.1698
     34  C         31.0260    6.9660   24.2740 C.2    63  GLN63       0.2592
     35  O         30.3520    6.9100   23.2650 O.2    63  GLN63      -0.2718
     36  CB        31.0990    8.9870   25.8000 C.3    63  GLN63       0.0381
     37  CG        30.4620    9.8830   26.8990 C.3    63  GLN63       0.0905
     38  CD        31.2620   11.2140   27.0450 C.2    63  GLN63       0.2608
     39  OE1       31.6360   11.6290   28.1280 O.2    63  GLN63      -0.2717
     40  NE2       31.5650   11.8090   25.9470 N.am   63  GLN63      -0.0878
     41  N         32.2410    6.4400   24.3520 N.am   64  MET64      -0.1979
     42  CA        32.8310    5.6630   23.2510 C.3    64  MET64       0.1605
     43  C         32.0290    4.4330   22.8240 C.2    64  MET64       0.2287
     44  O         31.9310    4.1360   21.6510 O.2    64  MET64      -0.2864
     45  CB        34.2910    5.2930   23.5930 C.3    64  MET64       0.0413
     46  CG        34.9030    4.0990   22.8060 C.3    64  MET64       0.0598
     47  SD        36.6960    3.8250   23.1890 S.3    64  MET64      -0.1393
     48  CE        37.0510    2.2840   22.2920 C.3    64  MET64       0.0692
     49  N         28.4330    5.2270   20.9290 N.3    67  ILE67      -0.1231
     50  CA        28.7190    5.6450   19.5870 C.3    67  ILE67       0.1692
     51  C         29.2130    4.4330   18.6850 C.2    67  ILE67       0.2591
     52  O         28.7120    4.2590   17.5580 O.2    67  ILE67      -0.2718
     53  CB        29.7760    6.8000   19.6150 C.3    67  ILE67       0.0266
     54  CG1       29.1720    8.1190   20.1810 C.3    67  ILE67       0.0019
     55  CG2       30.4600    6.9850   18.2730 C.3    67  ILE67       0.0020
     56  CD1       30.2540    9.1040   20.5580 C.3    67  ILE67       0.0001
     57  N         30.2120    3.6590   19.1510 N.am   68  GLN68      -0.1979
     58  CA        30.7240    2.5070   18.3970 C.3    68  GLN68       0.1601
     59  C         29.7040    1.3720   18.2540 C.2    68  GLN68       0.2287
     60  O         29.8700    0.5020   17.3780 O.2    68  GLN68      -0.2864
     61  CB        32.0000    1.9770   19.0300 C.3    68  GLN68       0.0394
     62  CG        33.1920    2.8480   18.6700 C.3    68  GLN68       0.0908
     63  CD        34.4040    2.4870   19.4720 C.2    68  GLN68       0.2608
     64  OE1       34.2930    1.9220   20.5350 O.2    68  GLN68      -0.2717
     65  NE2       35.5710    2.8410   18.9770 N.am   68  GLN68      -0.0878
     66  N         39.6390    3.4460   11.1660 N.3   224  MET224     -0.1245
     67  CA        38.5920    3.3190   12.1950 C.3   224  MET224      0.1570
     68  C         37.5180    2.2980   11.8860 C.2   224  MET224      0.2261
     69  O         37.0580    1.6320   12.7990 O.2   224  MET224     -0.2867
     70  CB        37.9280    4.6690   12.5890 C.3   224  MET224      0.0387
     71  CG        38.8800    5.6510   13.2940 C.3   224  MET224      0.0595
     72  SD        38.2640    7.4050   13.3930 S.3   224  MET224     -0.1393
     73  CE        37.2970    7.6760   11.8390 C.3   224  MET224      0.0692
     74  N         36.6610   -0.7590   14.5260 N.3   228  ILE228     -0.1245
     75  CA        35.3110   -0.9310   15.0500 C.3   228  ILE228      0.1561
     76  C         34.6410   -2.2140   14.5400 C.2   228  ILE228      0.2260
     77  O         33.8690   -2.8800   15.2700 O.2   228  ILE228     -0.2867
     78  CB        34.5250    0.3510   14.6940 C.3   228  ILE228      0.0252
     79  CG1       34.9490    1.4450   15.6830 C.3   228  ILE228      0.0019
     80  CG2       33.0230    0.1640   14.7640 C.3   228  ILE228      0.0019
     81  CD1       34.8200    2.9080   15.1680 C.3   228  ILE228      0.0001
@<TRIPOS>BOND
     1     1     2    1
     2    66    67    1
     3    73    72    1
     4    68    67    1
     5    68    69    2
     6     8     6    1
     7     2     5    1
     8     2     3    1
     9     5     6    1
    10    67    70    1
    11    70    71    1
    12     3     4    2
    13     6     7    1
    14    71    72    1
    15    74    75    1
    16    76    75    1
    17    76    77    2
    18    78    80    1
    19    78    75    1
    20    78    79    1
    21    81    79    1
    22     9    10    1
    23    15    13    1
    24    13    10    1
    25    13    14    1
    26    10    11    1
    27    60    59    2
    28    52    51    2
    29    11    12    2
    30    59    58    1
    31    55    53    1
    32    58    61    1
    33    58    57    1
    34    62    61    1
    35    62    63    1
    36    51    57   am
    37    51    50    1
    38    65    63   am
    39    63    64    2
    40    50    53    1
    41    50    49    1
    42    53    54    1
    43    54    56    1
    44    16    17    1
    45    44    43    2
    46    20    17    1
    47    20    21    1
    48    17    18    1
    49    21    22    1
    50    23    22    1
    51    23    24    1
    52    48    47    1
    53    18    19    2
    54    46    47    1
    55    46    45    1
    56    43    42    1
    57    42    45    1
    58    42    41    1
    59    35    34    2
    60    34    41   am
    61    34    33    1
    62    33    36    1
    63    33    32    1
    64    36    37    1
    65    40    38   am
    66    37    38    1
    67    38    39    2
    68    28    27    2
    69    27    26    1
    70    31    29    1
    71    26    29    1
    72    26    25    1
    73    29    30    1
