@<TRIPOS>MOLECULE
tmp/2yhgA00.pdb
 149 146 0 0 0
SMALL
GASTEIGER

@<TRIPOS>ATOM
      1  N         43.9880   -9.0770   14.9410 N.3    27  MET27      -0.1245
      2  CA        44.2400   -8.0070   13.9650 C.3    27  MET27       0.1570
      3  C         45.2900   -7.0040   14.4630 C.2    27  MET27       0.2261
      4  O         45.5590   -6.0330   13.7610 O.2    27  MET27      -0.2867
      5  CB        42.9080   -7.2420   13.6420 C.3    27  MET27       0.0387
      6  CG        41.8690   -8.1100   12.9240 C.3    27  MET27       0.0595
      7  SD        40.3530   -7.2390   12.5350 S.3    27  MET27      -0.1393
      8  CE        40.9140   -6.2140   11.1830 C.3    27  MET27       0.0692
      9  N         48.0650   -4.8120   12.7320 N.3    30  GLU30      -0.1245
     10  CA        47.6930   -3.7740   11.7790 C.3    30  GLU30       0.1567
     11  C         47.5100   -2.4080   12.4200 C.2    30  GLU30       0.2260
     12  O         47.2530   -1.4510   11.6790 O.2    30  GLU30      -0.2867
     13  CB        46.3580   -4.1360   11.0730 C.3    30  GLU30       0.0388
     14  CG        46.3440   -5.4960   10.4120 C.3    30  GLU30       0.1160
     15  CD        47.3240   -5.6780    9.2650 C.2    30  GLU30       0.3649
     16  OE1       47.8250   -4.6680    8.6850 O.co2  30  GLU30      -0.2457
     17  OE2       47.4810   -6.8540    8.8370 O.co2  30  GLU30      -0.2457
     18  N         41.1970   -0.3270   10.2090 N.3   226  ALA226     -0.1231
     19  CA        41.8740   -1.5660    9.8830 C.3   226  ALA226      0.1694
     20  C         42.7120   -1.4950    8.6170 C.2   226  ALA226      0.2592
     21  O         43.5360   -2.3910    8.4140 O.2   226  ALA226     -0.2718
     22  CB        40.8640   -2.6840    9.7470 C.3   226  ALA226      0.0304
     23  N         42.4040   -0.5700    7.7000 N.am  227  ASN227     -0.1961
     24  CA        42.8880   -0.6350    6.3480 C.3   227  ASN227      0.1804
     25  C         43.3520    0.7170    5.8440 C.2   227  ASN227      0.2463
     26  O         42.6380    1.4120    5.1170 O.2   227  ASN227     -0.2730
     27  CB        41.7950   -1.1280    5.4010 C.3   227  ASN227      0.1195
     28  CG        41.2950   -2.4920    5.7300 C.2   227  ASN227      0.2630
     29  OD1       41.9740   -3.4860    5.5040 O.2   227  ASN227     -0.2716
     30  ND2       40.0640   -2.5750    6.1930 N.am  227  ASN227     -0.0877
     31  N         44.5920    1.1260    6.1800 N.am  228  PRO228     -0.2716
     32  CA        45.0510    2.4380    5.7410 C.3   228  PRO228      0.1536
     33  C         45.0390    2.6450    4.2330 C.2   228  PRO228      0.2599
     34  O         44.8660    3.7680    3.7770 O.2   228  PRO228     -0.2715
     35  CB        46.4640    2.5410    6.3340 C.3   228  PRO228      0.0310
     36  CG        46.4520    1.5810    7.5130 C.3   228  PRO228      0.0237
     37  CD        45.5430    0.4810    7.0990 C.3   228  PRO228      0.0939
     38  N         45.1950    1.5840    3.4470 N.am  229  GLY229     -0.1955
     39  CA        45.1350    1.7080    2.0050 C.3   229  GLY229      0.1869
     40  C         43.7330    1.8580    1.4550 C.2   229  GLY229      0.2309
     41  O         43.5730    2.2840    0.2990 O.2   229  GLY229     -0.2863
     42  N         35.6430   -0.4180    6.3040 N.3   241  TRP241     -0.1241
     43  CA        35.0730   -1.5010    7.0900 C.3   241  TRP241      0.1605
     44  C         34.3730   -1.0480    8.3640 C.2   241  TRP241      0.2264
     45  O         33.6490   -1.8520    8.9640 O.2   241  TRP241     -0.2867
     46  CB        36.1320   -2.5220    7.4210 C.3   241  TRP241      0.0550
     47  CG        36.6950   -3.3680    6.3400 C.ar  241  TRP241      0.0003
     48  CD1       36.5180   -3.2600    4.9930 C.ar  241  TRP241      0.0946
     49  CD2       37.5330   -4.4980    6.5650 C.ar  241  TRP241      0.0152
     50  NE1       37.1930   -4.2890    4.3580 N.ar  241  TRP241     -0.2442
     51  CE2       37.8110   -5.0650    5.3110 C.ar  241  TRP241      0.0810
     52  CE3       38.0520   -5.1010    7.7150 C.ar  241  TRP241      0.0012
     53  CZ2       38.5870   -6.2060    5.1590 C.ar  241  TRP241      0.0191
     54  CZ3       38.8070   -6.2440    7.5680 C.ar  241  TRP241      0.0001
     55  CH2       39.0600   -6.8010    6.2970 C.ar  241  TRP241      0.0015
     56  N         35.1890   -9.9090    2.7460 N.3   284  ALA284     -0.1245
     57  CA        36.5720   -9.6470    3.1010 C.3   284  ALA284      0.1562
     58  C         36.7760   -9.7060    4.6130 C.2   284  ALA284      0.2260
     59  O         37.7550  -10.2430    5.1040 O.2   284  ALA284     -0.2867
     60  CB        37.0360   -8.3220    2.5310 C.3   284  ALA284      0.0290
     61  N         39.0720  -12.4750    6.4770 N.3   288  ASP288     -0.1239
     62  CA        40.1690  -11.9480    7.2520 C.3   288  ASP288      0.1674
     63  C         40.2290  -12.6050    8.6360 C.2   288  ASP288      0.2266
     64  O         41.2820  -13.0860    9.0660 O.2   288  ASP288     -0.2867
     65  CB        40.0090  -10.4390    7.3520 C.3   288  ASP288      0.1410
     66  CG        41.0950   -9.7680    8.1230 C.2   288  ASP288      0.3668
     67  OD1       42.3000  -10.0490    7.9180 O.co2 288  ASP288     -0.2456
     68  OD2       40.7660   -8.9070    8.9460 O.co2 288  ASP288     -0.2456
     69  N         43.0350  -15.1790   10.2600 N.3   292  ARG292     -0.1245
     70  CA        43.8080  -14.8050   11.4400 C.3   292  ARG292      0.1563
     71  C         43.6610  -15.8040   12.5900 C.2   292  ARG292      0.2260
     72  O         44.6020  -15.9880   13.3560 O.2   292  ARG292     -0.2867
     73  CB        43.4610  -13.3820   11.8600 C.3   292  ARG292      0.0307
     74  CG        43.9250  -12.3470   10.8780 C.3   292  ARG292      0.0489
     75  CD        43.3500  -10.9820   11.1800 C.3   292  ARG292      0.2205
     76  NE        43.7950   -9.9550   10.2450 N.pl3 292  ARG292     -0.0865
     77  CZ        44.9740   -9.3730   10.2670 C.cat 292  ARG292      0.5346
     78  NH1       45.8130   -9.5650   11.2660 N.pl3 292  ARG292      0.1354
     79  NH2       45.2910   -8.5530    9.2820 N.pl3 292  ARG292      0.1354
     80  N         47.5570  -12.0250    3.4580 N.3   307  HIS307     -0.1227
     81  CA        46.9400  -11.0770    2.5470 C.3   307  HIS307      0.1737
     82  C         47.8390  -10.7440    1.3610 C.2   307  HIS307      0.2438
     83  O         49.0490  -10.5870    1.5240 O.2   307  HIS307     -0.2733
     84  CB        46.5350   -9.8170    3.2610 C.3   307  HIS307      0.0758
     85  CG        45.7460  -10.0720    4.4980 C.ar  307  HIS307      0.0818
     86  ND1       46.2910  -10.5990    5.6480 N.ar  307  HIS307     -0.2268
     87  CD2       44.4340   -9.8830    4.7400 C.ar  307  HIS307      0.1154
     88  CE1       45.3390  -10.6910    6.5640 C.ar  307  HIS307      0.1986
     89  NE2       44.1900  -10.3010    6.0230 N.ar  307  HIS307     -0.2212
     90  N         47.2230  -10.4800    0.2050 N.am  308  PRO308     -0.2729
     91  CA        48.0060   -9.9560   -0.9110 C.3   308  PRO308      0.1401
     92  C         48.4410   -8.5210   -0.6330 C.2   308  PRO308      0.2269
     93  O         47.9180   -7.8450    0.2660 O.2   308  PRO308     -0.2865
     94  CB        47.0370  -10.0310   -2.0760 C.3   308  PRO308      0.0296
     95  CG        45.6800  -10.0970   -1.4880 C.3   308  PRO308      0.0237
     96  CD        45.8050  -10.6960   -0.1460 C.3   308  PRO308      0.0939
     97  N         49.2250   -4.8530   -2.2750 N.3   310  PRO310     -0.2116
     98  CA        48.9780   -4.0390   -3.4650 C.3   310  PRO310      0.1372
     99  C         50.1310   -3.1140   -3.7890 C.2   310  PRO310      0.2244
    100  O         50.7490   -2.5300   -2.9010 O.2   310  PRO310     -0.2868
    101  CB        47.7820   -3.1640   -3.0920 C.3   310  PRO310      0.0268
    102  CG        47.2810   -3.6730   -1.8820 C.3   310  PRO310      0.0207
    103  CD        48.3280   -4.4820   -1.1750 C.3   310  PRO310      0.0892
    104  N         51.2250    1.7160    1.9940 N.3   318  GLU318     -0.1245
    105  CA        49.9510    1.3610    2.5720 C.3   318  GLU318      0.1567
    106  C         49.2020    2.5680    3.1000 C.2   318  GLU318      0.2260
    107  O         49.3000    2.9120    4.2940 O.2   318  GLU318     -0.2867
    108  CB        50.1790    0.4110    3.7250 C.3   318  GLU318      0.0388
    109  CG        48.9030   -0.2220    4.1700 C.3   318  GLU318      0.1160
    110  CD        49.1110   -1.0870    5.3520 C.2   318  GLU318      0.3649
    111  OE1       50.2730   -1.2700    5.7570 O.co2 318  GLU318     -0.2457
    112  OE2       48.1080   -1.5490    5.9070 O.co2 318  GLU318     -0.2457
    113  N         41.8160  -13.9470    0.6140 N.3   400  LEU400     -0.1231
    114  CA        42.0890  -12.7350    1.3510 C.3   400  LEU400      0.1693
    115  C         42.1950  -11.5370    0.4140 C.2   400  LEU400      0.2592
    116  O         42.6210  -11.6240   -0.7360 O.2   400  LEU400     -0.2718
    117  CB        43.3420  -12.8750    2.2030 C.3   400  LEU400      0.0284
    118  CG        43.1960  -13.7920    3.4050 C.3   400  LEU400      0.0019
    119  CD1       44.5210  -13.9510    4.0910 C.3   400  LEU400      0.0001
    120  CD2       42.1350  -13.2330    4.3760 C.3   400  LEU400      0.0001
    121  N         41.8090  -10.3860    0.9590 N.am  401  TYR401     -0.1962
    122  CA        41.6520   -9.1520    0.2000 C.3   401  TYR401      0.1771
    123  C         42.6490   -8.1070    0.6470 C.2   401  TYR401      0.2619
    124  O         43.0820   -8.0740    1.7990 O.2   401  TYR401     -0.2715
    125  CB        40.2300   -8.6120    0.3550 C.3   401  TYR401      0.0574
    126  CG        39.1610   -9.4990   -0.2580 C.ar  401  TYR401     -0.0198
    127  CD1       38.7480  -10.6980    0.3500 C.ar  401  TYR401     -0.0009
    128  CD2       38.5550   -9.1560   -1.4420 C.ar  401  TYR401     -0.0009
    129  CE1       37.7700  -11.4850   -0.2250 C.ar  401  TYR401      0.0417
    130  CE2       37.5970   -9.9370   -2.0240 C.ar  401  TYR401      0.0417
    131  CZ        37.1510  -11.0630   -1.3820 C.ar  401  TYR401      0.1957
    132  OH        36.2110  -11.8610   -2.0070 O.3   401  TYR401     -0.2866
    133  N         42.9380   -7.1850   -0.2580 N.am  402  ALA402     -0.1963
    134  CA        43.6760   -5.9750    0.0720 C.3   402  ALA402      0.1728
    135  C         43.1990   -4.8460   -0.8240 C.2   402  ALA402      0.2616
    136  O         42.5220   -5.0800   -1.8290 O.2   402  ALA402     -0.2715
    137  CB        45.1800   -6.1710   -0.0750 C.3   402  ALA402      0.0334
    138  N         43.5050   -3.6180   -0.4260 N.am  403  TYR403     -0.1974
    139  CA        42.9200   -2.4380   -1.0510 C.3   403  TYR403      0.1639
    140  C         43.9530   -1.3820   -1.3240 C.2   403  TYR403      0.2290
    141  O         44.8490   -1.1520   -0.5200 O.2   403  TYR403     -0.2864
    142  CB        41.8820   -1.8210   -0.1020 C.3   403  TYR403      0.0560
    143  CG        40.8000   -2.7730    0.3310 C.ar  403  TYR403     -0.0198
    144  CD1       39.7720   -3.1170   -0.5090 C.ar  403  TYR403     -0.0009
    145  CD2       40.8500   -3.3990    1.5800 C.ar  403  TYR403     -0.0009
    146  CE1       38.7970   -4.0140   -0.1030 C.ar  403  TYR403      0.0417
    147  CE2       39.8660   -4.2550    2.0060 C.ar  403  TYR403      0.0417
    148  CZ        38.8440   -4.5530    1.1600 C.ar  403  TYR403      0.1957
    149  OH        37.8350   -5.3910    1.6140 O.3   403  TYR403     -0.2866
@<TRIPOS>BOND
     1    99    98    1
     2    99   100    2
     3    98   101    1
     4    98    97    1
     5   101   102    1
     6    97   103    1
     7    94    95    1
     8    94    91    1
     9   130   128   ar
    10   130   131   ar
    11   132   131    1
    12   102   103    1
    13   136   135    2
    14    95    96    1
    15   128   126   ar
    16   131   129   ar
    17   140   139    1
    18   140   141    2
    19   139   138    1
    20   139   142    1
    21    91    92    1
    22    91    90    1
    23   135   138   am
    24   135   134    1
    25   116   115    2
    26    92    93    2
    27   144   146   ar
    28   144   143   ar
    29   126   127   ar
    30   126   125    1
    31   133   134    1
    32   133   123   am
    33   129   127   ar
    34    96    90    1
    35   146   148   ar
    36   142   143    1
    37   137   134    1
    38   122   125    1
    39   122   123    1
    40   122   121    1
    41    90    82   am
    42    41    40    2
    43   143   145   ar
    44   115   121   am
    45   115   114    1
    46   113   114    1
    47   123   124    2
    48   148   149    1
    49   148   147   ar
    50   114   117    1
    51    82    83    2
    52    82    81    1
    53    40    39    1
    54   145   147   ar
    55   104   105    1
    56    39    38    1
    57   117   118    1
    58    60    57    1
    59    81    84    1
    60    81    80    1
    61   105   106    1
    62   105   108    1
    63    56    57    1
    64   106   107    2
    65    57    58    1
    66    84    85    1
    67   118   119    1
    68   118   120    1
    69    38    33   am
    70   108   109    1
    71    34    33    2
    72   109   110    1
    73    33    32    1
    74    50    48   ar
    75    50    51   ar
    76    85    87   ar
    77    85    86   ar
    78    58    59    2
    79    87    89   ar
    80    48    47   ar
    81    26    25    2
    82    53    51   ar
    83    53    55   ar
    84    51    49   ar
    85   110   111   ar
    86   110   112   ar
    87    27    28    1
    88    27    24    1
    89    29    28    2
    90    86    88   ar
    91    28    30   am
    92    32    31    1
    93    32    35    1
    94    25    31   am
    95    25    24    1
    96    89    88   ar
    97    31    37    1
    98    55    54   ar
    99    42    43    1
   100    35    36    1
   101    47    49   ar
   102    47    46    1
   103    24    23    1
   104    61    62    1
   105    49    52   ar
   106    43    46    1
   107    43    44    1
   108    37    36    1
   109    62    65    1
   110    62    63    1
   111    65    66    1
   112    54    52   ar
   113    23    20   am
   114    67    66   ar
   115    66    68   ar
   116    44    45    2
   117    21    20    2
   118    20    19    1
   119    63    64    2
   120    16    15   ar
   121    17    15   ar
   122    15    14    1
   123    79    77    1
   124    22    19    1
   125    19    18    1
   126    76    77    2
   127    76    75    1
   128    69    70    1
   129    77    78    1
   130    14    13    1
   131    74    75    1
   132    74    73    1
   133    13    10    1
   134     8     7    1
   135    70    73    1
   136    70    71    1
   137    12    11    2
   138    10    11    1
   139    10     9    1
   140     7     6    1
   141    71    72    2
   142     6     5    1
   143     5     2    1
   144     4     3    2
   145     2     3    1
   146     2     1    1
