@<TRIPOS>MOLECULE
tmp/2yhhA00.pdb
 81 76 0 0 0
SMALL
GASTEIGER

@<TRIPOS>ATOM
      1  N        -39.2040   12.3700  217.2800 N.3    43  GLY43      -0.1210
      2  CA       -40.1400   12.2260  216.1150 C.3    43  GLY43       0.1956
      3  C        -39.3550   12.4000  214.8090 C.2    43  GLY43       0.2611
      4  O        -38.1930   12.7600  214.8120 O.2    43  GLY43      -0.2717
      5  N        -39.9730   12.1460  213.6860 N.am   44  ASN44      -0.1974
      6  CA       -39.2580   12.2950  212.3820 C.3    44  ASN44       0.1688
      7  C        -39.4850   13.7010  211.8380 C.2    44  ASN44       0.2292
      8  O        -40.5620   14.2540  211.9370 O.2    44  ASN44      -0.2864
      9  CB       -39.8040   11.2670  211.3810 C.3    44  ASN44       0.1181
     10  CG       -38.9770    9.9830  211.4520 C.2    44  ASN44       0.2629
     11  OD1      -38.7420    9.4530  212.5200 O.2    44  ASN44      -0.2716
     12  ND2      -38.5230    9.4590  210.3480 N.am   44  ASN44      -0.0877
     13  N        -38.7270   15.4100  208.2960 N.3    46  ASP46      -0.1225
     14  CA       -38.2010   15.4110  206.9020 C.3    46  ASP46       0.1805
     15  C        -36.9870   14.4640  206.7110 C.2    46  ASP46       0.2598
     16  O        -36.1600   14.6840  205.8450 O.2    46  ASP46      -0.2718
     17  CB       -37.7810   16.8350  206.5330 C.3    46  ASP46       0.1424
     18  CG       -39.0150   17.7370  206.4930 C.2    46  ASP46       0.3668
     19  OD1      -40.1130   17.2060  206.4910 O.co2  46  ASP46      -0.2456
     20  OD2      -38.8410   18.9450  206.4640 O.co2  46  ASP46      -0.2456
     21  N        -36.8810   13.4030  207.4760 N.am   47  GLY47      -0.1957
     22  CA       -35.7250   12.4600  207.2790 C.3    47  GLY47       0.1869
     23  C        -34.6840   12.6190  208.3930 C.2    47  GLY47       0.2309
     24  O        -33.7400   11.8530  208.4770 O.2    47  GLY47      -0.2863
     25  N        -42.2460   13.5320  218.1570 N.3    54  GLN54      -0.1231
     26  CA       -42.6800   12.1690  218.6090 C.3    54  GLN54       0.1698
     27  C        -43.0450   11.2680  217.4100 C.2    54  GLN54       0.2592
     28  O        -43.2100   11.7430  216.3090 O.2    54  GLN54      -0.2718
     29  CB       -43.8950   12.3090  219.5290 C.3    54  GLN54       0.0381
     30  CG       -45.0820   12.8520  218.7320 C.3    54  GLN54       0.0905
     31  CD       -46.1980   13.2600  219.6960 C.2    54  GLN54       0.2608
     32  OE1      -45.9410   13.8530  220.7240 O.2    54  GLN54      -0.2717
     33  NE2      -47.4360   12.9650  219.4050 N.am   54  GLN54      -0.0878
     34  N        -43.1720    9.9770  217.6020 N.am   55  ASN55      -0.1974
     35  CA       -43.5420    9.0730  216.4560 C.3    55  ASN55       0.1688
     36  C        -42.3910    9.0010  215.4350 C.2    55  ASN55       0.2292
     37  O        -42.4230    9.6380  214.4030 O.2    55  ASN55      -0.2864
     38  CB       -44.8070    9.5890  215.7540 C.3    55  ASN55       0.1181
     39  CG       -45.8720    9.9220  216.7990 C.2    55  ASN55       0.2629
     40  OD1      -45.8130    9.4480  217.9160 O.2    55  ASN55      -0.2716
     41  ND2      -46.8530   10.7230  216.4820 N.am   55  ASN55      -0.0877
     42  N        -42.0330    4.5450  213.6220 N.3    58  GLU58      -0.1231
     43  CA       -43.0400    4.2490  212.5620 C.3    58  GLU58       0.1699
     44  C        -42.4370    4.5600  211.1800 C.2    58  GLU58       0.2592
     45  O        -42.7590    3.9260  210.1920 O.2    58  GLU58      -0.2718
     46  CB       -44.2840    5.1150  212.7750 C.3    58  GLU58       0.0402
     47  CG       -44.9380    4.7580  214.1100 C.3    58  GLU58       0.1161
     48  CD       -46.2270    5.5640  214.2770 C.2    58  GLU58       0.3649
     49  OE1      -46.4570    6.4500  213.4700 O.co2  58  GLU58      -0.2457
     50  OE2      -46.9630    5.2830  215.2090 O.co2  58  GLU58      -0.2457
     51  N        -41.5600    5.5270  211.1040 N.am   59  THR59      -0.1953
     52  CA       -40.9340    5.8840  209.7870 C.3    59  THR59       0.1897
     53  C        -39.4240    5.6120  209.8200 C.2    59  THR59       0.2313
     54  O        -38.6550    6.2170  209.0920 O.2    59  THR59      -0.2863
     55  CB       -41.1680    7.3670  209.4940 C.3    59  THR59       0.1794
     56  OG1      -40.5180    8.1530  210.4830 O.3    59  THR59      -0.2208
     57  CG2      -42.6680    7.6600  209.5090 C.3    59  THR59       0.0378
     58  N        -37.0800    7.1770  207.0520 N.3    81  GLN81      -0.1231
     59  CA       -37.5130    7.4630  205.6450 C.3    81  GLN81       0.1698
     60  C        -37.7120    8.9680  205.4280 C.2    81  GLN81       0.2593
     61  O        -38.1170    9.6870  206.3170 O.2    81  GLN81      -0.2718
     62  CB       -38.8270    6.7310  205.3650 C.3    81  GLN81       0.0381
     63  CG       -39.1860    6.8760  203.8850 C.3    81  GLN81       0.0905
     64  CD       -40.5360    6.2080  203.6170 C.2    81  GLN81       0.2608
     65  OE1      -41.5660    6.7110  204.0190 O.2    81  GLN81      -0.2717
     66  NE2      -40.5740    5.0860  202.9520 N.am   81  GLN81      -0.0878
     67  N        -37.4550    9.4430  204.2360 N.am   82  THR82      -0.1939
     68  CA       -37.6480   10.8990  203.9520 C.3    82  THR82       0.2028
     69  C        -39.0710   11.0900  203.4390 C.2    82  THR82       0.2642
     70  O        -39.7680   10.1320  203.1660 O.2    82  THR82      -0.2714
     71  CB       -36.6580   11.3660  202.8910 C.3    82  THR82       0.1808
     72  OG1      -36.7630   10.5330  201.7470 O.3    82  THR82      -0.2208
     73  CG2      -35.2480   11.3000  203.4590 C.3    82  THR82       0.0379
     74  N        -39.5270   12.3010  203.3150 N.am   83  MET83      -0.1976
     75  CA       -40.9260   12.5080  202.8210 C.3    83  MET83       0.1605
     76  C        -41.0770   11.9570  201.4010 C.2    83  MET83       0.2287
     77  O        -42.1150   11.4400  201.0410 O.2    83  MET83      -0.2864
     78  CB       -41.2670   13.9990  202.8180 C.3    83  MET83       0.0413
     79  CG       -40.9250   14.6060  204.1760 C.3    83  MET83       0.0598
     80  SD       -41.5790   16.2920  204.2690 S.3    83  MET83      -0.1393
     81  CE       -43.3350   15.8610  204.3620 C.3    83  MET83       0.0692
@<TRIPOS>BOND
     1    77    76    2
     2    76    75    1
     3    72    71    1
     4    78    75    1
     5    78    79    1
     6    75    74    1
     7    71    73    1
     8    71    68    1
     9    66    64   am
    10    70    69    2
    11    74    69   am
    12    69    68    1
    13    64    63    1
    14    64    65    2
    15    63    62    1
    16    68    67    1
    17    79    80    1
    18    67    60   am
    19    80    81    1
    20    62    59    1
    21    60    59    1
    22    60    61    2
    23    59    58    1
    24    16    15    2
    25    20    18   ar
    26    19    18   ar
    27    18    17    1
    28    17    14    1
    29    15    14    1
    30    15    21   am
    31    14    13    1
    32    22    21    1
    33    22    23    1
    34    23    24    2
    35    54    53    2
    36    55    57    1
    37    55    52    1
    38    55    56    1
    39    52    53    1
    40    52    51    1
    41    45    44    2
    42    12    10   am
    43    51    44   am
    44    44    43    1
    45     9    10    1
    46     9     6    1
    47    10    11    2
    48     7     8    2
    49     7     6    1
    50     6     5    1
    51    43    46    1
    52    43    42    1
    53    46    47    1
    54    49    48   ar
    55     5     3   am
    56    47    48    1
    57    48    50   ar
    58    37    36    2
    59     3     4    2
    60     3     2    1
    61    36    35    1
    62    38    35    1
    63    38    39    1
    64     2     1    1
    65    28    27    2
    66    35    34    1
    67    41    39   am
    68    39    40    2
    69    27    34   am
    70    27    26    1
    71    25    26    1
    72    26    29    1
    73    30    29    1
    74    30    31    1
    75    33    31   am
    76    31    32    2
