@<TRIPOS>MOLECULE
tmp/2yhiD01.pdb
 125 120 0 0 0
SMALL
GASTEIGER

@<TRIPOS>ATOM
      1  N         55.6800  -15.9730   -6.2510 N.3    13  ARG13      -0.1245
      2  CA        54.7270  -15.9440   -5.1410 C.3    13  ARG13       0.1563
      3  C         53.8580  -14.6810   -5.1050 C.2    13  ARG13       0.2260
      4  O         53.2540  -14.3180   -6.1180 O.2    13  ARG13      -0.2867
      5  CB        55.4530  -16.2490   -3.8160 C.3    13  ARG13       0.0307
      6  CG        56.0060  -17.6920   -3.7660 C.3    13  ARG13       0.0489
      7  CD        57.1200  -17.8990   -2.7430 C.3    13  ARG13       0.2205
      8  NE        56.6920  -17.5930   -1.3750 N.pl3  13  ARG13      -0.0865
      9  CZ        56.0390  -18.4280   -0.5700 C.cat  13  ARG13       0.5346
     10  NH1       55.7290  -19.6640   -0.9690 N.pl3  13  ARG13       0.1354
     11  NH2       55.7050  -18.0280    0.6500 N.pl3  13  ARG13       0.1354
     12  N         61.0090   -9.6130    1.0030 N.3    94  SER94      -0.1217
     13  CA        61.0880   -9.8830    2.4320 C.3    94  SER94       0.1889
     14  C         61.9310  -11.0950    2.7510 C.2    94  SER94       0.2288
     15  O         61.7410  -12.1480    2.1560 O.2    94  SER94      -0.2866
     16  CB        59.6760  -10.0870    2.9830 C.3    94  SER94       0.2089
     17  OG        59.7020  -10.4680    4.3500 O.3    94  SER94      -0.2183
     18  N         62.5420  -13.8310    5.6570 N.3    96  PHE96      -0.1241
     19  CA        61.6840  -14.4240    6.6860 C.3    96  PHE96       0.1605
     20  C         62.2960  -15.7380    7.1630 C.2    96  PHE96       0.2264
     21  O         62.2140  -16.7600    6.4760 O.2    96  PHE96      -0.2867
     22  CB        60.2540  -14.6360    6.1510 C.3    96  PHE96       0.0534
     23  CG        59.3310  -15.3820    7.1030 C.ar   96  PHE96      -0.0203
     24  CD1       58.8320  -14.7690    8.2560 C.ar   96  PHE96      -0.0042
     25  CD2       58.9690  -16.7030    6.8470 C.ar   96  PHE96      -0.0042
     26  CE1       57.9810  -15.4530    9.1320 C.ar   96  PHE96      -0.0003
     27  CE2       58.1130  -17.3990    7.7130 C.ar   96  PHE96      -0.0003
     28  CZ        57.6190  -16.7780    8.8580 C.ar   96  PHE96      -0.0000
     29  N         52.1860   -7.4960    7.9740 N.3   142  ASP142     -0.1239
     30  CA        51.8790   -8.8190    8.5180 C.3   142  ASP142      0.1674
     31  C         50.7420   -8.6780    9.5190 C.2   142  ASP142      0.2266
     32  O         50.8530   -7.9210   10.4790 O.2   142  ASP142     -0.2867
     33  CB        53.1230   -9.4250    9.1930 C.3   142  ASP142      0.1410
     34  CG        52.9790  -10.9240    9.4650 C.2   142  ASP142      0.3668
     35  OD1       51.9010  -11.3650    9.9270 O.co2 142  ASP142     -0.2456
     36  OD2       53.9490  -11.6710    9.2020 O.co2 142  ASP142     -0.2456
     37  N         55.4440  -15.1410   15.3390 N.3   149  CYS149     -0.1235
     38  CA        56.0230  -16.4810   15.3300 C.3   149  CYS149      0.1677
     39  C         57.1100  -16.5440   16.3890 C.2   149  CYS149      0.2270
     40  O         57.8840  -15.6010   16.5490 O.2   149  CYS149     -0.2867
     41  CB        56.6340  -16.7980   13.9620 C.3   149  CYS149      0.0956
     42  SG        55.5330  -16.6420   12.5340 S.3   149  CYS149     -0.0801
     43  N         62.5400  -10.4530   12.2770 N.3   155  TYR155     -0.1241
     44  CA        61.4550  -10.3560   11.3040 C.3   155  TYR155      0.1605
     45  C         60.3060   -9.4870   11.8330 C.2   155  TYR155      0.2264
     46  O         59.8280   -8.5920   11.1350 O.2   155  TYR155     -0.2867
     47  CB        60.9350  -11.7420   10.9100 C.3   155  TYR155      0.0534
     48  CG        59.6810  -11.6770   10.0650 C.ar  155  TYR155     -0.0201
     49  CD1       59.7520  -11.3680    8.7050 C.ar  155  TYR155     -0.0009
     50  CD2       58.4230  -11.8970   10.6290 C.ar  155  TYR155     -0.0009
     51  CE1       58.5970  -11.2900    7.9220 C.ar  155  TYR155      0.0417
     52  CE2       57.2550  -11.8230    9.8500 C.ar  155  TYR155      0.0417
     53  CZ        57.3560  -11.5160    8.5000 C.ar  155  TYR155      0.1957
     54  OH        56.2170  -11.4450    7.7220 O.3   155  TYR155     -0.2866
     55  N         58.8000   -5.8700   10.5220 N.3   159  LYS159     -0.1245
     56  CA        57.4240   -5.6220   10.1080 C.3   159  LYS159      0.1561
     57  C         56.7650   -4.5500   10.9760 C.2   159  LYS159      0.2260
     58  O         55.9300   -3.7910   10.4960 O.2   159  LYS159     -0.2867
     59  CB        56.6040   -6.9210   10.0690 C.3   159  LYS159      0.0271
     60  CG        57.0080   -7.8830    8.9480 C.3   159  LYS159      0.0035
     61  CD        56.9210   -7.2360    7.5580 C.3   159  LYS159      0.0206
     62  CE        56.7910   -8.3050    6.4780 C.3   159  LYS159      0.1093
     63  NZ        56.9600   -7.7850    5.0860 N.3   159  LYS159     -0.1314
     64  N         47.6580  -12.8020    6.5690 N.3   186  GLY186     -0.1210
     65  CA        47.8040  -13.6900    7.7220 C.3   186  GLY186      0.1956
     66  C         48.6390  -14.8580    7.2500 C.2   186  GLY186      0.2612
     67  O         49.8790  -14.8170    7.3070 O.2   186  GLY186     -0.2717
     68  N         47.9640  -15.9040    6.7860 N.am  187  VAL187     -0.1965
     69  CA        48.6300  -16.9170    5.9720 C.3   187  VAL187      0.1727
     70  C         48.1400  -16.8690    4.5270 C.2   187  VAL187      0.2617
     71  O         46.9420  -17.0040    4.2320 O.2   187  VAL187     -0.2715
     72  CB        48.5790  -18.3550    6.5630 C.3   187  VAL187      0.0290
     73  CG1       49.4180  -18.4280    7.8310 C.3   187  VAL187      0.0023
     74  CG2       47.1570  -18.8010    6.8210 C.3   187  VAL187      0.0023
     75  N         49.0930  -16.6310    3.6340 N.am  188  SER188     -0.1936
     76  CA        48.8750  -16.7610    2.2090 C.3   188  SER188      0.2055
     77  C         49.7220  -17.9470    1.7440 C.2   188  SER188      0.2643
     78  O         49.7680  -18.9670    2.4320 O.2   188  SER188     -0.2714
     79  CB        49.2510  -15.4650    1.4960 C.3   188  SER188      0.2130
     80  OG        48.8590  -15.5020    0.1350 O.3   188  SER188     -0.2179
     81  N         50.3910  -17.8330    0.5990 N.am  189  LEU189     -0.1963
     82  CA        51.2410  -18.9320    0.1270 C.3   189  LEU189      0.1728
     83  C         52.2580  -19.2830    1.2080 C.2   189  LEU189      0.2616
     84  O         53.1160  -18.4620    1.5600 O.2   189  LEU189     -0.2715
     85  CB        51.9430  -18.5770   -1.1870 C.3   189  LEU189      0.0311
     86  CG        51.0630  -18.2020   -2.3840 C.3   189  LEU189      0.0022
     87  CD1       51.9300  -17.9700   -3.6120 C.3   189  LEU189      0.0001
     88  CD2       50.0000  -19.2750   -2.6590 C.3   189  LEU189      0.0001
     89  N         52.1370  -20.4930    1.7500 N.am  190  LEU190     -0.1964
     90  CA        52.9730  -20.9200    2.8640 C.3   190  LEU190      0.1713
     91  C         54.4440  -20.9440    2.4520 C.2   190  LEU190      0.2458
     92  O         54.7470  -21.2040    1.2850 O.2   190  LEU190     -0.2730
     93  CB        52.5230  -22.2910    3.3900 C.3   190  LEU190      0.0310
     94  CG        51.3440  -22.3770    4.3800 C.3   190  LEU190      0.0022
     95  CD1       51.3310  -21.2070    5.3680 C.3   190  LEU190      0.0001
     96  CD2       50.0090  -22.4840    3.6700 C.3   190  LEU190      0.0001
     97  N         55.3600  -20.6440    3.3940 N.am  191  PRO191     -0.2727
     98  CA        56.7900  -20.6620    3.0670 C.3   191  PRO191      0.1402
     99  C         57.2220  -22.0270    2.5430 C.2   191  PRO191      0.2269
    100  O         56.7790  -23.0570    3.0590 O.2   191  PRO191     -0.2865
    101  CB        57.4690  -20.3650    4.4110 C.3   191  PRO191      0.0296
    102  CG        56.4280  -19.6560    5.2130 C.3   191  PRO191      0.0237
    103  CD        55.1200  -20.2530    4.7970 C.3   191  PRO191      0.0939
    104  N         58.4440  -24.5760    5.0790 N.3   194  MET194     -0.1245
    105  CA        57.4960  -25.1630    6.0210 C.3   194  MET194      0.1570
    106  C         57.1060  -26.5780    5.5850 C.2   194  MET194      0.2261
    107  O         56.7790  -26.8010    4.4190 O.2   194  MET194     -0.2867
    108  CB        56.2560  -24.2760    6.1490 C.3   194  MET194      0.0387
    109  CG        55.2700  -24.7080    7.2290 C.3   194  MET194      0.0595
    110  SD        53.8190  -23.6380    7.2760 S.3   194  MET194     -0.1393
    111  CE        54.4640  -22.2400    8.1910 C.3   194  MET194      0.0692
    112  N         48.2710  -24.6620   10.0230 N.3   202  TRP202     -0.1241
    113  CA        47.9520  -23.2430    9.8060 C.3   202  TRP202      0.1605
    114  C         46.6630  -23.0310    9.0280 C.2   202  TRP202      0.2264
    115  O         45.8570  -22.1630    9.3780 O.2   202  TRP202     -0.2867
    116  CB        49.1110  -22.5140    9.1170 C.3   202  TRP202      0.0550
    117  CG        50.2040  -22.1680   10.0630 C.ar  202  TRP202      0.0003
    118  CD1       51.4010  -22.8080   10.2020 C.ar  202  TRP202      0.0946
    119  CD2       50.2010  -21.1040   11.0230 C.ar  202  TRP202      0.0152
    120  NE1       52.1460  -22.2060   11.1860 N.ar  202  TRP202     -0.2442
    121  CE2       51.4330  -21.1570   11.7060 C.ar  202  TRP202      0.0810
    122  CE3       49.2740  -20.1080   11.3700 C.ar  202  TRP202      0.0012
    123  CZ2       51.7670  -20.2540   12.7200 C.ar  202  TRP202      0.0191
    124  CZ3       49.6050  -19.2140   12.3800 C.ar  202  TRP202      0.0001
    125  CH2       50.8440  -19.2900   13.0400 C.ar  202  TRP202      0.0015
@<TRIPOS>BOND
     1     1     2    1
     2     4     3    2
     3     2     3    1
     4     2     5    1
     5     5     6    1
     6     6     7    1
     7    87    86    1
     8     7     8    1
     9    88    86    1
    10    86    85    1
    11     8     9    2
    12    85    82    1
    13    10     9    1
    14     9    11    1
    15    82    81    1
    16    82    83    1
    17    80    79    1
    18    81    77   am
    19    12    13    1
    20    83    84    2
    21    83    89   am
    22    92    91    2
    23    79    76    1
    24    77    76    1
    25    77    78    2
    26    89    90    1
    27    15    14    2
    28    76    75    1
    29    13    14    1
    30    13    16    1
    31    91    90    1
    32    91    97   am
    33    99   100    2
    34    99    98    1
    35    90    93    1
    36    16    17    1
    37    98    97    1
    38    98   101    1
    39    93    94    1
    40    97   103    1
    41    75    70   am
    42    96    94    1
    43    71    70    2
    44    94    95    1
    45   101   102    1
    46   107   106    2
    47    70    69    1
    48   103   102    1
    49   104   105    1
    50    63    62    1
    51   106   105    1
    52    18    19    1
    53    69    72    1
    54    69    68    1
    55   105   108    1
    56   108   109    1
    57    22    19    1
    58    22    23    1
    59    21    20    2
    60    62    61    1
    61    72    74    1
    62    72    73    1
    63    64    65    1
    64    19    20    1
    65    68    66   am
    66    25    23   ar
    67    25    27   ar
    68    23    24   ar
    69   109   110    1
    70    66    67    2
    71    66    65    1
    72   110   111    1
    73    61    60    1
    74    27    28   ar
    75    54    53    1
    76    51    53   ar
    77    51    49   ar
    78    29    30    1
    79    24    26   ar
    80    53    52   ar
    81    30    33    1
    82    30    31    1
    83    49    48   ar
    84    28    26   ar
    85    60    59    1
    86   114   115    2
    87   114   113    1
    88   116   113    1
    89   116   117    1
    90    33    34    1
    91    36    34   ar
    92    34    35   ar
    93    31    32    2
    94   113   112    1
    95    52    50   ar
    96   117   118   ar
    97   117   119   ar
    98    48    50   ar
    99    48    47    1
   100    59    56    1
   101    56    55    1
   102    56    57    1
   103   118   120   ar
   104    58    57    2
   105    47    44    1
   106   119   122   ar
   107   119   121   ar
   108    46    45    2
   109   120   121   ar
   110    44    45    1
   111    44    43    1
   112   122   124   ar
   113   121   123   ar
   114   124   125   ar
   115    42    41    1
   116   123   125   ar
   117    41    38    1
   118    38    37    1
   119    38    39    1
   120    39    40    2
