@<TRIPOS>MOLECULE
tmp/2yhkA02.pdb
 91 85 0 0 0
SMALL
GASTEIGER

@<TRIPOS>ATOM
      1  N         30.6990   55.5760    3.1680 N.3   121  TYR121     -0.1241
      2  CA        30.9060   56.9890    3.4740 C.3   121  TYR121      0.1605
      3  C         32.0390   57.1670    4.4710 C.2   121  TYR121      0.2264
      4  O         32.4110   56.2140    5.1570 O.2   121  TYR121     -0.2867
      5  CB        29.5990   57.5910    4.0260 C.3   121  TYR121      0.0534
      6  CG        29.2410   57.0260    5.3740 C.ar  121  TYR121     -0.0201
      7  CD1       28.4790   55.8600    5.4780 C.ar  121  TYR121     -0.0009
      8  CD2       29.7020   57.6320    6.5560 C.ar  121  TYR121     -0.0009
      9  CE1       28.1630   55.3080    6.7190 C.ar  121  TYR121      0.0417
     10  CE2       29.3890   57.0900    7.8140 C.ar  121  TYR121      0.0417
     11  CZ        28.6190   55.9280    7.8800 C.ar  121  TYR121      0.1957
     12  OH        28.2990   55.3800    9.0970 O.3   121  TYR121     -0.2866
     13  N         37.1850   52.9630    2.9330 N.3   184  ASN184     -0.1225
     14  CA        37.5150   52.8820    4.3490 C.3   184  ASN184      0.1785
     15  C         36.7060   51.8240    5.0770 C.2   184  ASN184      0.2597
     16  O         37.2590   50.9160    5.6820 O.2   184  ASN184     -0.2718
     17  CB        37.2610   54.2610    5.0310 C.3   184  ASN184      0.1169
     18  CG        38.3860   55.2520    4.8030 C.2   184  ASN184      0.2627
     19  OD1       39.4540   55.1170    5.3890 O.2   184  ASN184     -0.2716
     20  ND2       38.1440   56.2730    3.9740 N.am  184  ASN184     -0.0877
     21  N         35.3900   51.9700    5.0370 N.am  185  LEU185     -0.1980
     22  CA        34.4980   51.1700    5.8710 C.3   185  LEU185      0.1596
     23  C         34.4270   49.6900    5.4750 C.2   185  LEU185      0.2287
     24  O         33.8470   48.8800    6.1930 O.2   185  LEU185     -0.2864
     25  CB        33.0900   51.7980    5.9330 C.3   185  LEU185      0.0297
     26  CG        32.9860   53.0890    6.7740 C.3   185  LEU185      0.0022
     27  CD1       31.5360   53.4730    7.0520 C.3   185  LEU185      0.0001
     28  CD2       33.7720   53.0070    8.1010 C.3   185  LEU185      0.0001
     29  N         37.3440   48.2820    4.8590 N.3   187  GLY187     -0.1225
     30  CA        38.7300   47.9360    5.2140 C.3   187  GLY187      0.1811
     31  C         39.8100   48.2890    4.2120 C.2   187  GLY187      0.2280
     32  O         40.8220   47.5980    4.1390 O.2   187  GLY187     -0.2866
     33  N         42.7700   45.0270    9.3860 N.3   345  PHE345     -0.1241
     34  CA        41.7620   45.1600   10.4420 C.3   345  PHE345      0.1605
     35  C         41.5840   43.8060   11.1170 C.2   345  PHE345      0.2264
     36  O         41.2040   42.8550   10.4700 O.2   345  PHE345     -0.2867
     37  CB        40.4220   45.5890    9.8410 C.3   345  PHE345      0.0534
     38  CG        40.3900   47.0140    9.3010 C.ar  345  PHE345     -0.0203
     39  CD1       40.9970   47.3320    8.0920 C.ar  345  PHE345     -0.0042
     40  CD2       39.6840   48.0140    9.9860 C.ar  345  PHE345     -0.0042
     41  CE1       40.9380   48.6390    7.5720 C.ar  345  PHE345     -0.0003
     42  CE2       39.5900   49.3110    9.4820 C.ar  345  PHE345     -0.0003
     43  CZ        40.2280   49.6270    8.2390 C.ar  345  PHE345     -0.0000
     44  N         38.0120   50.5400   15.9610 N.3   380  ARG380     -0.1231
     45  CA        37.0170   50.8590   14.9410 C.3   380  ARG380      0.1694
     46  C         35.8430   49.8870   15.1150 C.2   380  ARG380      0.2592
     47  O         35.6400   48.9390   14.3310 O.2   380  ARG380     -0.2718
     48  CB        37.6300   50.8160   13.5370 C.3   380  ARG380      0.0321
     49  CG        38.6790   51.9270   13.3030 C.3   380  ARG380      0.0489
     50  CD        38.0240   53.2990   13.0700 C.3   380  ARG380      0.2205
     51  NE        37.9400   54.1190   14.2710 N.pl3 380  ARG380     -0.0865
     52  CZ        37.6310   55.4200   14.2820 C.cat 380  ARG380      0.5346
     53  NH1       37.3680   56.0520   13.1450 N.pl3 380  ARG380      0.1354
     54  NH2       37.6300   56.1090   15.4300 N.pl3 380  ARG380      0.1354
     55  N         35.1090   50.1060   16.2040 N.am  381  GLY381     -0.1957
     56  CA        33.9470   49.3010   16.5360 C.3   381  GLY381      0.1869
     57  C         32.8790   50.1240   17.2310 C.2   381  GLY381      0.2309
     58  O         32.6510   51.2990   16.9140 O.2   381  GLY381     -0.2863
     59  N         33.8670   53.7120   18.7550 N.3   384  SER384     -0.1202
     60  CA        33.9360   54.7370   17.7210 C.3   384  SER384      0.2020
     61  C         32.5860   55.0360   17.0750 C.2   384  SER384      0.2618
     62  O         32.3470   56.1670   16.6520 O.2   384  SER384     -0.2717
     63  CB        34.9330   54.3470   16.6220 C.3   384  SER384      0.2103
     64  OG        36.2450   54.3820   17.1390 O.3   384  SER384     -0.2182
     65  N         31.7260   54.0250   16.9680 N.am  385  ALA385     -0.1979
     66  CA        30.4060   54.2140   16.3420 C.3   385  ALA385      0.1597
     67  C         29.5110   55.1790   17.1430 C.2   385  ALA385      0.2287
     68  O         28.5880   55.8090   16.5910 O.2   385  ALA385     -0.2864
     69  CB        29.7160   52.8700   16.1100 C.3   385  ALA385      0.0319
     70  N         27.7680   48.7240   15.3340 N.3   397  PRO397     -0.2116
     71  CA        28.1560   48.4560   13.9630 C.3   397  PRO397      0.1372
     72  C         28.3510   46.9550   13.7550 C.2   397  PRO397      0.2244
     73  O         28.6950   46.2160   14.7020 O.2   397  PRO397     -0.2868
     74  CB        29.4950   49.1920   13.8340 C.3   397  PRO397      0.0268
     75  CG        30.0810   49.1440   15.2210 C.3   397  PRO397      0.0207
     76  CD        28.8800   49.2890   16.1300 C.3   397  PRO397      0.0892
     77  N         30.7620   45.6550   11.8980 N.3   399  LEU399     -0.1245
     78  CA        32.1920   45.4250   11.9850 C.3   399  LEU399      0.1561
     79  C         32.6750   45.9380   13.3280 C.2   399  LEU399      0.2260
     80  O         32.4120   47.0900   13.6860 O.2   399  LEU399     -0.2867
     81  CB        32.9280   46.1190   10.8430 C.3   399  LEU399      0.0270
     82  CG        33.0340   45.3410    9.5290 C.3   399  LEU399      0.0019
     83  CD1       31.7180   45.2350    8.7650 C.3   399  LEU399      0.0001
     84  CD2       34.0890   45.9860    8.6720 C.3   399  LEU399      0.0001
     85  N         36.2100   46.0600   14.8960 N.3   401  THR401     -0.1218
     86  CA        37.5770   45.7920   14.4440 C.3   401  THR401      0.1862
     87  C         38.6100   46.6240   15.2150 C.2   401  THR401      0.2287
     88  O         38.2780   47.6610   15.8090 O.2   401  THR401     -0.2866
     89  CB        37.7690   46.1040   12.9390 C.3   401  THR401      0.1770
     90  OG1       37.6510   47.5130   12.7200 O.3   401  THR401     -0.2211
     91  CG2       36.7690   45.3410   12.0560 C.3   401  THR401      0.0375
@<TRIPOS>BOND
     1    13    14    1
     2     1     2    1
     3     2     5    1
     4     2     3    1
     5    20    18   am
     6     5     6    1
     7    32    31    2
     8    31    30    1
     9    14    17    1
    10    14    15    1
    11     3     4    2
    12    18    17    1
    13    18    19    2
    14    29    30    1
    15    21    15   am
    16    21    22    1
    17    15    16    2
    18     6     7   ar
    19     6     8   ar
    20    23    22    1
    21    23    24    2
    22     7     9   ar
    23    22    25    1
    24    25    26    1
    25     8    10   ar
    26     9    11   ar
    27    26    27    1
    28    26    28    1
    29    41    39   ar
    30    41    43   ar
    31    10    11   ar
    32    11    12    1
    33    39    38   ar
    34    43    42   ar
    35    84    82    1
    36    83    82    1
    37    38    37    1
    38    38    40   ar
    39    33    34    1
    40    42    40   ar
    41    82    81    1
    42    37    34    1
    43    34    35    1
    44    36    35    2
    45    81    78    1
    46    77    78    1
    47    78    79    1
    48    91    89    1
    49    90    89    1
    50    89    86    1
    51    50    49    1
    52    50    51    1
    53    53    52    1
    54    49    48    1
    55    79    80    2
    56    48    45    1
    57    72    71    1
    58    72    73    2
    59    74    71    1
    60    74    75    1
    61    71    70    1
    62    51    52    2
    63    52    54    1
    64    47    46    2
    65    86    85    1
    66    86    87    1
    67    45    46    1
    68    45    44    1
    69    46    55   am
    70    87    88    2
    71    75    76    1
    72    70    76    1
    73    69    66    1
    74    55    56    1
    75    66    65    1
    76    66    67    1
    77    56    57    1
    78    68    67    2
    79    63    64    1
    80    63    60    1
    81    62    61    2
    82    58    57    2
    83    65    61   am
    84    61    60    1
    85    60    59    1
