@<TRIPOS>MOLECULE
tmp/2yhuD01.pdb
 135 129 0 0 0
SMALL
GASTEIGER

@<TRIPOS>ATOM
      1  N        -31.6560  -12.5210   33.3190 N.3    13  ARG13      -0.1245
      2  CA       -30.2170  -12.5670   33.0560 C.3    13  ARG13       0.1563
      3  C        -29.4860  -11.2570   33.4370 C.2    13  ARG13       0.2260
      4  O        -29.6930  -10.7330   34.5360 O.2    13  ARG13      -0.2867
      5  CB       -29.9790  -12.9940   31.5950 C.3    13  ARG13       0.0307
      6  CG       -30.4410  -14.4390   31.2970 C.3    13  ARG13       0.0489
      7  CD       -30.7410  -14.7150   29.7980 C.3    13  ARG13       0.2205
      8  NE       -29.5620  -14.5430   28.9310 N.pl3  13  ARG13      -0.0865
      9  CZ       -28.5580  -15.4150   28.8090 C.cat  13  ARG13       0.5346
     10  NH1      -28.5630  -16.5590   29.4850 N.pl3  13  ARG13       0.1354
     11  NH2      -27.5450  -15.1450   27.9930 N.pl3  13  ARG13       0.1354
     12  N        -31.1160   -6.9170   23.6050 N.3    94  SER94      -0.1217
     13  CA       -30.2990   -7.3500   22.4770 C.3    94  SER94       0.1889
     14  C        -30.8040   -8.6620   21.8850 C.2    94  SER94       0.2288
     15  O        -31.0270   -9.6140   22.6200 O.2    94  SER94      -0.2866
     16  CB       -28.8430   -7.5270   22.9420 C.3    94  SER94       0.2089
     17  OG       -28.0450   -8.1720   21.9660 O.3    94  SER94      -0.2183
     18  N        -29.7260  -11.8190   19.4630 N.3    96  PHE96      -0.1241
     19  CA       -28.4490  -12.4580   19.1880 C.3    96  PHE96       0.1605
     20  C        -28.7140  -13.8140   18.5600 C.2    96  PHE96       0.2264
     21  O        -29.2540  -14.7070   19.2120 O.2    96  PHE96      -0.2867
     22  CB       -27.6440  -12.5800   20.4930 C.3    96  PHE96       0.0534
     23  CG       -26.3720  -13.4100   20.3820 C.ar   96  PHE96      -0.0203
     24  CD1      -25.1720  -12.8330   19.9570 C.ar   96  PHE96      -0.0042
     25  CD2      -26.3700  -14.7600   20.7560 C.ar   96  PHE96      -0.0042
     26  CE1      -23.9880  -13.5940   19.8850 C.ar   96  PHE96      -0.0003
     27  CE2      -25.2020  -15.5280   20.6820 C.ar   96  PHE96      -0.0003
     28  CZ       -24.0030  -14.9420   20.2490 C.ar   96  PHE96      -0.0000
     29  N        -19.7360   -5.3330   23.4620 N.3   142  ASP142     -0.1239
     30  CA       -19.2420   -6.6940   23.3170 C.3   142  ASP142      0.1674
     31  C        -17.7140   -6.6600   23.2320 C.2   142  ASP142      0.2266
     32  O        -17.1530   -6.0380   22.3240 O.2   142  ASP142     -0.2867
     33  CB       -19.8580   -7.3270   22.0620 C.3   142  ASP142      0.1410
     34  CG       -19.2860   -8.7080   21.7360 C.2   142  ASP142      0.3668
     35  OD1      -18.5940   -9.3240   22.5720 O.co2 142  ASP142     -0.2456
     36  OD2      -19.5440   -9.1850   20.6110 O.co2 142  ASP142     -0.2456
     37  N        -15.6900   -8.9290   22.4000 N.3   144  MET144     -0.1245
     38  CA       -15.2460   -9.7340   21.2600 C.3   144  MET144      0.1570
     39  C        -15.5660   -9.0720   19.9080 C.2   144  MET144      0.2261
     40  O        -15.5260   -9.7160   18.8640 O.2   144  MET144     -0.2867
     41  CB       -15.8820  -11.1340   21.3120 C.3   144  MET144      0.0387
     42  CG       -15.5600  -11.9440   22.5590 C.3   144  MET144      0.0595
     43  SD       -13.7860  -12.0840   22.8130 S.3   144  MET144     -0.1393
     44  CE       -13.3320  -13.3680   21.6520 C.3   144  MET144      0.0692
     45  N        -25.3660   -9.0000   13.8580 N.3   154  TYR154     -0.1241
     46  CA       -25.1500   -8.7730   15.2840 C.3   154  TYR154      0.1605
     47  C        -23.8670   -7.9760   15.5330 C.2   154  TYR154      0.2264
     48  O        -23.8770   -7.0290   16.3180 O.2   154  TYR154     -0.2867
     49  CB       -25.1320  -10.0970   16.0790 C.3   154  TYR154      0.0534
     50  CG       -24.6850   -9.9270   17.5170 C.ar  154  TYR154     -0.0201
     51  CD1      -25.5700   -9.4320   18.4910 C.ar  154  TYR154     -0.0009
     52  CD2      -23.3690  -10.2190   17.9070 C.ar  154  TYR154     -0.0009
     53  CE1      -25.1690   -9.2540   19.8160 C.ar  154  TYR154      0.0417
     54  CE2      -22.9500  -10.0350   19.2540 C.ar  154  TYR154      0.0417
     55  CZ       -23.8680   -9.5550   20.1910 C.ar  154  TYR154      0.1957
     56  OH       -23.4990   -9.3640   21.5030 O.3   154  TYR154     -0.2866
     57  N        -23.3590   -4.1990   17.3540 N.3   158  LYS158     -0.1245
     58  CA       -22.4730   -3.8960   18.4790 C.3   158  LYS158      0.1561
     59  C        -21.3820   -2.9030   18.0990 C.2   158  LYS158      0.2260
     60  O        -21.0220   -2.0500   18.9050 O.2   158  LYS158     -0.2867
     61  CB       -21.8560   -5.1620   19.0820 C.3   158  LYS158      0.0271
     62  CG       -22.8560   -6.0100   19.8520 C.3   158  LYS158      0.0035
     63  CD       -23.5650   -5.1970   20.9560 C.3   158  LYS158      0.0206
     64  CE       -24.3910   -6.1350   21.8130 C.3   158  LYS158      0.1093
     65  NZ       -25.1430   -5.5440   22.9480 N.3   158  LYS158     -0.1314
     66  N        -17.3390  -10.4020   27.7540 N.3   185  GLY185     -0.1210
     67  CA       -16.8330  -11.3780   26.7960 C.3   185  GLY185      0.1956
     68  C        -17.8250  -12.5240   26.7800 C.2   185  GLY185      0.2612
     69  O        -18.8220  -12.4890   26.0400 O.2   185  GLY185     -0.2717
     70  N        -17.5610  -13.5440   27.5910 N.am  186  VAL186     -0.1965
     71  CA       -18.5940  -14.5230   27.9030 C.3   186  VAL186      0.1727
     72  C        -19.0820  -14.3290   29.3200 C.2   186  VAL186      0.2617
     73  O        -18.3060  -14.3830   30.2770 O.2   186  VAL186     -0.2715
     74  CB       -18.1730  -16.0080   27.7040 C.3   186  VAL186      0.0290
     75  CG1      -18.3600  -16.4300   26.2640 C.3   186  VAL186      0.0023
     76  CG2      -16.7610  -16.2570   28.1600 C.3   186  VAL186      0.0023
     77  N        -20.3800  -14.0910   29.4360 N.am  187  SER187     -0.1936
     78  CA       -21.0510  -14.0850   30.7180 C.3   187  SER187      0.2055
     79  C        -22.1070  -15.2130   30.6630 C.2   187  SER187      0.2643
     80  O        -21.8420  -16.3030   30.1070 O.2   187  SER187     -0.2714
     81  CB       -21.6540  -12.6950   30.9830 C.3   187  SER187      0.2130
     82  OG       -22.3490  -12.6490   32.2200 O.3   187  SER187     -0.2179
     83  N        -23.2880  -14.9690   31.2180 N.am  188  LEU188     -0.1963
     84  CA       -24.3830  -15.9380   31.1350 C.3   188  LEU188      0.1728
     85  C        -24.6030  -16.3830   29.6880 C.2   188  LEU188      0.2616
     86  O        -25.0390  -15.5980   28.8290 O.2   188  LEU188     -0.2715
     87  CB       -25.6670  -15.3650   31.7300 C.3   188  LEU188      0.0311
     88  CG       -25.8970  -15.4340   33.2420 C.3   188  LEU188      0.0022
     89  CD1      -27.0920  -14.5700   33.5810 C.3   188  LEU188      0.0001
     90  CD2      -26.1260  -16.8920   33.7250 C.3   188  LEU188      0.0001
     91  N        -24.2610  -17.6450   29.4330 N.am  189  LEU189     -0.1964
     92  CA       -24.3100  -18.2490   28.1030 C.3   189  LEU189      0.1713
     93  C        -25.7680  -18.5050   27.6790 C.2   189  LEU189      0.2458
     94  O        -26.6180  -18.7280   28.5270 O.2   189  LEU189     -0.2730
     95  CB       -23.4780  -19.5400   28.1040 C.3   189  LEU189      0.0310
     96  CG       -21.9720  -19.3010   28.3310 C.3   189  LEU189      0.0022
     97  CD1      -21.3310  -20.3910   29.1870 C.3   189  LEU189      0.0001
     98  CD2      -21.2190  -19.1040   27.0120 C.3   189  LEU189      0.0001
     99  N        -26.0670  -18.4300   26.3680 N.am  190  PRO190     -0.2727
    100  CA       -27.4760  -18.5160   25.9350 C.3   190  PRO190      0.1402
    101  C        -28.1240  -19.8470   26.3030 C.2   190  PRO190      0.2269
    102  O        -27.4710  -20.8870   26.2210 O.2   190  PRO190     -0.2865
    103  CB       -27.4000  -18.3520   24.4090 C.3   190  PRO190      0.0296
    104  CG       -26.0570  -17.7540   24.1350 C.3   190  PRO190      0.0237
    105  CD       -25.1470  -18.2130   25.2360 C.3   190  PRO190      0.0939
    106  N        -27.7990  -22.7530   23.9750 N.3   193  MET193     -0.1245
    107  CA       -26.4450  -23.2810   23.7290 C.3   193  MET193      0.1570
    108  C        -26.2320  -24.6080   24.4840 C.2   193  MET193      0.2261
    109  O        -26.5810  -24.7150   25.6550 O.2   193  MET193     -0.2867
    110  CB       -25.3720  -22.2410   24.0970 C.3   193  MET193      0.0387
    111  CG       -23.9560  -22.6130   23.6710 C.3   193  MET193      0.0595
    112  SD       -22.6730  -21.5800   24.4100 S.3   193  MET193     -0.1393
    113  CE       -22.6550  -20.1910   23.2700 C.3   193  MET193      0.0692
    114  N        -16.3110  -22.6670   25.7220 N.3   201  TRP201     -0.1241
    115  CA       -16.0780  -21.2360   25.9450 C.3   201  TRP201      0.1605
    116  C        -15.4630  -20.9540   27.3110 C.2   201  TRP201      0.2264
    117  O        -14.5440  -20.1340   27.4280 O.2   201  TRP201     -0.2867
    118  CB       -17.3660  -20.4350   25.7370 C.3   201  TRP201      0.0550
    119  CG       -17.6890  -20.2890   24.2850 C.ar  201  TRP201      0.0003
    120  CD1      -18.7080  -20.8840   23.6090 C.ar  201  TRP201      0.0946
    121  CD2      -16.9580  -19.5250   23.3210 C.ar  201  TRP201      0.0152
    122  NE1      -18.6690  -20.5310   22.2790 N.ar  201  TRP201     -0.2442
    123  CE2      -17.6030  -19.6970   22.0760 C.ar  201  TRP201      0.0810
    124  CE3      -15.8260  -18.7020   23.3890 C.ar  201  TRP201      0.0012
    125  CZ2      -17.1520  -19.0760   20.9030 C.ar  201  TRP201      0.0191
    126  CZ3      -15.3750  -18.0830   22.2170 C.ar  201  TRP201      0.0001
    127  CH2      -16.0440  -18.2750   20.9960 C.ar  201  TRP201      0.0015
    128  N        -10.4590  -12.7070   28.0160 N.3   243  LEU243     -0.1245
    129  CA       -10.8450  -13.4970   26.8170 C.3   243  LEU243      0.1561
    130  C        -10.4120  -12.8760   25.4920 C.2   243  LEU243      0.2260
    131  O         -9.8920  -13.5720   24.6210 O.2   243  LEU243     -0.2867
    132  CB       -12.3680  -13.7470   26.7790 C.3   243  LEU243      0.0270
    133  CG       -12.9170  -14.6470   25.6610 C.3   243  LEU243      0.0019
    134  CD1      -12.3900  -16.0730   25.8040 C.3   243  LEU243      0.0001
    135  CD2      -14.4500  -14.6490   25.6600 C.3   243  LEU243      0.0001
@<TRIPOS>BOND
     1    45    46    1
     2    46    47    1
     3    46    49    1
     4    47    48    2
     5    49    50    1
     6    57    58    1
     7    50    52   ar
     8    50    51   ar
     9    52    54   ar
    10    59    58    1
    11    59    60    2
    12    58    61    1
    13    51    53   ar
    14    20    19    1
    15    20    21    2
    16    40    39    2
    17    61    62    1
    18    19    18    1
    19    19    22    1
    20    54    55   ar
    21    53    55   ar
    22    62    63    1
    23    26    24   ar
    24    26    28   ar
    25    39    38    1
    26    24    23   ar
    27    55    56    1
    28    28    27   ar
    29    23    22    1
    30    23    25   ar
    31    36    34   ar
    32    27    25   ar
    33   125   127   ar
    34   125   123   ar
    35    63    64    1
    36   127   126   ar
    37    38    41    1
    38    38    37    1
    39    41    42    1
    40    44    43    1
    41    34    33    1
    42    34    35   ar
    43    64    65    1
    44    14    13    1
    45    14    15    2
    46    17    16    1
    47    33    30    1
    48   123   122   ar
    49   123   121   ar
    50   126   124   ar
    51   122   120   ar
    52    32    31    2
    53    13    16    1
    54    13    12    1
    55    42    43    1
    56    31    30    1
    57   113   112    1
    58    30    29    1
    59   121   124   ar
    60   121   119   ar
    61   120   119   ar
    62   111   110    1
    63   111   112    1
    64   107   106    1
    65   107   110    1
    66   107   108    1
    67   104   103    1
    68   104   105    1
    69   119   118    1
    70   103   100    1
    71   108   109    2
    72   131   130    2
    73   105    99    1
    74   130   129    1
    75   135   133    1
    76   133   134    1
    77   133   132    1
    78   114   115    1
    79   118   115    1
    80   100   101    1
    81   100    99    1
    82   115   116    1
    83    69    68    2
    84   102   101    2
    85    75    74    1
    86    99    93   am
    87   132   129    1
    88    68    67    1
    89    68    70   am
    90    67    66    1
    91   129   128    1
    92    98    96    1
    93   116   117    2
    94    70    71    1
    95    93    92    1
    96    93    94    2
    97    74    71    1
    98    74    76    1
    99    71    72    1
   100    11     9    1
   101    92    95    1
   102    92    91    1
   103    95    96    1
   104    96    97    1
   105     9     8    2
   106     9    10    1
   107    86    85    2
   108     8     7    1
   109    72    77   am
   110    72    73    2
   111    91    85   am
   112    77    78    1
   113    85    84    1
   114     7     6    1
   115    80    79    2
   116    79    78    1
   117    79    83   am
   118    78    81    1
   119    81    82    1
   120    84    83    1
   121    84    87    1
   122     6     5    1
   123     5     2    1
   124    87    88    1
   125     2     1    1
   126     2     3    1
   127    88    89    1
   128    88    90    1
   129     3     4    2
