@<TRIPOS>MOLECULE
tmp/2yhwA00.pdb
 128 119 0 0 0
SMALL
GASTEIGER

@<TRIPOS>ATOM
      1  N         -2.4920   35.1310   16.5440 N.3    11  GLY11      -0.1210
      2  CA        -3.6760   35.3880   17.3000 C.3    11  GLY11       0.1956
      3  C         -4.6560   36.1870   16.5200 C.2    11  GLY11       0.2612
      4  O         -4.4230   36.5950   15.3630 O.2    11  GLY11      -0.2717
      5  N         -5.7450   36.4760   17.1730 N.am   12  GLY12      -0.1956
      6  CA        -6.7630   37.2800   16.4930 C.3    12  GLY12       0.1869
      7  C         -6.3910   38.7610   16.3240 C.2    12  GLY12       0.2309
      8  O         -7.1110   39.4990   15.6520 O.2    12  GLY12      -0.2863
      9  N         -4.7040   30.1710   15.5820 N.3    71  GLY71      -0.1210
     10  CA        -6.1430   29.9900   15.4630 C.3    71  GLY71       0.1956
     11  C         -6.4120   29.1470   14.1990 C.2    71  GLY71       0.2612
     12  O         -5.6210   29.1430   13.2510 O.2    71  GLY71      -0.2717
     13  N         -7.5330   28.4610   14.1980 N.am   72  GLY72      -0.1942
     14  CA        -7.9210   27.6350   13.1080 C.3    72  GLY72       0.2014
     15  C         -7.8280   26.1650   13.4230 C.2    72  GLY72       0.2638
     16  O         -7.2300   25.7190   14.4080 O.2    72  GLY72      -0.2714
     17  N         -8.4390   25.3910   12.5410 N.am   73  ARG73      -0.1977
     18  CA        -8.3030   23.9290   12.5590 C.3    73  ARG73       0.1597
     19  C         -7.0090   23.5480   11.8840 C.2    73  ARG73       0.2287
     20  O         -6.7160   24.0410   10.7680 O.2    73  ARG73      -0.2864
     21  CB        -9.4660   23.2630   11.9020 C.3    73  ARG73       0.0334
     22  CG       -10.6990   22.9990   12.7340 C.3    73  ARG73       0.0492
     23  CD       -11.2270   24.2150   13.4870 C.3    73  ARG73       0.2205
     24  NE       -11.7770   25.1590   12.5580 N.pl3  73  ARG73      -0.0865
     25  CZ       -11.7750   26.4880   12.7560 C.cat  73  ARG73       0.5346
     26  NH1      -11.3620   27.0530   13.8840 N.pl3  73  ARG73       0.1354
     27  NH2      -12.2720   27.2940   11.8240 N.pl3  73  ARG73       0.1354
     28  N         -9.8870   28.3990    8.8360 N.3    84  SER84      -0.1202
     29  CA        -9.9640   29.4160    9.8610 C.3    84  SER84       0.2020
     30  C        -11.2500   30.1590    9.8290 C.2    84  SER84       0.2619
     31  O        -11.7420   30.4910    8.7300 O.2    84  SER84      -0.2717
     32  CB        -8.8790   30.4450    9.7150 C.3    84  SER84       0.2103
     33  OG        -7.5760   29.8310    9.8970 O.3    84  SER84      -0.2182
     34  N        -11.7640   30.5550   10.9970 N.am   85  THR85      -0.1952
     35  CA       -12.7920   31.5940   11.0490 C.3    85  THR85       0.1897
     36  C        -12.1890   32.9240   10.5870 C.2    85  THR85       0.2313
     37  O        -10.9720   33.0220   10.5150 O.2    85  THR85      -0.2863
     38  CB       -13.4400   31.7920   12.4120 C.3    85  THR85       0.1794
     39  OG1      -12.5060   32.4590   13.2630 O.3    85  THR85      -0.2208
     40  CG2      -14.0080   30.4500   13.0370 C.3    85  THR85       0.0378
     41  N        -11.5880   35.4450   12.0810 N.3    87  LEU87      -0.1231
     42  CA       -10.5810   36.0580   12.9500 C.3    87  LEU87       0.1693
     43  C         -9.1970   36.0740   12.3470 C.2    87  LEU87       0.2591
     44  O         -8.3750   36.9760   12.6690 O.2    87  LEU87      -0.2718
     45  CB       -10.4910   35.4090   14.3390 C.3    87  LEU87       0.0284
     46  CG       -11.7030   35.5440   15.1550 C.3    87  LEU87       0.0019
     47  CD1      -11.2620   35.0360   16.6160 C.3    87  LEU87       0.0001
     48  CD2      -12.1420   36.9650   15.2280 C.3    87  LEU87       0.0001
     49  N         -8.8900   35.1150   11.4820 N.am   88  ILE88      -0.1980
     50  CA        -7.6880   35.1470   10.6680 C.3    88  ILE88       0.1595
     51  C         -8.1190   34.9360    9.2150 C.2    88  ILE88       0.2287
     52  O         -8.3830   33.7800    8.8290 O.2    88  ILE88      -0.2864
     53  CB        -6.6280   34.1240   11.0780 C.3    88  ILE88       0.0276
     54  CG1       -6.3410   34.2390   12.5490 C.3    88  ILE88       0.0022
     55  CG2       -5.3330   34.3960   10.2970 C.3    88  ILE88       0.0022
     56  CD1       -5.3720   33.0630   13.0690 C.3    88  ILE88       0.0001
     57  N         -3.3610   24.0470   16.7930 N.3   112  ASN112     -0.1225
     58  CA        -4.2730   25.0890   17.2100 C.3   112  ASN112      0.1785
     59  C         -3.8240   25.7490   18.4890 C.2   112  ASN112      0.2597
     60  O         -3.2120   25.0630   19.3640 O.2   112  ASN112     -0.2718
     61  CB        -5.6670   24.4340   17.3680 C.3   112  ASN112      0.1169
     62  CG        -6.6650   25.3660   18.0090 C.2   112  ASN112      0.2627
     63  OD1       -6.8890   25.3110   19.2440 O.2   112  ASN112     -0.2716
     64  ND2       -7.2160   26.3070   17.2380 N.am  112  ASN112     -0.0877
     65  N         -4.1030   27.0270   18.6590 N.am  113  ASP113     -0.1974
     66  CA        -3.6280   27.8020   19.8270 C.3   113  ASP113      0.1709
     67  C         -4.1850   27.3500   21.1630 C.2   113  ASP113      0.2293
     68  O         -3.4700   27.3350   22.1800 O.2   113  ASP113     -0.2864
     69  CB        -3.8190   29.3170   19.5910 C.3   113  ASP113      0.1436
     70  CG        -5.2650   29.7660   19.3860 C.2   113  ASP113      0.3671
     71  OD1       -6.0940   28.9190   19.0310 O.co2 113  ASP113     -0.2456
     72  OD2       -5.5010   30.9920   19.5480 O.co2 113  ASP113     -0.2456
     73  N         -8.8220   29.3450   26.8220 N.3   137  ILE137     -0.1245
     74  CA        -7.9640   30.4960   26.7300 C.3   137  ILE137      0.1561
     75  C         -8.7210   31.6400   26.1560 C.2   137  ILE137      0.2260
     76  O         -9.1600   31.5670   24.9790 O.2   137  ILE137     -0.2867
     77  CB        -6.5580   30.1700   26.0310 C.3   137  ILE137      0.0252
     78  CG1       -5.6520   31.4000   26.0040 C.3   137  ILE137      0.0019
     79  CG2       -6.6670   29.5460   24.6090 C.3   137  ILE137      0.0019
     80  CD1       -4.1240   31.1060   25.6380 C.3   137  ILE137      0.0001
     81  N        -10.3890   35.8100   20.7010 N.3   141  GLY141     -0.1210
     82  CA       -11.3880   34.7280   20.6010 C.3   141  GLY141      0.1956
     83  C        -11.2660   33.8690   21.8630 C.2   141  GLY141      0.2612
     84  O        -10.5950   34.2450   22.7970 O.2   141  GLY141     -0.2717
     85  N        -12.0340   32.7700   21.8920 N.am  142  ILE142     -0.1965
     86  CA       -11.8900   31.7710   22.9740 C.3   142  ILE142      0.1727
     87  C        -11.4040   30.4860   22.4030 C.2   142  ILE142      0.2617
     88  O        -12.0570   29.9390   21.5230 O.2   142  ILE142     -0.2715
     89  CB       -13.2000   31.5790   23.7440 C.3   142  ILE142      0.0290
     90  CG1      -13.5590   32.9010   24.5020 C.3   142  ILE142      0.0022
     91  CG2      -13.0310   30.4160   24.7790 C.3   142  ILE142      0.0023
     92  CD1      -14.8340   32.8590   25.3680 C.3   142  ILE142      0.0001
     93  N        -10.2360   30.0390   22.8600 N.am  143  GLY143     -0.1940
     94  CA        -9.6650   28.7620   22.4830 C.3   143  GLY143      0.2014
     95  C         -9.8520   27.6720   23.5080 C.2   143  GLY143      0.2639
     96  O        -10.0400   27.9600   24.6940 O.2   143  GLY143     -0.2714
     97  N         -9.8420   26.4280   23.0480 N.am  144  GLY144     -0.1954
     98  CA        -9.8840   25.2810   23.9790 C.3   144  GLY144      0.1869
     99  C         -8.8290   24.2670   23.7010 C.2   144  GLY144      0.2309
    100  O         -8.2980   24.1480   22.5790 O.2   144  GLY144     -0.2863
    101  N        -12.8040   22.9050   20.0260 N.3   162  GLU162     -0.1245
    102  CA       -13.2020   24.2220   19.5340 C.3   162  GLU162      0.1567
    103  C        -14.1990   24.8170   20.4740 C.2   162  GLU162      0.2260
    104  O        -15.3300   25.1170   20.1460 O.2   162  GLU162     -0.2867
    105  CB       -13.6520   24.1500   18.0670 C.3   162  GLU162      0.0388
    106  CG       -12.5230   24.2670   17.0790 C.3   162  GLU162      0.1160
    107  CD       -11.8950   25.6470   17.0270 C.2   162  GLU162      0.3649
    108  OE1      -12.4670   26.6040   17.5110 O.co2 162  GLU162     -0.2457
    109  OE2      -10.7730   25.7400   16.4080 O.co2 162  GLU162     -0.2457
    110  N        -16.7650   27.7350   20.4670 N.3   165  HIS165     -0.1241
    111  CA       -18.0230   27.5390   19.6990 C.3   165  HIS165      0.1621
    112  C        -18.9180   26.5020   20.3330 C.2   165  HIS165      0.2264
    113  O        -19.7930   25.9360   19.6650 O.2   165  HIS165     -0.2867
    114  CB       -17.6910   27.2990   18.2200 C.3   165  HIS165      0.0745
    115  CG       -16.7360   28.3440   17.7300 C.ar  165  HIS165      0.0817
    116  ND1      -17.1090   29.6690   17.5180 N.ar  165  HIS165     -0.2268
    117  CD2      -15.3790   28.2930   17.6260 C.ar  165  HIS165      0.1154
    118  CE1      -15.9810   30.3510   17.2480 C.ar  165  HIS165      0.1986
    119  NE2      -14.9240   29.5510   17.3380 N.ar  165  HIS165     -0.2212
    120  N        -17.8570   32.2880   22.6780 N.3   183  GLU183     -0.1245
    121  CA       -16.9880   33.3240   22.1380 C.3   183  GLU183      0.1567
    122  C        -17.7480   34.6110   21.8320 C.2   183  GLU183      0.2260
    123  O        -17.1890   35.7010   22.0250 O.2   183  GLU183     -0.2867
    124  CB       -16.2450   32.7880   20.8790 C.3   183  GLU183      0.0388
    125  CG       -15.2250   33.7650   20.3120 C.3   183  GLU183      0.1160
    126  CD       -14.3930   33.1360   19.2570 C.2   183  GLU183      0.3649
    127  OE1      -13.5820   32.2800   19.5800 O.co2 183  GLU183     -0.2457
    128  OE2      -14.5690   33.4800   18.0960 O.co2 183  GLU183     -0.2457
@<TRIPOS>BOND
     1    31    30    2
     2    52    51    2
     3    28    29    1
     4    51    50    1
     5    32    29    1
     6    32    33    1
     7    30    29    1
     8    30    34   am
     9    55    53    1
    10    37    36    2
    11    36    35    1
    12    50    53    1
    13    50    49    1
    14    20    19    2
    15    34    35    1
    16    35    38    1
    17    53    54    1
    18    49    43   am
    19    27    25    1
    20    19    18    1
    21    21    18    1
    22    21    22    1
    23    41    42    1
    24    43    44    2
    25    43    42    1
    26    38    40    1
    27    38    39    1
    28    17    18    1
    29    17    15   am
    30    54    56    1
    31    24    25    2
    32    24    23    1
    33    22    23    1
    34    25    26    1
    35    42    45    1
    36    14    15    1
    37    14    13    1
    38    12    11    2
    39    15    16    2
    40    13    11   am
    41    11    10    1
    42    45    46    1
    43    46    48    1
    44    46    47    1
    45     4     3    2
    46    10     9    1
    47     8     7    2
    48     7     6    1
    49   109   107   ar
    50     6     5    1
    51     3     5   am
    52     3     2    1
    53     1     2    1
    54    57    58    1
    55   107   106    1
    56   107   108   ar
    57   106   105    1
    58    58    61    1
    59    58    59    1
    60    64    62   am
    61   118   119   ar
    62   118   116   ar
    63   119   117   ar
    64    61    62    1
    65   116   115   ar
    66   117   115   ar
    67   115   114    1
    68    62    63    2
    69   105   102    1
    70   128   126   ar
    71   114   111    1
    72    59    65   am
    73    59    60    2
    74    65    66    1
    75    71    70   ar
    76   126   127   ar
    77   126   125    1
    78    70    72   ar
    79    70    69    1
    80   102   101    1
    81   102   103    1
    82    69    66    1
    83   113   112    2
    84   111   112    1
    85   111   110    1
    86    66    67    1
    87   104   103    2
    88   125   124    1
    89    82    81    1
    90    82    83    1
    91   124   121    1
    92    67    68    2
    93    88    87    2
    94   122   123    2
    95   122   121    1
    96    83    85   am
    97    83    84    2
    98    85    86    1
    99   121   120    1
   100    87    93   am
   101    87    86    1
   102    94    93    1
   103    94    95    1
   104   100    99    2
   105    86    89    1
   106    97    95   am
   107    97    98    1
   108    95    96    2
   109    99    98    1
   110    89    90    1
   111    89    91    1
   112    90    92    1
   113    79    77    1
   114    76    75    2
   115    80    78    1
   116    78    77    1
   117    77    74    1
   118    75    74    1
   119    74    73    1
