@<TRIPOS>MOLECULE
tmp/2yhxA00.pdb
 97 88 0 0 0
SMALL
GASTEIGER

@<TRIPOS>ATOM
      1  N         70.3250  -11.7420   12.8170 N.3    38  PRO38      -0.2116
      2  CA        71.3940  -12.6400   12.4960 C.3    38  PRO38       0.1372
      3  C         72.5410  -11.9420   11.8010 C.2    38  PRO38       0.2244
      4  O         73.7180  -12.1400   12.2250 O.2    38  PRO38      -0.2868
      5  CB        70.6960  -13.6670   11.6320 C.3    38  PRO38       0.0268
      6  CG        69.2590  -13.6200   12.0860 C.3    38  PRO38       0.0207
      7  CD        68.9960  -12.2350   12.4450 C.3    38  PRO38       0.0892
      8  N         66.6650  -22.0490    4.1590 N.3   125  GLU125     -0.1231
      9  CA        66.2700  -22.9340    5.2490 C.3   125  GLU125      0.1699
     10  C         66.9780  -22.6700    6.6240 C.2   125  GLU125      0.2592
     11  O         66.3170  -22.4580    7.6470 O.2   125  GLU125     -0.2718
     12  CB        66.5720  -24.3830    4.8680 C.3   125  GLU125      0.0402
     13  CG        65.3050  -25.2170    4.6960 C.3   125  GLU125      0.1161
     14  CD        65.0230  -25.6160    3.2440 C.2   125  GLU125      0.3649
     15  OE1       65.8660  -25.3100    2.3160 O.co2 125  GLU125     -0.2457
     16  OE2       63.9440  -26.2570    2.9540 O.co2 125  GLU125     -0.2457
     17  N         68.2950  -22.7030    6.6250 N.am  126  ALA126     -0.1980
     18  CA        69.1120  -22.5030    7.8900 C.3   126  ALA126      0.1597
     19  C         70.5460  -22.1570    7.5310 C.2   126  ALA126      0.2287
     20  O         71.1490  -22.7990    6.6650 O.2   126  ALA126     -0.2864
     21  CB        69.1170  -23.7970    8.7300 C.3   126  ALA126      0.0319
     22  N         70.0520  -25.7430    9.9420 N.3   137  THR137     -0.1218
     23  CA        69.8600  -25.2770   11.2400 C.3   137  THR137      0.1862
     24  C         68.5930  -25.8760   11.8150 C.2   137  THR137      0.2287
     25  O         68.5460  -26.2300   13.0010 O.2   137  THR137     -0.2866
     26  CB        69.7500  -23.7350   11.1620 C.3   137  THR137      0.1770
     27  OG1       71.0590  -23.1630   11.0520 O.3   137  THR137     -0.2211
     28  CG2       69.0890  -23.1170   12.3840 C.3   137  THR137      0.0375
     29  N         62.5220  -25.8850    7.5680 N.3   139  ALA139     -0.1245
     30  CA        61.3990  -24.9760    7.3300 C.3   139  ALA139      0.1562
     31  C         60.5180  -25.6580    6.2570 C.2   139  ALA139      0.2260
     32  O         60.5610  -26.8910    6.0750 O.2   139  ALA139     -0.2867
     33  CB        61.9300  -23.6400    6.7950 C.3   139  ALA139      0.0290
     34  N         68.0850  -16.9030   -0.8170 N.3   164  ASP164     -0.1225
     35  CA        67.3480  -16.2500   -1.8840 C.3   164  ASP164      0.1805
     36  C         67.5510  -14.7490   -1.9080 C.2   164  ASP164      0.2598
     37  O         67.5770  -14.1360   -2.9840 O.2   164  ASP164     -0.2718
     38  CB        65.8310  -16.5350   -1.7640 C.3   164  ASP164      0.1424
     39  CG        65.1510  -16.0050   -0.4670 C.2   164  ASP164      0.3668
     40  OD1       63.8860  -15.7600   -0.4560 O.co2 164  ASP164     -0.2456
     41  OD2       65.8360  -15.8080    0.6010 O.co2 164  ASP164     -0.2456
     42  N         67.6920  -14.1530   -0.7390 N.am  165  SER165     -0.1952
     43  CA        67.8590  -12.6730   -0.6600 C.3   165  SER165      0.1924
     44  C         69.2320  -12.2600   -1.2380 C.2   165  SER165      0.2314
     45  O         69.3570  -11.2100   -1.8940 O.2   165  SER165     -0.2863
     46  CB        67.7220  -12.1890    0.7650 C.3   165  SER165      0.2116
     47  OG        66.3520  -11.8680    1.0190 O.3   165  SER165     -0.2180
     48  N         63.2020   -9.2840   -0.3420 N.3   181  ILE181     -0.1245
     49  CA        62.0830  -10.1250   -0.6870 C.3   181  ILE181      0.1561
     50  C         60.8620   -9.7320    0.1420 C.2   181  ILE181      0.2260
     51  O         60.9340   -9.6480    1.3750 O.2   181  ILE181     -0.2867
     52  CB        62.3480  -11.5840   -0.4290 C.3   181  ILE181      0.0252
     53  CG1       63.6530  -12.0760   -1.0940 C.3   181  ILE181      0.0019
     54  CG2       61.2040  -12.4500   -0.9560 C.3   181  ILE181      0.0019
     55  CD1       63.4530  -12.6240   -2.5150 C.3   181  ILE181      0.0001
     56  N         57.6610  -14.4740    3.6240 N.3   185  GLY185     -0.1210
     57  CA        58.6750  -13.9750    4.5340 C.3   185  GLY185      0.1956
     58  C         59.2340  -12.7430    3.9100 C.2   185  GLY185      0.2612
     59  O         59.0130  -12.5040    2.7170 O.2   185  GLY185     -0.2717
     60  N         59.9350  -11.9950    4.7150 N.am  186  VAL186     -0.1965
     61  CA        60.5510  -10.7760    4.2870 C.3   186  VAL186      0.1727
     62  C         61.9760  -10.7380    4.8550 C.2   186  VAL186      0.2616
     63  O         62.2190  -11.1240    6.0130 O.2   186  VAL186     -0.2715
     64  CB        59.7100   -9.6180    4.7700 C.3   186  VAL186      0.0290
     65  CG1       58.2430  -10.0150    4.9570 C.3   186  VAL186      0.0023
     66  CG2       60.1830   -9.0580    6.1090 C.3   186  VAL186      0.0023
     67  N         62.8600  -10.2720    4.0080 N.am  187  ASN187     -0.1972
     68  CA        64.2520  -10.1780    4.2850 C.3   187  ASN187      0.1688
     69  C         64.9020   -9.3360    3.1770 C.2   187  ASN187      0.2292
     70  O         64.2690   -9.0390    2.1430 O.2   187  ASN187     -0.2864
     71  CB        64.8020  -11.6270    4.2930 C.3   187  ASN187      0.1181
     72  CG        66.1600  -11.7800    4.9030 C.2   187  ASN187      0.2629
     73  OD1       66.5900  -10.9000    5.6530 O.2   187  ASN187     -0.2716
     74  ND2       66.8660  -12.8480    4.6250 N.am  187  ASN187     -0.0877
     75  N         68.4380  -11.2810    7.4300 N.3   212  ASP212     -0.1239
     76  CA        67.4290  -12.1540    8.0060 C.3   212  ASP212      0.1674
     77  C         66.7800  -11.3530    9.1630 C.2   212  ASP212      0.2266
     78  O         66.6730  -11.8070   10.3120 O.2   212  ASP212     -0.2867
     79  CB        67.9640  -13.4960    8.4150 C.3   212  ASP212      0.1410
     80  CG        67.0330  -14.5690    7.7410 C.2   212  ASP212      0.3668
     81  OD1       67.4820  -15.4350    6.8930 O.co2 212  ASP212     -0.2456
     82  OD2       65.7690  -14.6110    7.9970 O.co2 212  ASP212     -0.2456
     83  N         63.6860  -10.4100    9.4910 N.3   214  SER214     -0.1217
     84  CA        62.2780  -10.6520    9.6710 C.3   214  SER214      0.1889
     85  C         62.0310  -10.8340   11.2130 C.2   214  SER214      0.2288
     86  O         60.9110  -11.1010   11.6820 O.2   214  SER214     -0.2866
     87  CB        61.8980  -11.9010    8.8870 C.3   214  SER214      0.2089
     88  OG        63.0550  -12.4210    8.2120 O.3   214  SER214     -0.2183
     89  N         59.9950  -13.8340   15.0250 N.3   235  LYS235     -0.1245
     90  CA        59.9370  -13.1380   13.6660 C.3   235  LYS235      0.1561
     91  C         58.8660  -12.0600   13.6330 C.2   235  LYS235      0.2260
     92  O         57.9370  -12.1160   12.8080 O.2   235  LYS235     -0.2867
     93  CB        59.5400  -14.1380   12.5320 C.3   235  LYS235      0.0271
     94  CG        60.1530  -15.5470   12.6470 C.3   235  LYS235      0.0035
     95  CD        61.6850  -15.5830   12.4860 C.3   235  LYS235      0.0206
     96  CE        62.2130  -14.6450   11.3930 C.3   235  LYS235      0.1093
     97  NZ        61.5480  -14.8440   10.0970 N.3   235  LYS235     -0.1314
@<TRIPOS>BOND
     1    37    36    2
     2    55    53    1
     3    36    35    1
     4    36    42   am
     5    45    44    2
     6    35    38    1
     7    35    34    1
     8    38    39    1
     9    44    43    1
    10    53    52    1
    11    54    52    1
    12    42    43    1
    13    49    52    1
    14    49    48    1
    15    49    50    1
    16    43    46    1
    17    39    40   ar
    18    39    41   ar
    19    50    51    2
    20    46    47    1
    21    70    69    2
    22    15    14   ar
    23    59    58    2
    24    16    14   ar
    25    69    68    1
    26    14    13    1
    27    56    57    1
    28    58    57    1
    29    58    60   am
    30    67    68    1
    31    67    62   am
    32     8     9    1
    33    68    71    1
    34    61    60    1
    35    61    64    1
    36    61    62    1
    37    71    72    1
    38    74    72   am
    39    13    12    1
    40    64    65    1
    41    64    66    1
    42    62    63    2
    43    12     9    1
    44    72    73    2
    45     9    10    1
    46    32    31    2
    47    31    30    1
    48    10    17   am
    49    10    11    2
    50    17    18    1
    51    20    19    2
    52    33    30    1
    53    81    80   ar
    54    30    29    1
    55    75    76    1
    56    19    18    1
    57    80    82   ar
    58    80    79    1
    59    18    21    1
    60    76    79    1
    61    76    77    1
    62    88    87    1
    63    87    84    1
    64    77    78    2
    65    83    84    1
    66    84    85    1
    67    22    23    1
    68    97    96    1
    69    27    26    1
    70    26    23    1
    71    26    28    1
    72    85    86    2
    73    23    24    1
    74    96    95    1
    75     5     6    1
    76     5     2    1
    77     3     4    2
    78     3     2    1
    79    24    25    2
    80     6     7    1
    81     7     1    1
    82    95    94    1
    83     2     1    1
    84    93    94    1
    85    93    90    1
    86    92    91    2
    87    91    90    1
    88    90    89    1
