@<TRIPOS>MOLECULE
tmp/2yhyA05.pdb
 125 116 0 0 0
SMALL
GASTEIGER

@<TRIPOS>ATOM
      1  N          3.2170   32.5130   17.8740 N.3     9  ASP9       -0.1239
      2  CA         1.7830   32.4510   18.2280 C.3     9  ASP9        0.1674
      3  C          0.9980   33.4550   17.3760 C.2     9  ASP9        0.2266
      4  O          1.2870   34.6730   17.3640 O.2     9  ASP9       -0.2867
      5  CB         1.5310   32.7190   19.6940 C.3     9  ASP9        0.1410
      6  CG         0.0260   32.7140   20.0730 C.2     9  ASP9        0.3668
      7  OD1       -0.6980   31.7720   19.5570 O.co2   9  ASP9       -0.2456
      8  OD2       -0.3820   33.5730   20.9080 O.co2   9  ASP9       -0.2456
      9  N         -2.6180   34.8360   16.7440 N.3    11  GLY11      -0.1210
     10  CA        -3.9810   34.9520   17.2460 C.3    11  GLY11       0.1956
     11  C         -4.8230   35.8890   16.4630 C.2    11  GLY11       0.2612
     12  O         -4.3990   36.3820   15.3850 O.2    11  GLY11      -0.2717
     13  N         -6.0060   36.1580   17.0210 N.am   12  GLY12      -0.1942
     14  CA        -6.9590   37.1270   16.4690 C.3    12  GLY12       0.2014
     15  C         -6.4700   38.5660   16.3470 C.2    12  GLY12       0.2640
     16  O         -7.0330   39.3210   15.5840 O.2    12  GLY12      -0.2714
     17  N         -5.4410   38.9460   17.0650 N.am   13  THR13      -0.1936
     18  CA        -4.9160   40.3150   17.0200 C.3    13  THR13       0.2028
     19  C         -3.4230   40.3970   16.7280 C.2    13  THR13       0.2642
     20  O         -2.9820   41.1500   15.8530 O.2    13  THR13      -0.2714
     21  CB        -5.1970   41.0600   18.3740 C.3    13  THR13       0.1808
     22  OG1       -6.6090   41.0600   18.6360 O.3    13  THR13      -0.2208
     23  CG2       -4.6530   42.4680   18.3530 C.3    13  THR13       0.0379
     24  N         -2.6660   39.6650   17.5220 N.am   14  ASN14      -0.1971
     25  CA        -1.1990   39.7620   17.5740 C.3    14  ASN14       0.1688
     26  C         -0.4410   38.5050   17.0110 C.2    14  ASN14       0.2292
     27  O         -0.9900   37.4270   17.0580 O.2    14  ASN14      -0.2864
     28  CB        -0.7610   39.9780   19.0270 C.3    14  ASN14       0.1181
     29  CG        -1.3080   41.2440   19.6130 C.2    14  ASN14       0.2629
     30  OD1       -0.9800   42.2850   19.1500 O.2    14  ASN14      -0.2716
     31  ND2       -2.2780   41.1180   20.5170 N.am   14  ASN14      -0.0877
     32  N          3.2360   36.8730   17.5630 N.3    16  ARG16      -0.1245
     33  CA         4.3720   36.9710   18.4610 C.3    16  ARG16       0.1563
     34  C          5.3350   35.8330   18.1310 C.2    16  ARG16       0.2260
     35  O          4.8820   34.7020   17.8390 O.2    16  ARG16      -0.2867
     36  CB         3.8630   36.8760   19.9110 C.3    16  ARG16       0.0307
     37  CG         2.9170   38.0420   20.3830 C.3    16  ARG16       0.0489
     38  CD         2.9330   38.2060   21.8890 C.3    16  ARG16       0.2205
     39  NE         1.9990   39.2140   22.4010 N.pl3  16  ARG16      -0.0865
     40  CZ         0.7060   38.9650   22.6410 C.cat  16  ARG16       0.5346
     41  NH1        0.1870   37.7410   22.4020 N.pl3  16  ARG16       0.1354
     42  NH2       -0.0740   39.9210   23.0880 N.pl3  16  ARG16       0.1354
     43  N         -3.9200   26.8830   18.7590 N.3   113  ASP113     -0.1239
     44  CA        -3.4210   27.7110   19.8990 C.3   113  ASP113      0.1674
     45  C         -3.9960   27.2640   21.2450 C.2   113  ASP113      0.2266
     46  O         -3.2990   27.2090   22.2750 O.2   113  ASP113     -0.2867
     47  CB        -3.6240   29.2100   19.6620 C.3   113  ASP113      0.1410
     48  CG        -5.0670   29.6430   19.4820 C.2   113  ASP113      0.3668
     49  OD1       -5.9180   28.7650   19.1210 O.co2 113  ASP113     -0.2456
     50  OD2       -5.3500   30.8380   19.6130 O.co2 113  ASP113     -0.2456
     51  N         -8.7840   32.6260   27.0050 N.3   138  THR138     -0.1203
     52  CA        -9.5060   33.7170   26.5300 C.3   138  THR138      0.1994
     53  C         -8.5070   34.7610   25.9850 C.2   138  THR138      0.2618
     54  O         -7.5160   35.1260   26.6680 O.2   138  THR138     -0.2717
     55  CB       -10.4010   34.2950   27.6060 C.3   138  THR138      0.1784
     56  OG1      -11.3080   33.2730   28.0320 O.3   138  THR138     -0.2211
     57  CG2      -11.2870   35.4110   27.0520 C.3   138  THR138      0.0376
     58  N         -8.7580   35.2060   24.7810 N.am  139  GLY139     -0.1942
     59  CA        -7.9210   36.2490   24.1150 C.3   139  GLY139      0.2014
     60  C         -8.8700   37.0560   23.2660 C.2   139  GLY139      0.2640
     61  O        -10.0340   37.3830   23.6930 O.2   139  GLY139     -0.2714
     62  N         -8.4530   37.3100   22.0090 N.am  140  THR140     -0.1936
     63  CA        -9.4180   37.7920   21.0200 C.3   140  THR140      0.2028
     64  C        -10.6220   36.8880   20.8890 C.2   140  THR140      0.2642
     65  O        -11.7540   37.3610   20.8390 O.2   140  THR140     -0.2714
     66  CB        -8.7020   37.9820   19.6250 C.3   140  THR140      0.1808
     67  OG1       -7.5320   38.8000   19.8950 O.3   140  THR140     -0.2208
     68  CG2       -9.6660   38.7250   18.6790 C.3   140  THR140      0.0379
     69  N        -10.3050   35.5900   20.6640 N.am  141  GLY141     -0.1954
     70  CA       -11.2900   34.5210   20.5740 C.3   141  GLY141      0.1869
     71  C        -11.1980   33.7200   21.8810 C.2   141  GLY141      0.2309
     72  O        -10.5100   34.1210   22.8250 O.2   141  GLY141     -0.2863
     73  N        -12.4600   38.4520   24.3350 N.3   189  GLY189     -0.1210
     74  CA       -11.9870   39.8130   24.2710 C.3   189  GLY189      0.1956
     75  C        -12.6890   40.6200   23.2070 C.2   189  GLY189      0.2611
     76  O        -13.0660   41.7910   23.4350 O.2   189  GLY189     -0.2717
     77  N        -12.8770   40.0650   22.0260 N.am  190  MET190     -0.1979
     78  CA       -13.5390   40.8380   20.9820 C.3   190  MET190      0.1605
     79  C        -15.0310   41.0150   21.2730 C.2   190  MET190      0.2287
     80  O        -15.6160   42.0460   20.9450 O.2   190  MET190     -0.2864
     81  CB       -13.2960   40.2460   19.5920 C.3   190  MET190      0.0413
     82  CG       -14.0100   38.9630   19.3730 C.3   190  MET190      0.0598
     83  SD       -13.2410   38.2560   17.8980 S.3   190  MET190     -0.1393
     84  CE       -14.6780   38.5370   16.8350 C.3   190  MET190      0.0692
     85  N        -14.9210   43.7830   23.9880 N.3   193  GLN193     -0.1245
     86  CA       -14.4960   45.0130   23.2950 C.3   193  GLN193      0.1566
     87  C        -15.6680   45.6300   22.5740 C.2   193  GLN193      0.2260
     88  O        -15.8910   46.8650   22.6600 O.2   193  GLN193     -0.2867
     89  CB       -13.3940   44.7330   22.2920 C.3   193  GLN193      0.0367
     90  CG       -13.2250   45.9110   21.2860 C.3   193  GLN193      0.0905
     91  CD       -12.0080   45.7470   20.4470 C.2   193  GLN193      0.2608
     92  OE1      -10.9170   45.4610   20.9630 O.2   193  GLN193     -0.2717
     93  NE2      -12.1670   45.9250   19.1440 N.am  193  GLN193     -0.0878
     94  N        -11.6560   48.9520   25.1710 N.3   214  GLY214     -0.1210
     95  CA       -11.5010   47.4910   25.1990 C.3   214  GLY214      0.1956
     96  C        -12.1440   46.7940   26.3790 C.2   214  GLY214      0.2612
     97  O        -12.8800   47.3930   27.1760 O.2   214  GLY214     -0.2717
     98  N        -11.8420   45.5120   26.4950 N.am  215  ALA215     -0.1965
     99  CA       -12.4030   44.6900   27.5510 C.3   215  ALA215      0.1728
    100  C        -12.0370   45.2200   28.9410 C.2   215  ALA215      0.2616
    101  O        -12.8790   45.2780   29.8440 O.2   215  ALA215     -0.2715
    102  CB       -11.9260   43.2420   27.3720 C.3   215  ALA215      0.0334
    103  N        -10.7950   45.6610   29.1300 N.am  216  LEU216     -0.1977
    104  CA       -10.3830   46.0850   30.4810 C.3   216  LEU216      0.1596
    105  C        -11.1070   47.3350   30.9950 C.2   216  LEU216      0.2287
    106  O        -11.2890   47.5110   32.2250 O.2   216  LEU216     -0.2864
    107  CB        -8.8860   46.3210   30.5370 C.3   216  LEU216      0.0297
    108  CG        -8.0730   45.0310   30.4100 C.3   216  LEU216      0.0022
    109  CD1       -6.9790   45.3060   29.3590 C.3   216  LEU216      0.0001
    110  CD2       -7.4910   44.5650   31.7970 C.3   216  LEU216      0.0001
    111  N         -5.9800   37.0850   30.0810 N.3   261  VAL261     -0.1231
    112  CA        -6.0680   38.0310   31.1580 C.3   261  VAL261      0.1692
    113  C         -7.4690   38.0940   31.7190 C.2   261  VAL261      0.2591
    114  O         -7.6440   38.3850   32.8910 O.2   261  VAL261     -0.2718
    115  CB        -5.5420   39.3950   30.7640 C.3   261  VAL261      0.0266
    116  CG1       -6.3150   39.8980   29.5840 C.3   261  VAL261      0.0020
    117  CG2       -5.6580   40.3310   31.9290 C.3   261  VAL261      0.0020
    118  N         -8.4620   37.7520   30.9110 N.am  262  LEU262     -0.1980
    119  CA        -9.8290   37.7410   31.4080 C.3   262  LEU262      0.1596
    120  C        -10.1440   36.6070   32.4320 C.2   262  LEU262      0.2287
    121  O        -11.1640   36.6470   33.1100 O.2   262  LEU262     -0.2864
    122  CB       -10.8270   37.6390   30.2410 C.3   262  LEU262      0.0297
    123  CG       -10.8780   38.9440   29.4190 C.3   262  LEU262      0.0022
    124  CD1      -11.7700   38.6730   28.1950 C.3   262  LEU262      0.0001
    125  CD2      -11.3670   40.2150   30.2410 C.3   262  LEU262      0.0001
@<TRIPOS>BOND
     1    12    11    2
     2    16    15    2
     3    20    19    2
     4    15    14    1
     5    15    17   am
     6    11    13   am
     7    11    10    1
     8    14    13    1
     9    19    18    1
    10    19    24   am
    11     9    10    1
    12    84    83    1
    13    26    27    2
    14    26    25    1
    15    18    17    1
    16    18    21    1
    17     4     3    2
    18     3     2    1
    19    24    25    1
    20    32    33    1
    21    25    28    1
    22    35    34    2
    23     1     2    1
    24    83    82    1
    25    34    33    1
    26     2     5    1
    27    23    21    1
    28    21    22    1
    29    33    36    1
    30    68    66    1
    31    43    44    1
    32    28    29    1
    33    49    48   ar
    34    93    91   am
    35    30    29    2
    36    82    81    1
    37    48    50   ar
    38    48    47    1
    39     7     6   ar
    40    81    78    1
    41    29    31   am
    42    66    67    1
    43    66    63    1
    44    47    44    1
    45     5     6    1
    46    44    45    1
    47    36    37    1
    48     6     8   ar
    49    37    38    1
    50    91    92    2
    51    91    90    1
    52    70    69    1
    53    70    71    1
    54    69    64   am
    55    65    64    2
    56    64    63    1
    57    80    79    2
    58    78    79    1
    59    78    77    1
    60    63    62    1
    61    45    46    2
    62    90    89    1
    63    71    72    2
    64    38    39    1
    65    62    60   am
    66    77    75   am
    67    89    86    1
    68    39    40    2
    69    41    40    1
    70    87    88    2
    71    87    86    1
    72    40    42    1
    73    75    76    2
    74    75    74    1
    75    60    61    2
    76    60    59    1
    77    86    85    1
    78    59    58    1
    79    74    73    1
    80    58    53   am
    81    94    95    1
    82    95    96    1
    83    53    52    1
    84    53    54    2
    85    96    98   am
    86    96    97    2
    87    98    99    1
    88    52    51    1
    89    52    55    1
    90    57    55    1
    91   102    99    1
    92    99   100    1
    93    55    56    1
    94   124   123    1
    95   100   103   am
    96   100   101    2
    97   103   104    1
    98   109   108    1
    99   123   125    1
   100   123   122    1
   101   116   115    1
   102   111   112    1
   103   122   119    1
   104   108   107    1
   105   108   110    1
   106   104   107    1
   107   104   105    1
   108   115   112    1
   109   115   117    1
   110   118   119    1
   111   118   113   am
   112   105   106    2
   113   112   113    1
   114   119   120    1
   115   113   114    2
   116   120   121    2
