@<TRIPOS>MOLECULE
tmp/2yi1A00.pdb
 139 130 0 0 0
SMALL
GASTEIGER

@<TRIPOS>ATOM
      1  N         35.0060    2.7180   -8.3860 N.3    11  GLY11      -0.1210
      2  CA        35.1520    4.0720   -7.9220 C.3    11  GLY11       0.1956
      3  C         36.0410    4.9440   -8.7650 C.2    11  GLY11       0.2612
      4  O         36.5390    4.5420   -9.8110 O.2    11  GLY11      -0.2717
      5  N         36.2850    6.1540   -8.2580 N.am   12  GLY12      -0.1956
      6  CA        37.2700    7.0150   -8.9070 C.3    12  GLY12       0.1869
      7  C         38.7290    6.5680   -8.8970 C.2    12  GLY12       0.2309
      8  O         39.5470    7.1600   -9.5910 O.2    12  GLY12      -0.2863
      9  N         30.2260    4.6660   -9.5570 N.3    71  GLY71      -0.1210
     10  CA        30.0430    6.1080   -9.6950 C.3    71  GLY71       0.1956
     11  C         29.2440    6.3910  -10.9590 C.2    71  GLY71       0.2612
     12  O         29.2660    5.6130  -11.9300 O.2    71  GLY71      -0.2717
     13  N         28.5730    7.5270  -10.9630 N.am   72  GLY72      -0.1942
     14  CA        27.8080    7.9420  -12.0570 C.3    72  GLY72       0.2014
     15  C         26.3030    7.8420  -11.7510 C.2    72  GLY72       0.2638
     16  O         25.9110    7.2730  -10.7320 O.2    72  GLY72      -0.2714
     17  N         25.4990    8.4510  -12.6080 N.am   73  ARG73      -0.1977
     18  CA        24.0610    8.3470  -12.5700 C.3    73  ARG73       0.1597
     19  C         23.6470    7.0540  -13.2450 C.2    73  ARG73       0.2287
     20  O         24.1090    6.7780  -14.2860 O.2    73  ARG73      -0.2864
     21  CB        23.4010    9.5140  -13.2740 C.3    73  ARG73       0.0334
     22  CG        23.1140   10.7200  -12.4370 C.3    73  ARG73       0.0492
     23  CD        24.3330   11.3390  -11.7920 C.3    73  ARG73       0.2205
     24  NE        25.3140   11.8150  -12.7240 N.pl3  73  ARG73      -0.0865
     25  CZ        26.6120   11.8350  -12.4980 C.cat  73  ARG73       0.5346
     26  NH1       27.0960   11.3980  -11.3630 N.pl3  73  ARG73       0.1354
     27  NH2       27.4140   12.2790  -13.4090 N.pl3  73  ARG73       0.1354
     28  N         28.5020    9.9700  -16.2670 N.3    84  SER84      -0.1202
     29  CA        29.5310   10.0190  -15.2320 C.3    84  SER84       0.2020
     30  C         30.2910   11.2950  -15.3060 C.2    84  SER84       0.2619
     31  O         30.6310   11.7250  -16.4340 O.2    84  SER84      -0.2717
     32  CB        30.5320    8.8660  -15.4340 C.3    84  SER84       0.2103
     33  OG        29.8700    7.6000  -15.1750 O.3    84  SER84      -0.2182
     34  N         30.6480   11.8730  -14.1390 N.am   85  THR85      -0.1952
     35  CA        31.6940   12.9010  -14.1290 C.3    85  THR85       0.1897
     36  C         33.0070   12.2630  -14.5930 C.2    85  THR85       0.2313
     37  O         33.1240   11.0320  -14.6880 O.2    85  THR85      -0.2863
     38  CB        31.8940   13.5520  -12.7750 C.3    85  THR85       0.1794
     39  OG1       32.5280   12.6350  -11.8910 O.3    85  THR85      -0.2208
     40  CG2       30.5220   14.0530  -12.1340 C.3    85  THR85       0.0378
     41  N         35.5210   11.6760  -13.1910 N.3    87  LEU87      -0.1231
     42  CA        36.1940   10.7370  -12.2690 C.3    87  LEU87       0.1693
     43  C         36.2140    9.3480  -12.8550 C.2    87  LEU87       0.2591
     44  O         37.0620    8.5640  -12.5340 O.2    87  LEU87      -0.2718
     45  CB        35.5060   10.6330  -10.8880 C.3    87  LEU87       0.0284
     46  CG        35.6880   11.7960   -9.9320 C.3    87  LEU87       0.0019
     47  CD1       35.1310   11.3560   -8.4710 C.3    87  LEU87       0.0001
     48  CD2       37.1360   12.2250   -9.8380 C.3    87  LEU87       0.0001
     49  N         35.2090    9.0170  -13.6550 N.am   88  ILE88      -0.1980
     50  CA        35.2680    7.7940  -14.4460 C.3    88  ILE88       0.1595
     51  C         35.0080    8.1770  -15.9020 C.2    88  ILE88       0.2287
     52  O         33.8560    8.4330  -16.2890 O.2    88  ILE88      -0.2864
     53  CB        34.2510    6.7430  -14.0110 C.3    88  ILE88       0.0276
     54  CG1       34.4550    6.3700  -12.5550 C.3    88  ILE88       0.0022
     55  CG2       34.4100    5.4740  -14.8560 C.3    88  ILE88       0.0022
     56  CD1       33.2800    5.4940  -11.9730 C.3    88  ILE88       0.0001
     57  N         24.0940    3.4360   -8.3580 N.3   112  ASN112     -0.1225
     58  CA        25.1670    4.3330   -7.9320 C.3   112  ASN112      0.1785
     59  C         25.8650    3.8430   -6.6270 C.2   112  ASN112      0.2597
     60  O         25.2060    3.2180   -5.7360 O.2   112  ASN112     -0.2718
     61  CB        24.5260    5.7260   -7.7500 C.3   112  ASN112      0.1169
     62  CG        25.4500    6.7100   -7.0880 C.2   112  ASN112      0.2627
     63  OD1       25.4130    6.9050   -5.8590 O.2   112  ASN112     -0.2716
     64  ND2       26.3680    7.2360   -7.8720 N.am  112  ASN112     -0.0877
     65  N         27.1520    4.1230   -6.4730 N.am  113  ASP113     -0.1974
     66  CA        27.9070    3.6320   -5.3460 C.3   113  ASP113      0.1709
     67  C         27.4490    4.1980   -4.0050 C.2   113  ASP113      0.2293
     68  O         27.5010    3.5040   -2.9660 O.2   113  ASP113     -0.2864
     69  CB        29.4590    3.8290   -5.5240 C.3   113  ASP113      0.1436
     70  CG        29.9040    5.2820   -5.7270 C.2   113  ASP113      0.3671
     71  OD1       29.0850    6.1470   -6.0890 O.co2 113  ASP113     -0.2456
     72  OD2       31.1640    5.5290   -5.6370 O.co2 113  ASP113     -0.2456
     73  N         29.4680    9.1290    1.6900 N.3   137  ILE137     -0.1245
     74  CA        30.6300    8.2720    1.6130 C.3   137  ILE137      0.1561
     75  C         31.7780    9.0540    0.9790 C.2   137  ILE137      0.2260
     76  O         31.6510    9.6320   -0.1550 O.2   137  ILE137     -0.2867
     77  CB        30.2790    6.8590    0.9950 C.3   137  ILE137      0.0252
     78  CG1       31.5590    6.0770    0.7230 C.3   137  ILE137      0.0019
     79  CG2       29.4470    6.9800   -0.2120 C.3   137  ILE137      0.0019
     80  CD1       31.4240    4.4870    0.7460 C.3   137  ILE137      0.0001
     81  N         35.4520    9.0290   -0.4810 N.3   139  GLY139     -0.1210
     82  CA        36.4920    8.2220   -1.0860 C.3   139  GLY139      0.1956
     83  C         37.2650    9.2030   -1.9360 C.2   139  GLY139      0.2613
     84  O         37.6030   10.3090   -1.4690 O.2   139  GLY139     -0.2717
     85  N         37.5010    8.8120   -3.1830 N.am  140  THR140     -0.1938
     86  CA        38.0480    9.7430   -4.1710 C.3   140  THR140      0.2028
     87  C         37.1790   11.0020   -4.3290 C.2   140  THR140      0.2643
     88  O         37.7100   12.1400   -4.3330 O.2   140  THR140     -0.2714
     89  CB        38.3350    9.0370   -5.4980 C.3   140  THR140      0.1808
     90  OG1       39.1160    7.8400   -5.2130 O.3   140  THR140     -0.2208
     91  CG2       39.1040    9.9880   -6.4730 C.3   140  THR140      0.0379
     92  N         35.8850   10.7720   -4.4940 N.am  141  GLY141     -0.1939
     93  CA        34.8770   11.8240   -4.5620 C.3   141  GLY141      0.2014
     94  C         34.0250   11.6230   -3.3150 C.2   141  GLY141      0.2639
     95  O         34.4060   10.8290   -2.4270 O.2   141  GLY141     -0.2714
     96  N         32.9040   12.3320   -3.2280 N.am  142  ILE142     -0.1963
     97  CA        31.9320   12.1030   -2.1600 C.3   142  ILE142      0.1727
     98  C         30.6220   11.5920   -2.7780 C.2   142  ILE142      0.2617
     99  O         30.0650   12.2100   -3.6850 O.2   142  ILE142     -0.2715
    100  CB        31.7110   13.3560   -1.3380 C.3   142  ILE142      0.0290
    101  CG1       32.9850   13.6760   -0.5550 C.3   142  ILE142      0.0022
    102  CG2       30.4630   13.2190   -0.4100 C.3   142  ILE142      0.0023
    103  CD1       32.9440   15.0780    0.1450 C.3   142  ILE142      0.0001
    104  N         30.1920   10.4140   -2.3230 N.am  143  GLY143     -0.1940
    105  CA        28.9050    9.8420   -2.6850 C.3   143  GLY143      0.2014
    106  C         27.8360   10.0430   -1.6160 C.2   143  GLY143      0.2639
    107  O         28.1420   10.3120   -0.4480 O.2   143  GLY143     -0.2714
    108  N         26.5970    9.8930   -2.0220 N.am  144  GLY144     -0.1954
    109  CA        25.4600    9.9560   -1.1270 C.3   144  GLY144      0.1869
    110  C         24.4080    8.9020   -1.4470 C.2   144  GLY144      0.2309
    111  O         24.3830    8.3470   -2.5470 O.2   144  GLY144     -0.2863
    112  N         23.0820   12.8820   -5.1810 N.3   162  GLU162     -0.1245
    113  CA        24.4320   13.2330   -5.6690 C.3   162  GLU162      0.1567
    114  C         25.0050   14.2900   -4.7080 C.2   162  GLU162      0.2260
    115  O         25.2580   15.4290   -5.0590 O.2   162  GLU162     -0.2867
    116  CB        24.3370   13.6960   -7.1180 C.3   162  GLU162      0.0388
    117  CG        24.4240   12.5600   -8.1170 C.3   162  GLU162      0.1160
    118  CD        25.7930   11.9330   -8.1290 C.2   162  GLU162      0.3649
    119  OE1       26.7420   12.5640   -7.6030 O.co2 162  GLU162     -0.2457
    120  OE2       25.9420   10.8420   -8.6840 O.co2 162  GLU162     -0.2457
    121  N         27.8570   16.9320   -4.6890 N.3   165  HIS165     -0.1241
    122  CA        27.7080   18.1460   -5.4940 C.3   165  HIS165      0.1621
    123  C         26.6460   19.1020   -4.8810 C.2   165  HIS165      0.2264
    124  O         26.0250   19.9550   -5.5600 O.2   165  HIS165     -0.2867
    125  CB        27.5420   17.7710   -6.9870 C.3   165  HIS165      0.0745
    126  CG        28.5560   16.7550   -7.4470 C.ar  165  HIS165      0.0817
    127  ND1       29.8800   17.0760   -7.6900 N.ar  165  HIS165     -0.2268
    128  CD2       28.4740   15.3940   -7.5400 C.ar  165  HIS165      0.1154
    129  CE1       30.5480   15.9590   -7.9740 C.ar  165  HIS165      0.1986
    130  NE2       29.7280   14.9180   -7.8580 N.ar  165  HIS165     -0.2212
    131  N         32.3820   17.9970   -2.4720 N.3   184  GLU184     -0.1245
    132  CA        33.4270   17.1340   -3.0260 C.3   184  GLU184      0.1567
    133  C         34.7310   17.8880   -3.3590 C.2   184  GLU184      0.2260
    134  O         35.8300   17.3430   -3.2060 O.2   184  GLU184     -0.2867
    135  CB        32.8950   16.4100   -4.2890 C.3   184  GLU184      0.0388
    136  CG        33.9140   15.4650   -4.9430 C.3   184  GLU184      0.1160
    137  CD        33.3050   14.5850   -6.0050 C.2   184  GLU184      0.3649
    138  OE1       32.4000   13.7850   -5.6750 O.co2 184  GLU184     -0.2457
    139  OE2       33.7170   14.7410   -7.1900 O.co2 184  GLU184     -0.2457
@<TRIPOS>BOND
     1    31    30    2
     2    52    51    2
     3    28    29    1
     4    51    50    1
     5    32    29    1
     6    32    33    1
     7    30    29    1
     8    30    34   am
     9    55    53    1
    10    37    36    2
    11    36    35    1
    12    50    53    1
    13    50    49    1
    14    20    19    2
    15    34    35    1
    16    35    38    1
    17    53    54    1
    18    49    43   am
    19    27    25    1
    20    21    18    1
    21    21    22    1
    22    19    18    1
    23    41    42    1
    24    43    44    2
    25    43    42    1
    26    38    40    1
    27    38    39    1
    28    24    25    2
    29    24    23    1
    30    17    18    1
    31    17    15   am
    32    54    56    1
    33    25    26    1
    34    22    23    1
    35    42    45    1
    36    14    15    1
    37    14    13    1
    38    12    11    2
    39    15    16    2
    40    13    11   am
    41    11    10    1
    42    45    46    1
    43    46    48    1
    44    46    47    1
    45     4     3    2
    46    10     9    1
    47     8     7    2
    48     6     7    1
    49     6     5    1
    50     3     5   am
    51     3     2    1
    52   120   118   ar
    53     1     2    1
    54    57    58    1
    55   118   117    1
    56   118   119   ar
    57   117   116    1
    58   129   130   ar
    59   129   127   ar
    60    58    61    1
    61    58    59    1
    62    64    62   am
    63   130   128   ar
    64    61    62    1
    65   127   126   ar
    66   128   126   ar
    67   126   125    1
    68   139   137   ar
    69   116   113    1
    70    62    63    2
    71   125   122    1
    72    59    65   am
    73    59    60    2
    74    65    66    1
    75    91    89    1
    76    71    70   ar
    77   137   138   ar
    78   137   136    1
    79    70    72   ar
    80    70    69    1
    81   113   112    1
    82   113   114    1
    83   124   123    2
    84    69    66    1
    85    89    90    1
    86    89    86    1
    87   122   123    1
    88   122   121    1
    89    66    67    1
    90   115   114    2
    91   136   135    1
    92    93    92    1
    93    93    94    1
    94    92    87   am
    95    88    87    2
    96    87    86    1
    97   135   132    1
    98    86    85    1
    99    67    68    2
   100    99    98    2
   101   133   134    2
   102   133   132    1
   103    94    96   am
   104    94    95    2
   105    96    97    1
   106    85    83   am
   107   132   131    1
   108    98   104   am
   109    98    97    1
   110   105   104    1
   111   105   106    1
   112   111   110    2
   113    97   100    1
   114   108   106   am
   115   108   109    1
   116    83    84    2
   117    83    82    1
   118   106   107    2
   119   110   109    1
   120   100   101    1
   121   100   102    1
   122    82    81    1
   123   101   103    1
   124    79    77    1
   125    76    75    2
   126    78    80    1
   127    78    77    1
   128    75    74    1
   129    77    74    1
   130    74    73    1
