@<TRIPOS>MOLECULE
tmp/2yi5A00.pdb
 119 109 0 0 0
SMALL
GASTEIGER

@<TRIPOS>ATOM
      1  N          2.6550   34.7030   -5.0320 N.3    33  LEU33      -0.1245
      2  CA         3.0040   33.8290   -3.9290 C.3    33  LEU33       0.1561
      3  C          4.3270   34.2630   -3.3080 C.2    33  LEU33       0.2260
      4  O          4.4850   34.2410   -2.0920 O.2    33  LEU33      -0.2867
      5  CB         3.1120   32.3860   -4.3800 C.3    33  LEU33       0.0270
      6  CG         1.8930   31.7300   -4.9920 C.3    33  LEU33       0.0019
      7  CD1        2.2880   30.3280   -5.4800 C.3    33  LEU33       0.0001
      8  CD2        0.6710   31.7010   -4.0230 C.3    33  LEU33       0.0001
      9  N          3.4650   37.1390   -1.1940 N.3    36  ASN36      -0.1225
     10  CA         2.9010   36.7340    0.0800 C.3    36  ASN36       0.1785
     11  C          3.9470   36.2250    1.0520 C.2    36  ASN36       0.2597
     12  O          3.8890   36.5300    2.2310 O.2    36  ASN36      -0.2718
     13  CB         1.8420   35.6590   -0.1210 C.3    36  ASN36       0.1169
     14  CG         0.5620   36.2230   -0.6400 C.2    36  ASN36       0.2627
     15  OD1        0.4240   37.4440   -0.7660 O.2    36  ASN36      -0.2716
     16  ND2       -0.3950   35.3480   -0.9470 N.am   36  ASN36      -0.0877
     17  N          4.8830   35.4300    0.5480 N.am   37  SER37      -0.1952
     18  CA         6.0120   34.9630    1.3460 C.3    37  SER37       0.1924
     19  C          6.8280   36.1480    1.8660 C.2    37  SER37       0.2314
     20  O          7.2380   36.1510    3.0160 O.2    37  SER37      -0.2863
     21  CB         6.8990   34.0070    0.5490 C.3    37  SER37       0.2116
     22  OG         6.3010   32.7300    0.4240 O.3    37  SER37      -0.2180
     23  N          5.7550   39.2000    2.4780 N.3    39  ASP39      -0.1225
     24  CA         5.0200   39.8400    3.5500 C.3    39  ASP39       0.1805
     25  C          5.1140   39.0600    4.8620 C.2    39  ASP39       0.2597
     26  O          5.2030   39.6660    5.9330 O.2    39  ASP39      -0.2718
     27  CB         3.5630   40.0520    3.1450 C.3    39  ASP39       0.1424
     28  CG         3.4230   41.0500    2.0160 C.2    39  ASP39       0.3668
     29  OD1        4.1350   42.0790    2.0410 O.co2  39  ASP39      -0.2456
     30  OD2        2.6180   40.7970    1.0900 O.co2  39  ASP39      -0.2456
     31  N          5.0950   37.7290    4.7750 N.am   40  ALA40      -0.1979
     32  CA         5.1540   36.8910    5.9670 C.3    40  ALA40       0.1597
     33  C          6.5340   37.0140    6.6290 C.2    40  ALA40       0.2287
     34  O          6.6560   36.9890    7.8410 O.2    40  ALA40      -0.2864
     35  CB         4.8380   35.4270    5.6240 C.3    40  ALA40       0.0319
     36  N          6.8830   26.4350   -3.2630 N.3    76  ILE76      -0.1245
     37  CA         7.4220   27.6870   -2.7610 C.3    76  ILE76       0.1561
     38  C          7.4320   27.6240   -1.2450 C.2    76  ILE76       0.2260
     39  O          6.3660   27.5390   -0.6100 O.2    76  ILE76      -0.2867
     40  CB         6.5630   28.8970   -3.1820 C.3    76  ILE76       0.0252
     41  CG1        6.4110   28.9370   -4.7010 C.3    76  ILE76       0.0019
     42  CG2        7.1460   30.2120   -2.6650 C.3    76  ILE76       0.0019
     43  CD1        5.1400   28.2930   -5.1930 C.3    76  ILE76       0.0001
     44  N          8.7300   29.3280    2.3940 N.3    78  ASP78      -0.1239
     45  CA         9.3240   30.4790    3.0360 C.3    78  ASP78       0.1674
     46  C          9.4270   30.2000    4.5180 C.2    78  ASP78       0.2266
     47  O          8.8640   29.2270    5.0070 O.2    78  ASP78      -0.2867
     48  CB         8.5350   31.7570    2.7550 C.3    78  ASP78       0.1410
     49  CG         7.2010   31.7800    3.4670 C.2    78  ASP78       0.3668
     50  OD1        7.1760   31.8090    4.7260 O.co2  78  ASP78      -0.2456
     51  OD2        6.1720   31.7720    2.7720 O.co2  78  ASP78      -0.2456
     52  N          6.5690   34.3670    9.1330 N.3    81  ILE81      -0.1231
     53  CA         5.8040   34.1330   10.3540 C.3    81  ILE81       0.1692
     54  C          4.9300   32.8850   10.3880 C.2    81  ILE81       0.2593
     55  O          4.7470   32.3120   11.4510 O.2    81  ILE81      -0.2718
     56  CB         4.9370   35.3480   10.7190 C.3    81  ILE81       0.0266
     57  CG1        4.3370   35.1630   12.1060 C.3    81  ILE81       0.0019
     58  CG2        3.8490   35.5650    9.6830 C.3    81  ILE81       0.0020
     59  CD1        4.0600   36.4640   12.8110 C.3    81  ILE81       0.0001
     60  N          4.3600   32.4760    9.2560 N.am   82  GLY82      -0.1942
     61  CA         3.4950   31.3060    9.2550 C.3    82  GLY82       0.2014
     62  C          2.0860   31.5890    9.7740 C.2    82  GLY82       0.2638
     63  O          1.7690   32.7260   10.1270 O.2    82  GLY82      -0.2714
     64  N          1.2500   30.5530    9.8160 N.am   83  MET83      -0.1976
     65  CA        -0.1700   30.6850   10.1380 C.3    83  MET83       0.1605
     66  C         -0.6270   29.6430   11.1690 C.2    83  MET83       0.2287
     67  O         -0.3300   28.4480   11.0360 O.2    83  MET83      -0.2864
     68  CB        -1.0440   30.5220    8.8780 C.3    83  MET83       0.0413
     69  CG        -1.0340   31.6820    7.8640 C.3    83  MET83       0.0598
     70  SD        -2.0730   31.3630    6.3750 S.3    83  MET83      -0.1393
     71  CE        -1.0280   30.2300    5.4530 C.3    83  MET83       0.0692
     72  N         -7.7280   33.1620    6.3650 N.3    91  ASN91      -0.1225
     73  CA        -7.0070   33.7460    5.2470 C.3    91  ASN91       0.1785
     74  C         -7.3510   33.0990    3.9240 C.2    91  ASN91       0.2597
     75  O         -7.5120   33.7780    2.9290 O.2    91  ASN91      -0.2718
     76  CB        -5.4960   33.6050    5.4610 C.3    91  ASN91       0.1169
     77  CG        -4.9890   34.4560    6.5940 C.2    91  ASN91       0.2627
     78  OD1       -5.7170   35.2860    7.1440 O.2    91  ASN91      -0.2716
     79  ND2       -3.7320   34.2500    6.9580 N.am   91  ASN91      -0.0877
     80  N         -7.4170   31.7740    3.9190 N.am   92  LEU92      -0.1980
     81  CA        -7.6700   31.0280    2.7040 C.3    92  LEU92       0.1596
     82  C         -9.1360   30.6740    2.5150 C.2    92  LEU92       0.2287
     83  O         -9.5180   30.2400    1.4470 O.2    92  LEU92      -0.2864
     84  CB        -6.8100   29.7630    2.6340 C.3    92  LEU92       0.0297
     85  CG        -5.2830   29.9300    2.5580 C.3    92  LEU92       0.0022
     86  CD1       -4.6100   28.5830    2.2700 C.3    92  LEU92       0.0001
     87  CD2       -4.8440   30.9580    1.5250 C.3    92  LEU92       0.0001
     88  N         -3.2500   35.0910   -4.0310 N.3   120  PHE120     -0.1241
     89  CA        -3.0120   33.6900   -3.7960 C.3   120  PHE120      0.1605
     90  C         -3.7820   32.8150   -4.7860 C.2   120  PHE120      0.2264
     91  O         -3.2720   31.8090   -5.2750 O.2   120  PHE120     -0.2867
     92  CB        -3.3860   33.2880   -2.3540 C.3   120  PHE120      0.0534
     93  CG        -3.5070   31.7850   -2.1580 C.ar  120  PHE120     -0.0203
     94  CD1       -2.3760   30.9900   -1.9920 C.ar  120  PHE120     -0.0042
     95  CD2       -4.7440   31.1640   -2.1740 C.ar  120  PHE120     -0.0042
     96  CE1       -2.4810   29.6070   -1.8390 C.ar  120  PHE120     -0.0003
     97  CE2       -4.8460   29.7720   -2.0010 C.ar  120  PHE120     -0.0003
     98  CZ        -3.7230   29.0010   -1.8380 C.ar  120  PHE120     -0.0000
     99  N         -1.3090   23.8020    1.2270 N.3   132  VAL132     -0.1245
    100  CA        -0.5940   24.8050    1.9990 C.3   132  VAL132      0.1561
    101  C         -0.1880   24.2200    3.3420 C.2   132  VAL132      0.2260
    102  O         -1.0280   23.7740    4.1170 O.2   132  VAL132     -0.2867
    103  CB        -1.4190   26.0860    2.1760 C.3   132  VAL132      0.0252
    104  CG1       -0.7340   27.0550    3.1150 C.3   132  VAL132      0.0019
    105  CG2       -1.6390   26.7380    0.8350 C.3   132  VAL132      0.0019
    106  N          5.7990   29.0250    5.8250 N.3   166  THR166     -0.1218
    107  CA         4.7430   28.4880    4.9910 C.3   166  THR166      0.1862
    108  C          5.3200   27.8420    3.7440 C.2   166  THR166      0.2287
    109  O          6.3540   28.2680    3.2420 O.2   166  THR166     -0.2866
    110  CB         3.6830   29.5740    4.6910 C.3   166  THR166      0.1770
    111  OG1        3.0030   29.8800    5.9170 O.3   166  THR166     -0.2211
    112  CG2        2.6730   29.0990    3.6640 C.3   166  THR166      0.0375
    113  N          3.9150   26.3340    0.0380 N.3   168  VAL168     -0.1245
    114  CA         2.7950   26.2530   -0.9040 C.3   168  VAL168      0.1561
    115  C          3.1210   25.2430   -1.9970 C.2   168  VAL168      0.2260
    116  O          3.9990   25.4850   -2.8160 O.2   168  VAL168     -0.2867
    117  CB         2.4920   27.6250   -1.5790 C.3   168  VAL168      0.0252
    118  CG1        1.3260   27.5120   -2.5830 C.3   168  VAL168      0.0019
    119  CG2        2.2000   28.7080   -0.5460 C.3   168  VAL168      0.0019
@<TRIPOS>BOND
     1     7     6    1
     2    91    90    2
     3    43    41    1
     4     1     2    1
     5     6     5    1
     6     6     8    1
     7    90    89    1
     8    41    40    1
     9     5     2    1
    10    88    89    1
    11     2     3    1
    12    89    92    1
    13     3     4    2
    14    36    37    1
    15    40    37    1
    16    40    42    1
    17   116   115    2
    18    37    38    1
    19   118   117    1
    20    92    93    1
    21    95    93   ar
    22    95    97   ar
    23    93    94   ar
    24    97    98   ar
    25   115   114    1
    26    94    96   ar
    27    96    98   ar
    28   117   114    1
    29   117   119    1
    30    38    39    2
    31     9    10    1
    32    16    14   am
    33   114   113    1
    34    15    14    2
    35    14    13    1
    36    13    10    1
    37    10    11    1
    38    22    21    1
    39    17    11   am
    40    17    18    1
    41    21    18    1
    42   105   103    1
    43    11    12    2
    44    30    28   ar
    45    99   100    1
    46    18    19    1
    47    83    82    2
    48    87    85    1
    49    19    20    2
    50   100   103    1
    51   100   101    1
    52    28    29   ar
    53    28    27    1
    54   103   104    1
    55    86    85    1
    56    44    45    1
    57    23    24    1
    58    82    81    1
    59    85    84    1
    60    84    81    1
    61    81    80    1
    62    48    45    1
    63    48    49    1
    64    51    49   ar
    65    75    74    2
    66    45    46    1
    67    27    24    1
    68   109   108    2
    69   101   102    2
    70    49    50   ar
    71    24    25    1
    72   112   110    1
    73   108   107    1
    74    80    74   am
    75    74    73    1
    76    46    47    2
    77   110   107    1
    78   110   111    1
    79    31    25   am
    80    31    32    1
    81    25    26    2
    82   107   106    1
    83    73    76    1
    84    73    72    1
    85    71    70    1
    86    76    77    1
    87    35    32    1
    88    32    33    1
    89    70    69    1
    90    77    79   am
    91    77    78    2
    92    33    34    2
    93    69    68    1
    94    68    65    1
    95    52    53    1
    96    61    60    1
    97    61    62    1
    98    60    54   am
    99    58    56    1
   100    62    64   am
   101    62    63    2
   102    64    65    1
   103    65    66    1
   104    53    54    1
   105    53    56    1
   106    54    55    2
   107    56    57    1
   108    67    66    2
   109    57    59    1
