@<TRIPOS>MOLECULE
tmp/2yi6A00.pdb
 151 137 0 0 0
SMALL
GASTEIGER

@<TRIPOS>ATOM
      1  N         30.9510   11.3530   15.7960 N.3    33  LEU33      -0.1245
      2  CA        30.3600   11.8110   17.0830 C.3    33  LEU33       0.1561
      3  C         29.0280   11.0940   17.3840 C.2    33  LEU33       0.2260
      4  O         28.7520   10.7540   18.5490 O.2    33  LEU33      -0.2867
      5  CB        30.1460   13.3310   17.1160 C.3    33  LEU33       0.0270
      6  CG        31.4640   14.1000   17.0170 C.3    33  LEU33       0.0019
      7  CD1       31.1480   15.6300   16.8890 C.3    33  LEU33       0.0001
      8  CD2       32.2780   13.8520   18.2940 C.3    33  LEU33       0.0001
      9  N         29.9560    7.7660   18.7790 N.3    36  ASN36      -0.1225
     10  CA        30.3480    7.7960   20.1590 C.3    36  ASN36       0.1785
     11  C         29.0950    7.9590   21.0770 C.2    36  ASN36       0.2597
     12  O         29.0350    7.3640   22.1570 O.2    36  ASN36      -0.2718
     13  CB        31.2860    9.0000   20.4100 C.3    36  ASN36       0.1169
     14  CG        32.6840    8.7330   19.9130 C.2    36  ASN36       0.2627
     15  OD1       32.9480    7.7060   19.3190 O.2    36  ASN36      -0.2716
     16  ND2       33.5640    9.6910   20.1150 N.am   36  ASN36      -0.0877
     17  N         28.1370    8.7400   20.6140 N.am   37  SER37      -0.1952
     18  CA        26.8990    8.9250   21.3960 C.3    37  SER37       0.1924
     19  C         26.2000    7.5460   21.5060 C.2    37  SER37       0.2314
     20  O         25.6920    7.2120   22.6100 O.2    37  SER37      -0.2863
     21  CB        25.9320    9.9320   20.7400 C.3    37  SER37       0.2116
     22  OG        26.4380   11.2820   20.8800 O.3    37  SER37      -0.2180
     23  N         27.5640    4.5610   21.4010 N.3    39  ASP39      -0.1225
     24  CA        28.2700    3.7640   22.3610 C.3    39  ASP39       0.1805
     25  C         27.9160    4.1590   23.7950 C.2    39  ASP39       0.2597
     26  O         27.7890    3.2920   24.6550 O.2    39  ASP39      -0.2718
     27  CB        29.7870    3.9080   22.1770 C.3    39  ASP39       0.1424
     28  CG        30.2830    3.2060   20.8880 C.2    39  ASP39       0.3668
     29  OD1       29.5090    2.4510   20.2580 O.co2  39  ASP39      -0.2456
     30  OD2       31.4410    3.4300   20.4660 O.co2  39  ASP39      -0.2456
     31  N         27.8330    5.4590   24.0500 N.am   40  ALA40      -0.1979
     32  CA        27.5310    5.9230   25.4100 C.3    40  ALA40       0.1597
     33  C         26.1000    5.5210   25.8190 C.2    40  ALA40       0.2287
     34  O         25.8470    5.2200   27.0000 O.2    40  ALA40      -0.2864
     35  CB        27.6950    7.4210   25.4740 C.3    40  ALA40       0.0319
     36  N         26.0350    1.9390   26.7520 N.3    43  LYS43      -0.1245
     37  CA        26.6080    1.6630   28.0660 C.3    43  LYS43       0.1561
     38  C         25.6270    1.9110   29.2190 C.2    43  LYS43       0.2260
     39  O         25.5170    1.0900   30.1680 O.2    43  LYS43      -0.2867
     40  CB        27.8410    2.5580   28.3050 C.3    43  LYS43       0.0271
     41  CG        29.0770    2.2310   27.4510 C.3    43  LYS43       0.0035
     42  CD        30.2720    3.1770   27.7580 C.3    43  LYS43       0.0206
     43  CE        31.4270    2.8810   26.7640 C.3    43  LYS43       0.1093
     44  NZ        32.4360    3.9880   26.7240 N.3    43  LYS43      -0.1314
     45  N         25.8130   18.3070   19.5080 N.3    76  ILE76      -0.1245
     46  CA        25.3200   16.9260   19.4620 C.3    76  ILE76       0.1561
     47  C         25.1020   16.5620   20.9280 C.2    76  ILE76       0.2260
     48  O         26.0800   16.5840   21.6990 O.2    76  ILE76      -0.2867
     49  CB        26.3460   15.9870   18.8220 C.3    76  ILE76       0.0252
     50  CG1       26.5300   16.3820   17.3290 C.3    76  ILE76       0.0019
     51  CG2       25.8190   14.5190   18.9490 C.3    76  ILE76       0.0019
     52  CD1       27.5350   17.4590   17.0680 C.3    76  ILE76       0.0001
     53  N         23.5230   13.7920   23.7130 N.3    78  ASP78      -0.1239
     54  CA        22.9500   12.4690   23.9520 C.3    78  ASP78       0.1674
     55  C         22.6720   12.2810   25.4390 C.2    78  ASP78       0.2266
     56  O         23.1900   13.0350   26.2950 O.2    78  ASP78      -0.2867
     57  CB        23.8870   11.3520   23.4090 C.3    78  ASP78       0.1410
     58  CG        25.2320   11.2470   24.1760 C.2    78  ASP78       0.3668
     59  OD1       25.2180   10.9020   25.3820 O.co2  78  ASP78      -0.2456
     60  OD2       26.3240   11.5470   23.5900 O.co2  78  ASP78      -0.2456
     61  N         25.6700    7.4240   29.0510 N.3    81  ILE81      -0.1231
     62  CA        26.2910    7.2380   30.3830 C.3    81  ILE81       0.1692
     63  C         27.0090    8.4700   30.9370 C.2    81  ILE81       0.2593
     64  O         27.0910    8.6320   32.1780 O.2    81  ILE81      -0.2718
     65  CB        27.1730    5.9570   30.3890 C.3    81  ILE81       0.0266
     66  CG1       27.3770    5.5370   31.8970 C.3    81  ILE81       0.0019
     67  CG2       28.4760    6.1910   29.5860 C.3    81  ILE81       0.0020
     68  CD1       27.8750    4.1350   32.0210 C.3    81  ILE81       0.0001
     69  N         27.5220    9.3430   30.0630 N.am   82  GLY82      -0.1942
     70  CA        28.1900   10.5610   30.5080 C.3    82  GLY82       0.2014
     71  C         29.6010   10.1630   30.9530 C.2    82  GLY82       0.2638
     72  O         29.9850    8.9570   30.9400 O.2    82  GLY82      -0.2714
     73  N         30.3630   11.1930   31.3570 N.am   83  MET83      -0.1976
     74  CA        31.7490   10.9030   31.6990 C.3    83  MET83       0.1605
     75  C         32.0520   11.5400   33.0470 C.2    83  MET83       0.2287
     76  O         31.5030   12.6060   33.3790 O.2    83  MET83      -0.2864
     77  CB        32.6560   11.5970   30.6660 C.3    83  MET83       0.0413
     78  CG        32.7260   10.7790   29.3410 C.3    83  MET83       0.0598
     79  SD        33.8460   11.6410   28.1360 S.3    83  MET83      -0.1393
     80  CE        32.7450   12.9630   27.6080 C.3    83  MET83       0.0692
     81  N         37.4670   10.6990   33.5320 N.3    87  ASP87      -0.1239
     82  CA        37.2760   10.2770   32.1060 C.3    87  ASP87       0.1674
     83  C         37.6030   11.4870   31.2250 C.2    87  ASP87       0.2266
     84  O         38.3270   11.3540   30.2200 O.2    87  ASP87      -0.2867
     85  CB        35.7930    9.9630   31.8160 C.3    87  ASP87       0.1410
     86  CG        35.3150    8.6120   32.3760 C.2    87  ASP87       0.3668
     87  OD1       36.1020    7.6290   32.4510 O.co2  87  ASP87      -0.2456
     88  OD2       34.0580    8.5160   32.6570 O.co2  87  ASP87      -0.2456
     89  N         38.8420   12.1010   27.2490 N.3    92  LEU92      -0.1231
     90  CA        37.4220   11.8600   26.9660 C.3    92  LEU92       0.1693
     91  C         37.0730   10.3730   26.9640 C.2    92  LEU92       0.2593
     92  O         36.2580    9.9150   26.1230 O.2    92  LEU92      -0.2718
     93  CB        36.9840   12.5360   25.6350 C.3    92  LEU92       0.0284
     94  CG        37.3620   14.0260   25.8450 C.3    92  LEU92       0.0019
     95  CD1       38.5500   14.5000   25.0470 C.3    92  LEU92       0.0001
     96  CD2       36.2510   14.9570   25.9470 C.3    92  LEU92       0.0001
     97  N         37.6300    9.6430   27.9220 N.am   93  GLY93      -0.1942
     98  CA        37.3540    8.2330   28.1200 C.3    93  GLY93       0.2014
     99  C         37.7880    7.3170   26.9710 C.2    93  GLY93       0.2639
    100  O         37.2040    6.1940   26.7770 O.2    93  GLY93      -0.2714
    101  N         38.8000    7.7460   26.2250 N.am   94  THR94      -0.1950
    102  CA        39.3190    6.9650   25.1270 C.3    94  THR94       0.1897
    103  C         40.7080    6.4520   25.4720 C.2    94  THR94       0.2313
    104  O         41.3810    6.9730   26.4070 O.2    94  THR94      -0.2863
    105  CB        39.4720    7.8160   23.8370 C.3    94  THR94       0.1794
    106  OG1       40.5390    8.7660   23.9930 O.3    94  THR94      -0.2208
    107  CG2       38.2260    8.4980   23.5230 C.3    94  THR94       0.0378
    108  N         37.8080    6.3930   13.3920 N.3   117  GLY117     -0.1225
    109  CA        36.9650    5.7560   14.3830 C.3   117  GLY117      0.1811
    110  C         37.3610    4.3000   14.6730 C.2   117  GLY117      0.2280
    111  O         37.0210    3.8080   15.7160 O.2   117  GLY117     -0.2866
    112  N         39.5310    4.2350   17.9790 N.3   120  GLY120     -0.1225
    113  CA        39.0730    4.6880   19.3000 C.3   120  GLY120      0.1811
    114  C         39.2000    6.1840   19.5100 C.2   120  GLY120      0.2280
    115  O         38.9080    6.6220   20.6160 O.2   120  GLY120     -0.2866
    116  N         37.9170    8.7410   17.2900 N.3   122  GLY122     -0.1210
    117  CA        37.0230    9.4920   16.3580 C.3   122  GLY122      0.1956
    118  C         36.5480   10.8510   16.9100 C.2   122  GLY122      0.2611
    119  O         36.2540   11.7310   16.1070 O.2   122  GLY122     -0.2717
    120  N         36.5040   11.0230   18.2160 N.am  123  PHE123     -0.1976
    121  CA        36.0630   12.3240   18.7820 C.3   123  PHE123      0.1639
    122  C         36.8950   13.4520   18.1490 C.2   123  PHE123      0.2290
    123  O         36.3670   14.5460   17.8680 O.2   123  PHE123     -0.2864
    124  CB        36.3310   12.3690   20.2790 C.3   123  PHE123      0.0560
    125  CG        36.3150   13.7730   20.8350 C.ar  123  PHE123     -0.0200
    126  CD1       35.1230   14.4240   20.9450 C.ar  123  PHE123     -0.0042
    127  CD2       37.5000   14.4330   21.1730 C.ar  123  PHE123     -0.0042
    128  CE1       35.0430   15.7750   21.4420 C.ar  123  PHE123     -0.0003
    129  CE2       37.4710   15.7680   21.6910 C.ar  123  PHE123     -0.0003
    130  CZ        36.2550   16.4490   21.8120 C.ar  123  PHE123     -0.0000
    131  N         32.7930   20.2800   25.6020 N.3   135  VAL135     -0.1245
    132  CA        32.0980   19.0290   25.9300 C.3   135  VAL135      0.1561
    133  C         31.5290   19.1800   27.3200 C.2   135  VAL135      0.2260
    134  O         32.3250   19.3830   28.2680 O.2   135  VAL135     -0.2867
    135  CB        33.0600   17.8790   25.8670 C.3   135  VAL135      0.0252
    136  CG1       32.3560   16.5450   26.2920 C.3   135  VAL135      0.0019
    137  CG2       33.5160   17.6870   24.4220 C.3   135  VAL135      0.0019
    138  N         26.0260   13.5510   27.4980 N.3   169  THR169     -0.1218
    139  CA        27.1480   14.3900   27.0180 C.3   169  THR169      0.1862
    140  C         26.6110   15.2700   25.9290 C.2   169  THR169      0.2287
    141  O         25.7820   14.8190   25.0890 O.2   169  THR169     -0.2866
    142  CB        28.2340   13.4510   26.5060 C.3   169  THR169      0.1770
    143  OG1       28.7300   12.7180   27.6190 O.3   169  THR169     -0.2211
    144  CG2       29.4380   14.1920   25.8970 C.3   169  THR169      0.0375
    145  N         28.1930   17.8590   22.9500 N.3   171  VAL171     -0.1245
    146  CA        29.4300   18.2910   22.2890 C.3   171  VAL171      0.1561
    147  C         29.0450   19.5000   21.4490 C.2   171  VAL171      0.2260
    148  O         28.2020   19.4290   20.5500 O.2   171  VAL171     -0.2867
    149  CB        29.9570   17.1610   21.3390 C.3   171  VAL171      0.0252
    150  CG1       31.2310   17.6710   20.5470 C.3   171  VAL171      0.0019
    151  CG2       30.3350   15.9210   22.1800 C.3   171  VAL171      0.0019
@<TRIPOS>BOND
     1   108   109    1
     2   109   110    1
     3   110   111    2
     4     1     2    1
     5   119   118    2
     6   117   118    1
     7   117   116    1
     8     7     6    1
     9   118   120   am
    10     6     5    1
    11     6     8    1
    12    52    50    1
    13     2     5    1
    14     2     3    1
    15    50    49    1
    16     3     4    2
    17   123   122    2
    18   112   113    1
    19   122   121    1
    20   120   121    1
    21     9    10    1
    22   121   124    1
    23    49    51    1
    24    49    46    1
    25   113   114    1
    26    15    14    2
    27    46    45    1
    28    46    47    1
    29   114   115    2
    30    14    16   am
    31    14    13    1
    32    10    13    1
    33    10    11    1
    34    29    28   ar
    35   124   125    1
    36    30    28   ar
    37   150   149    1
    38   148   147    2
    39    17    11   am
    40    17    18    1
    41    21    22    1
    42    21    18    1
    43   125   126   ar
    44   125   127   ar
    45    28    27    1
    46    47    48    2
    47   126   128   ar
    48    11    12    2
    49   127   129   ar
    50   149   151    1
    51   149   146    1
    52    18    19    1
    53    23    24    1
    54   128   130   ar
    55   147   146    1
    56    19    20    2
    57   129   130   ar
    58    27    24    1
    59   146   145    1
    60    24    25    1
    61    57    54    1
    62    57    58    1
    63   107   105    1
    64    60    58   ar
    65    53    54    1
    66    25    31   am
    67    25    26    2
    68   105   106    1
    69   105   102    1
    70    54    55    1
    71    31    32    1
    72    58    59   ar
    73   137   135    1
    74    95    94    1
    75   141   140    2
    76   102   103    1
    77   102   101    1
    78    32    35    1
    79    32    33    1
    80    55    56    2
    81   103   104    2
    82   131   132    1
    83    93    94    1
    84    93    90    1
    85    33    34    2
    86    94    96    1
    87   135   132    1
    88   135   136    1
    89   144   142    1
    90   140   139    1
    91   132   133    1
    92    92    91    2
    93   101    99   am
    94   142   139    1
    95   142   143    1
    96    44    43    1
    97    36    37    1
    98    43    42    1
    99   100    99    2
   100    91    90    1
   101    91    97   am
   102    90    89    1
   103    99    98    1
   104   139   138    1
   105   133   134    2
   106    41    42    1
   107    41    40    1
   108    80    79    1
   109    97    98    1
   110    37    40    1
   111    37    38    1
   112    79    78    1
   113    61    62    1
   114    38    39    2
   115    78    77    1
   116    67    65    1
   117    69    70    1
   118    69    63   am
   119    84    83    2
   120    62    65    1
   121    62    63    1
   122    65    66    1
   123    70    71    1
   124    77    74    1
   125    63    64    2
   126    72    71    2
   127    71    73   am
   128    83    82    1
   129    73    74    1
   130    74    75    1
   131    85    82    1
   132    85    86    1
   133    66    68    1
   134    82    81    1
   135    86    87   ar
   136    86    88   ar
   137    75    76    2
