@<TRIPOS>MOLECULE
tmp/2yigA00.pdb
 180 178 0 0 0
SMALL
GASTEIGER

@<TRIPOS>ATOM
      1  N         22.1510   18.3630   25.6140 N.3    80  GLY80      -0.1210
      2  CA        23.6270   18.2100   25.6350 C.3    80  GLY80       0.1956
      3  C         24.0430   16.9690   24.8410 C.2    80  GLY80       0.2612
      4  O         23.5990   16.7320   23.6930 O.2    80  GLY80      -0.2717
      5  N         24.9070   16.1690   25.4330 N.am   81  LEU81      -0.1965
      6  CA        25.3480   14.9530   24.8230 C.3    81  LEU81       0.1728
      7  C         24.1570   14.0090   24.7880 C.2    81  LEU81       0.2616
      8  O         23.5610   13.7410   25.8590 O.2    81  LEU81      -0.2715
      9  CB        26.5130   14.3480   25.6140 C.3    81  LEU81       0.0311
     10  CG        27.0910   13.0400   25.0450 C.3    81  LEU81       0.0022
     11  CD1       27.7770   13.2170   23.6750 C.3    81  LEU81       0.0001
     12  CD2       28.0590   12.3640   26.0500 C.3    81  LEU81       0.0001
     13  N         23.8320   13.4730   23.5900 N.am   82  LEU82      -0.1963
     14  CA        22.6390   12.6360   23.4470 C.3    82  LEU82       0.1728
     15  C         22.9870   11.1640   23.4890 C.2    82  LEU82       0.2616
     16  O         22.1800   10.3480   23.8590 O.2    82  LEU82      -0.2715
     17  CB        21.9850   12.9290   22.0610 C.3    82  LEU82       0.0311
     18  CG        21.6590   14.3380   21.6240 C.3    82  LEU82       0.0022
     19  CD1       20.9660   14.3100   20.2860 C.3    82  LEU82       0.0001
     20  CD2       20.7630   15.0000   22.6900 C.3    82  LEU82       0.0001
     21  N         24.2360   10.8490   23.0650 N.am   83  ALA83      -0.1977
     22  CA        24.6890    9.4600   22.9050 C.3    83  ALA83       0.1597
     23  C         26.1590    9.5490   22.5070 C.2    83  ALA83       0.2287
     24  O         26.6260   10.6190   22.0820 O.2    83  ALA83      -0.2864
     25  CB        23.9000    8.7330   21.7930 C.3    83  ALA83       0.0319
     26  N         17.8060    8.0030   13.5740 N.3   115  LEU115     -0.1231
     27  CA        18.7640    9.0040   13.1530 C.3   115  LEU115      0.1693
     28  C         19.9980    9.1090   14.0560 C.2   115  LEU115      0.2591
     29  O         21.0550    9.0810   13.5760 O.2   115  LEU115     -0.2718
     30  CB        18.1320   10.3580   13.0460 C.3   115  LEU115      0.0284
     31  CG        17.1640   10.5840   11.8990 C.3   115  LEU115      0.0019
     32  CD1       16.4310   11.8970   11.9060 C.3   115  LEU115      0.0001
     33  CD2       17.7110   10.2680   10.5550 C.3   115  LEU115      0.0001
     34  N         19.7990    9.2620   15.3600 N.am  116  VAL116     -0.1980
     35  CA        20.8950    9.3100   16.2880 C.3   116  VAL116      0.1595
     36  C         21.6850    8.0060   16.2630 C.2   116  VAL116      0.2287
     37  O         22.8500    8.0400   16.2670 O.2   116  VAL116     -0.2864
     38  CB        20.4530    9.6180   17.7220 C.3   116  VAL116      0.0276
     39  CG1       21.6320    9.5080   18.6740 C.3   116  VAL116      0.0022
     40  CG2       19.7960   10.9900   17.8090 C.3   116  VAL116      0.0022
     41  N         23.9000    7.8710   13.1720 N.3   119  HIS119     -0.1226
     42  CA        25.1070    8.6750   13.5040 C.3   119  HIS119      0.1752
     43  C         26.0430    7.9310   14.4040 C.2   119  HIS119      0.2595
     44  O         27.2460    7.8370   14.1460 O.2   119  HIS119     -0.2718
     45  CB        24.6280    9.9610   14.2220 C.3   119  HIS119      0.0759
     46  CG        25.7500   10.8690   14.6850 C.ar  119  HIS119      0.0818
     47  ND1       26.1170   11.9920   13.9770 N.ar  119  HIS119     -0.2268
     48  CD2       26.5670   10.8110   15.7780 C.ar  119  HIS119      0.1154
     49  CE1       27.1340   12.5770   14.5640 C.ar  119  HIS119      0.1986
     50  NE2       27.4070   11.8990   15.7190 N.ar  119  HIS119     -0.2212
     51  N         25.5460    7.4210   15.5340 N.am  120  GLU120     -0.1979
     52  CA        26.4300    6.7520   16.4740 C.3   120  GLU120      0.1602
     53  C         27.1430    5.5700   15.8680 C.2   120  GLU120      0.2287
     54  O         28.3270    5.3680   16.1290 O.2   120  GLU120     -0.2864
     55  CB        25.6800    6.3180   17.7270 C.3   120  GLU120      0.0415
     56  CG        25.2460    7.4970   18.5930 C.3   120  GLU120      0.1163
     57  CD        26.3290    8.4990   18.9360 C.2   120  GLU120      0.3649
     58  OE1       27.4920    8.1380   19.2180 O.co2 120  GLU120     -0.2457
     59  OE2       25.9450    9.7340   18.9730 O.co2 120  GLU120     -0.2457
     60  N         33.3910   13.0060   13.7770 N.3   129  HIS129     -0.1241
     61  CA        32.4680   14.0720   13.3000 C.3   129  HIS129      0.1621
     62  C         32.9970   14.7380   12.0370 C.2   129  HIS129      0.2264
     63  O         34.2100   14.8260   11.8230 O.2   129  HIS129     -0.2867
     64  CB        32.2910   15.1310   14.3910 C.3   129  HIS129      0.0745
     65  CG        31.5380   14.6220   15.5390 C.ar  129  HIS129      0.0817
     66  ND1       31.9190   14.8500   16.8340 N.ar  129  HIS129     -0.2268
     67  CD2       30.4350   13.8860   15.5760 C.ar  129  HIS129      0.1154
     68  CE1       31.0420   14.2590   17.6530 C.ar  129  HIS129      0.1986
     69  NE2       30.1400   13.6460   16.8970 N.ar  129  HIS129     -0.2212
     70  N         27.7940   20.6060    7.4800 N.3   133  PRO133     -0.2102
     71  CA        26.4360   20.7230    8.0980 C.3   133  PRO133      0.1504
     72  C         25.3750   19.8260    7.4570 C.2   133  PRO133      0.2576
     73  O         24.3570   19.5770    8.1040 O.2   133  PRO133     -0.2718
     74  CB        26.0270   22.2070    7.8400 C.3   133  PRO133      0.0282
     75  CG        27.2580   22.9000    7.4060 C.3   133  PRO133      0.0208
     76  CD        28.2820   21.9070    6.9480 C.3   133  PRO133      0.0893
     77  N         25.6430   19.3290    6.2320 N.am  134  GLY134     -0.1943
     78  CA        24.6800   18.4440    5.5280 C.3   134  GLY134      0.2014
     79  C         24.9170   16.9610    5.9210 C.2   134  GLY134      0.2639
     80  O         24.1600   16.1170    5.4740 O.2   134  GLY134     -0.2714
     81  N         25.9860   16.6300    6.6790 N.am  135  ALA135     -0.1963
     82  CA        26.3830   15.2270    6.9030 C.3   135  ALA135      0.1728
     83  C         25.6420   14.5710    8.0600 C.2   135  ALA135      0.2616
     84  O         25.2610   15.2410    9.0430 O.2   135  ALA135     -0.2715
     85  CB        27.8980   15.1390    7.2070 C.3   135  ALA135      0.0334
     86  N         25.5000   13.2560    7.9920 N.am  136  LEU136     -0.1977
     87  CA        24.9190   12.5050    9.1000 C.3   136  LEU136      0.1596
     88  C         25.8880   12.5620   10.3110 C.2   136  LEU136      0.2287
     89  O         25.4490   12.5370   11.4580 O.2   136  LEU136     -0.2864
     90  CB        24.6810   11.0510    8.6770 C.3   136  LEU136      0.0297
     91  CG        24.1640   10.1340    9.8030 C.3   136  LEU136      0.0022
     92  CD1       22.7930   10.6330   10.3500 C.3   136  LEU136      0.0001
     93  CD2       24.0320    8.7250    9.2290 C.3   136  LEU136      0.0001
     94  N         27.7340   15.0130   11.1630 N.3   138  PHE138     -0.1228
     95  CA        27.7410   16.3620   11.7910 C.3   138  PHE138      0.1721
     96  C         27.1750   16.1930   13.1950 C.2   138  PHE138      0.2437
     97  O         26.1930   15.5040   13.4010 O.2   138  PHE138     -0.2733
     98  CB        26.8750   17.2850   10.9290 C.3   138  PHE138      0.0547
     99  CG        26.9790   18.7690   11.2750 C.ar  138  PHE138     -0.0202
    100  CD1       28.1840   19.4630   11.0010 C.ar  138  PHE138     -0.0042
    101  CD2       25.8850   19.4580   11.7240 C.ar  138  PHE138     -0.0042
    102  CE1       28.3100   20.8390   11.2100 C.ar  138  PHE138     -0.0003
    103  CE2       25.9870   20.8750   11.9930 C.ar  138  PHE138     -0.0003
    104  CZ        27.2150   21.5610   11.7150 C.ar  138  PHE138     -0.0000
    105  N         27.8210   16.8250   14.2070 N.am  139  PRO139     -0.2718
    106  CA        27.4410   16.5490   15.5910 C.3   139  PRO139      0.1535
    107  C         26.2700   17.3600   16.1100 C.2   139  PRO139      0.2598
    108  O         26.1920   17.5780   17.3390 O.2   139  PRO139     -0.2715
    109  CB        28.6980   16.9470   16.3890 C.3   139  PRO139      0.0310
    110  CG        29.2640   18.0710   15.5720 C.3   139  PRO139      0.0237
    111  CD        29.0150   17.6940   14.1020 C.3   139  PRO139      0.0939
    112  N         25.4220   17.8700   15.2430 N.am  140  ILE140     -0.1964
    113  CA        24.1690   18.5420   15.6540 C.3   140  ILE140      0.1727
    114  C         22.9920   17.7980   15.0630 C.2   140  ILE140      0.2616
    115  O         23.0340   17.3590   13.9000 O.2   140  ILE140     -0.2715
    116  CB        24.1220   20.0240   15.2730 C.3   140  ILE140      0.0290
    117  CG1       25.3400   20.7220   15.8190 C.3   140  ILE140      0.0022
    118  CG2       22.8460   20.6940   15.8340 C.3   140  ILE140      0.0023
    119  CD1       25.3660   22.2340   15.5260 C.3   140  ILE140      0.0001
    120  N         22.0210   17.5050   15.9260 N.am  141  TYR141     -0.1960
    121  CA        20.8010   16.7830   15.5150 C.3   141  TYR141      0.1771
    122  C         19.9160   17.5670   14.5240 C.2   141  TYR141      0.2620
    123  O         19.6810   18.7730   14.7550 O.2   141  TYR141     -0.2715
    124  CB        19.9760   16.4570   16.7630 C.3   141  TYR141      0.0574
    125  CG        18.6630   15.7420   16.4540 C.ar  141  TYR141     -0.0198
    126  CD1       18.6470   14.3490   16.2200 C.ar  141  TYR141     -0.0009
    127  CD2       17.4510   16.4500   16.3970 C.ar  141  TYR141     -0.0009
    128  CE1       17.4460   13.6980   15.9190 C.ar  141  TYR141      0.0417
    129  CE2       16.2270   15.8010   16.1010 C.ar  141  TYR141      0.0417
    130  CZ        16.2620   14.4110   15.8670 C.ar  141  TYR141      0.1957
    131  OH        15.0890   13.7140   15.5830 O.3   141  TYR141     -0.2866
    132  N         19.4460   16.9030   13.4570 N.am  142  THR142     -0.1951
    133  CA        18.4440   17.4620   12.5580 C.3   142  THR142      0.1897
    134  C         17.4850   16.3300   12.1680 C.2   142  THR142      0.2313
    135  O         17.8970   15.3150   11.6520 O.2   142  THR142     -0.2863
    136  CB        19.0070   18.0430   11.2030 C.3   142  THR142      0.1794
    137  OG1       19.9250   19.0950   11.4450 O.3   142  THR142     -0.2208
    138  CG2       17.9110   18.5890   10.3220 C.3   142  THR142      0.0378
    139  N         14.7840   14.5200    9.8230 N.3   144  THR144     -0.1218
    140  CA        14.2620   14.3550    8.4490 C.3   144  THR144      0.1862
    141  C         13.3380   13.1240    8.5270 C.2   144  THR144      0.2287
    142  O         13.6450   12.2120    9.3210 O.2   144  THR144     -0.2866
    143  CB        15.3260   13.7410    7.5100 C.3   144  THR144      0.1770
    144  OG1       16.4300   14.6100    7.4070 O.3   144  THR144     -0.2211
    145  CG2       14.6930   13.5740    6.1260 C.3   144  THR144      0.0375
    146  N         11.9960   11.4230    5.3830 N.3   146  LYS146     -0.1245
    147  CA        11.7090   11.0650    3.9840 C.3   146  LYS146      0.1561
    148  C         12.0980    9.5900    3.7250 C.2   146  LYS146      0.2260
    149  O         12.2630    8.8180    4.6900 O.2   146  LYS146     -0.2867
    150  CB        12.3800   12.0620    3.0080 C.3   146  LYS146      0.0271
    151  CG        13.8970   11.9520    3.1430 C.3   146  LYS146      0.0035
    152  CD        14.6760   12.8910    2.2510 C.3   146  LYS146      0.0206
    153  CE        15.8280   12.1330    1.5950 C.3   146  LYS146      0.1093
    154  NZ        16.8210   11.6790    2.6100 N.3   146  LYS146     -0.1314
    155  N         15.4670    7.0160    3.1100 N.3   147  PHE147     -0.1227
    156  CA        16.5510    7.7610    3.7240 C.3   147  PHE147      0.1736
    157  C         17.7330    7.6770    2.7910 C.2   147  PHE147      0.2595
    158  O         18.0390    6.5830    2.2490 O.2   147  PHE147     -0.2718
    159  CB        16.8940    7.2010    5.1560 C.3   147  PHE147      0.0547
    160  CG        18.1150    7.7950    5.7440 C.ar  147  PHE147     -0.0202
    161  CD1       19.3900    7.3410    5.3780 C.ar  147  PHE147     -0.0042
    162  CD2       18.0120    8.8400    6.6150 C.ar  147  PHE147     -0.0042
    163  CE1       20.5270    7.9680    5.8980 C.ar  147  PHE147     -0.0003
    164  CE2       19.1330    9.4390    7.1650 C.ar  147  PHE147     -0.0003
    165  CZ        20.4020    9.0380    6.7540 C.ar  147  PHE147     -0.0000
    166  N         18.3950    8.8210    2.5510 N.am  148  MET148     -0.1979
    167  CA        19.5620    8.8240    1.6930 C.3   148  MET148      0.1605
    168  C         20.7980    9.2920    2.5020 C.2   148  MET148      0.2287
    169  O         20.8360   10.3990    3.0670 O.2   148  MET148     -0.2864
    170  CB        19.3320    9.6940    0.4570 C.3   148  MET148      0.0413
    171  CG        19.8290    8.9790   -0.8300 C.3   148  MET148      0.0598
    172  SD        18.4100    7.9940   -1.4940 S.3   148  MET148     -0.1393
    173  CE        18.4530    6.4250   -0.5670 C.3   148  MET148      0.0692
    174  N         24.0220   11.0880    3.1860 N.3   150  PRO150     -0.2116
    175  CA        24.6800   12.1570    2.4190 C.3   150  PRO150      0.1372
    176  C         26.0450   11.7000    1.8570 C.2   150  PRO150      0.2244
    177  O         26.6820   10.7820    2.4260 O.2   150  PRO150     -0.2868
    178  CB        24.8450   13.2650    3.4490 C.3   150  PRO150      0.0268
    179  CG        23.6630   13.0460    4.3690 C.3   150  PRO150      0.0207
    180  CD        23.5950   11.5600    4.5100 C.3   150  PRO150      0.0892
@<TRIPOS>BOND
     1   172   171    1
     2   172   173    1
     3   171   170    1
     4   170   167    1
     5   153   152    1
     6   153   154    1
     7   167   168    1
     8   167   166    1
     9   176   175    1
    10   176   177    2
    11   158   157    2
    12   152   151    1
    13   175   174    1
    14   175   178    1
    15   168   169    2
    16   166   157   am
    17   157   156    1
    18   150   151    1
    19   150   147    1
    20   155   156    1
    21   174   180    1
    22   178   179    1
    23   156   159    1
    24   148   147    1
    25   148   149    2
    26   147   146    1
    27   179   180    1
    28   159   160    1
    29   161   160   ar
    30   161   163   ar
    31    80    79    2
    32    78    79    1
    33    78    77    1
    34   160   162   ar
    35   163   165   ar
    36    79    81   am
    37   145   143    1
    38    77    72   am
    39   162   164   ar
    40    81    82    1
    41   165   164   ar
    42    82    85    1
    43    82    83    1
    44    76    75    1
    45    76    70    1
    46    75    74    1
    47   144   143    1
    48    72    71    1
    49    72    73    2
    50    70    71    1
    51   143   140    1
    52    74    71    1
    53    86    83   am
    54    86    87    1
    55    83    84    2
    56   140   141    1
    57   140   139    1
    58   141   142    2
    59    90    87    1
    60    90    91    1
    61    87    88    1
    62    93    91    1
    63    91    92    1
    64    88    89    2
    65   138   136    1
    66    33    31    1
    67    98    99    1
    68    98    95    1
    69   100   102   ar
    70   100    99   ar
    71    94    95    1
    72   136   137    1
    73   136   133    1
    74   102   104   ar
    75    99   101   ar
    76   135   134    2
    77   104   103   ar
    78   101   103   ar
    79    95    96    1
    80    63    62    2
    81    31    32    1
    82    31    30    1
    83    62    61    1
    84   134   133    1
    85   133   132    1
    86    30    27    1
    87    27    26    1
    88    27    28    1
    89    41    42    1
    90    96    97    2
    91    96   105   am
    92    61    60    1
    93    61    64    1
    94   132   122   am
    95    42    45    1
    96    42    43    1
    97    29    28    2
    98   115   114    2
    99    47    49   ar
   100    47    46   ar
   101    28    34   am
   102   111   105    1
   103   111   110    1
   104    44    43    2
   105   105   106    1
   106    45    46    1
   107    64    65    1
   108    43    51   am
   109   122   123    2
   110   122   121    1
   111    49    50   ar
   112    46    48   ar
   113   114   113    1
   114   114   120   am
   115   112   113    1
   116   112   107   am
   117   116   113    1
   118   116   117    1
   119   116   118    1
   120    34    35    1
   121   121   120    1
   122   121   124    1
   123   119   117    1
   124    51    52    1
   125    65    67   ar
   126    65    66   ar
   127   110   109    1
   128    67    69   ar
   129   131   130    1
   130   106   107    1
   131   106   109    1
   132    50    48   ar
   133   130   128   ar
   134   130   129   ar
   135    53    54    2
   136    53    52    1
   137   128   126   ar
   138   129   127   ar
   139   107   108    2
   140   126   125   ar
   141    36    37    2
   142    36    35    1
   143    35    38    1
   144   127   125   ar
   145   125   124    1
   146    52    55    1
   147    66    68   ar
   148    69    68   ar
   149    38    40    1
   150    38    39    1
   151    55    56    1
   152    56    57    1
   153    57    59   ar
   154    57    58   ar
   155    19    18    1
   156    18    17    1
   157    18    20    1
   158    25    22    1
   159    17    14    1
   160    24    23    2
   161    23    22    1
   162    22    21    1
   163    21    15   am
   164    14    15    1
   165    14    13    1
   166    15    16    2
   167    13     7   am
   168    11    10    1
   169     4     3    2
   170     7     6    1
   171     7     8    2
   172     6     5    1
   173     6     9    1
   174     3     5   am
   175     3     2    1
   176    10     9    1
   177    10    12    1
   178     1     2    1
