@<TRIPOS>MOLECULE
tmp/2yihA00.pdb
 194 188 0 0 0
SMALL
GASTEIGER

@<TRIPOS>ATOM
      1  N         14.3080   30.0830  -16.1980 N.3    41  ASN41      -0.1240
      2  CA        12.9580   30.4320  -16.7080 C.3    41  ASN41       0.1653
      3  C         12.6130   31.9060  -16.4590 C.2    41  ASN41       0.2266
      4  O         11.9490   32.5400  -17.2850 O.2    41  ASN41      -0.2867
      5  CB        11.9260   29.5220  -16.0480 C.3    41  ASN41       0.1155
      6  CG        12.0870   28.0780  -16.4710 C.2    41  ASN41       0.2627
      7  OD1       12.6740   27.8100  -17.4950 O.2    41  ASN41      -0.2716
      8  ND2       11.4640   27.1550  -15.7400 N.am   41  ASN41      -0.0877
      9  N          4.9770   28.8580  -15.7730 N.3    57  SER57      -0.1202
     10  CA         4.3210   27.7140  -15.1520 C.3    57  SER57       0.2020
     11  C          4.9290   27.3490  -13.7930 C.2    57  SER57       0.2618
     12  O          4.2900   26.6360  -13.0040 O.2    57  SER57      -0.2717
     13  CB         4.3380   26.5140  -16.1180 C.3    57  SER57       0.2103
     14  OG         5.6830   26.1000  -16.3530 O.3    57  SER57      -0.2182
     15  N          6.1180   27.8670  -13.4910 N.am   58  ASP58      -0.1973
     16  CA         6.7140   27.6490  -12.1780 C.3    58  ASP58       0.1709
     17  C          5.9030   28.2440  -11.0200 C.2    58  ASP58       0.2293
     18  O          5.9320   27.7030   -9.8970 O.2    58  ASP58      -0.2864
     19  CB         8.1560   28.1800  -12.0910 C.3    58  ASP58       0.1436
     20  CG         9.1550   27.3570  -12.9320 C.2    58  ASP58       0.3671
     21  OD1        8.8510   26.1830  -13.2620 O.co2  58  ASP58      -0.2456
     22  OD2       10.2430   27.9010  -13.1980 O.co2  58  ASP58      -0.2456
     23  N         15.7640   27.8000  -22.9810 N.3   180  GLU180     -0.1245
     24  CA        14.8990   26.6310  -23.2370 C.3   180  GLU180      0.1567
     25  C         13.7250   26.9360  -24.1910 C.2   180  GLU180      0.2260
     26  O         12.5330   26.7380  -23.8150 O.2   180  GLU180     -0.2867
     27  CB        14.3720   26.0260  -21.9060 C.3   180  GLU180      0.0388
     28  CG        15.5530   25.5710  -21.0170 C.3   180  GLU180      0.1160
     29  CD        15.1640   24.8510  -19.7290 C.2   180  GLU180      0.3649
     30  OE1       13.9390   24.7870  -19.3620 O.co2 180  GLU180     -0.2457
     31  OE2       16.1310   24.3100  -19.0850 O.co2 180  GLU180     -0.2457
     32  N         12.3980   25.3840  -26.7280 N.3   182  ALA182     -0.1231
     33  CA        11.4680   24.2740  -27.0160 C.3   182  ALA182      0.1694
     34  C         10.4850   24.0520  -25.8900 C.2   182  ALA182      0.2591
     35  O          9.4710   23.3900  -26.1030 O.2   182  ALA182     -0.2718
     36  CB        12.2180   22.9770  -27.3350 C.3   182  ALA182      0.0304
     37  N         10.7410   24.7160  -24.7440 N.am  183  LEU183     -0.1980
     38  CA         9.7920   24.7410  -23.6220 C.3   183  LEU183      0.1596
     39  C          9.0160   26.0440  -23.4790 C.2   183  LEU183      0.2287
     40  O          8.1480   26.1260  -22.5880 O.2   183  LEU183     -0.2864
     41  CB        10.4700   24.3600  -22.2960 C.3   183  LEU183      0.0297
     42  CG        11.0360   22.9370  -22.2760 C.3   183  LEU183      0.0022
     43  CD1       11.4910   22.6110  -20.8740 C.3   183  LEU183      0.0001
     44  CD2       10.0650   21.8740  -22.7740 C.3   183  LEU183      0.0001
     45  N          6.4690   27.0850  -24.9820 N.3   185  SER185     -0.1202
     46  CA         4.9980   26.9180  -25.0010 C.3   185  SER185      0.2020
     47  C          4.4800   26.2130  -23.7680 C.2   185  SER185      0.2619
     48  O          3.2800   26.2690  -23.4690 O.2   185  SER185     -0.2717
     49  CB         4.5170   26.1900  -26.2750 C.3   185  SER185      0.2103
     50  OG         4.9890   24.8690  -26.2730 O.3   185  SER185     -0.2182
     51  N          5.3730   25.5700  -23.0330 N.am  186  HIS186     -0.1961
     52  CA         4.9740   24.8960  -21.7910 C.3   186  HIS186      0.1787
     53  C          5.2290   25.7700  -20.5400 C.2   186  HIS186      0.2620
     54  O          4.3700   25.8980  -19.6430 O.2   186  HIS186     -0.2715
     55  CB         5.7080   23.5480  -21.6930 C.3   186  HIS186      0.0785
     56  CG         5.4610   22.8140  -20.4040 C.ar  186  HIS186      0.0821
     57  ND1        4.3920   21.9650  -20.2250 N.ar  186  HIS186     -0.2267
     58  CD2        6.1300   22.8310  -19.2250 C.ar  186  HIS186      0.1154
     59  CE1        4.4090   21.4900  -18.9870 C.ar  186  HIS186      0.1986
     60  NE2        5.4550   22.0000  -18.3600 N.ar  186  HIS186     -0.2212
     61  N          6.4260   26.3280  -20.4650 N.am  187  THR187     -0.1951
     62  CA         6.8410   27.1760  -19.3340 C.3   187  THR187      0.1897
     63  C          6.2650   28.5700  -19.4190 C.2   187  THR187      0.2313
     64  O          5.8420   29.1550  -18.3910 O.2   187  THR187     -0.2863
     65  CB         8.3830   27.2710  -19.3070 C.3   187  THR187      0.1794
     66  OG1        8.9000   25.9320  -19.1570 O.3   187  THR187     -0.2208
     67  CG2        8.8700   28.1540  -18.1130 C.3   187  THR187      0.0378
     68  N          4.1100   26.1380  -30.1040 N.3   195  LYS195     -0.1245
     69  CA         5.4220   25.4780  -30.0600 C.3   195  LYS195      0.1561
     70  C          6.3790   26.2110  -31.0020 C.2   195  LYS195      0.2260
     71  O          6.0310   26.5160  -32.1500 O.2   195  LYS195     -0.2867
     72  CB         5.3350   24.0170  -30.4750 C.3   195  LYS195      0.0271
     73  CG         4.5960   23.1410  -29.4550 C.3   195  LYS195      0.0035
     74  CD         4.3670   21.7170  -29.9880 C.3   195  LYS195      0.0206
     75  CE         5.6970   20.9370  -30.1220 C.3   195  LYS195      0.1093
     76  NZ         6.4840   20.9200  -28.8270 N.3   195  LYS195     -0.1314
     77  N         16.7750   22.5970  -23.3370 N.3   227  TYR227     -0.1241
     78  CA        16.4570   22.0600  -22.0050 C.3   227  TYR227      0.1605
     79  C         16.9860   20.6540  -21.7510 C.2   227  TYR227      0.2264
     80  O         17.2120   20.2690  -20.5880 O.2   227  TYR227     -0.2867
     81  CB        14.9370   22.0980  -21.7420 C.3   227  TYR227      0.0534
     82  CG        14.1960   20.8680  -22.2200 C.ar  227  TYR227     -0.0201
     83  CD1       14.0490   19.7320  -21.3960 C.ar  227  TYR227     -0.0009
     84  CD2       13.6280   20.8380  -23.4900 C.ar  227  TYR227     -0.0009
     85  CE1       13.3330   18.5780  -21.8630 C.ar  227  TYR227      0.0417
     86  CE2       12.9220   19.7030  -23.9550 C.ar  227  TYR227      0.0417
     87  CZ        12.7810   18.5900  -23.1260 C.ar  227  TYR227      0.1957
     88  OH        12.1060   17.4720  -23.5820 O.3   227  TYR227     -0.2866
     89  N         15.1970   15.7910  -25.6080 N.3   230  GLY230     -0.1225
     90  CA        14.0930   15.9150  -26.5700 C.3   230  GLY230      0.1811
     91  C         14.2170   17.1550  -27.4590 C.2   230  GLY230      0.2280
     92  O         13.8010   17.1440  -28.6230 O.2   230  GLY230     -0.2866
     93  N         11.8500   19.3300  -29.5700 N.3   236  GLN236     -0.1245
     94  CA        10.5980   18.8800  -28.9500 C.3   236  GLN236      0.1566
     95  C          9.4990   18.7380  -30.0040 C.2   236  GLN236      0.2260
     96  O          8.4140   19.2750  -29.8600 O.2   236  GLN236     -0.2867
     97  CB        10.1750   19.8100  -27.7860 C.3   236  GLN236      0.0367
     98  CG         9.1540   19.1720  -26.8490 C.3   236  GLN236      0.0905
     99  CD         9.7530   18.1180  -25.9400 C.2   236  GLN236      0.2608
    100  OE1       10.9920   17.9170  -25.8730 O.2   236  GLN236     -0.2717
    101  NE2        8.8680   17.3970  -25.2380 N.am  236  GLN236     -0.0878
    102  N         19.8190   17.5540  -17.3610 N.3   279  TYR279     -0.1241
    103  CA        19.3770   16.9570  -16.1190 C.3   279  TYR279      0.1605
    104  C         19.2680   15.4650  -16.3810 C.2   279  TYR279      0.2264
    105  O         18.4270   15.0280  -17.1910 O.2   279  TYR279     -0.2867
    106  CB        18.0270   17.5470  -15.7100 C.3   279  TYR279      0.0534
    107  CG        18.1000   19.0330  -15.4880 C.ar  279  TYR279     -0.0201
    108  CD1       18.7510   19.5540  -14.3700 C.ar  279  TYR279     -0.0009
    109  CD2       17.5980   19.9240  -16.4400 C.ar  279  TYR279     -0.0009
    110  CE1       18.8010   20.9170  -14.1550 C.ar  279  TYR279      0.0417
    111  CE2       17.6590   21.3000  -16.2250 C.ar  279  TYR279      0.0417
    112  CZ        18.2780   21.7630  -15.0700 C.ar  279  TYR279      0.1957
    113  OH        18.3410   23.1000  -14.8230 O.3   279  TYR279     -0.2866
    114  N         18.4070   11.7740  -16.8890 N.3   281  GLU281     -0.1245
    115  CA        17.2180   10.9350  -16.7970 C.3   281  GLU281      0.1567
    116  C         17.5350    9.5940  -16.1440 C.2   281  GLU281      0.2260
    117  O         16.6340    8.7630  -15.9810 O.2   281  GLU281     -0.2867
    118  CB        16.6070   10.7040  -18.1850 C.3   281  GLU281      0.0388
    119  CG        16.0590   11.9860  -18.8290 C.3   281  GLU281      0.1160
    120  CD        14.6230   12.3130  -18.4110 C.2   281  GLU281      0.3649
    121  OE1       14.1090   11.7120  -17.4440 O.co2 281  GLU281     -0.2457
    122  OE2       13.9930   13.1640  -19.0700 O.co2 281  GLU281     -0.2457
    123  N         14.2060    8.7500  -10.4800 N.3   288  ARG288     -0.1245
    124  CA        15.1240    9.5550  -11.3090 C.3   288  ARG288      0.1563
    125  C         16.0980   10.3000  -10.3990 C.2   288  ARG288      0.2260
    126  O         15.6590   10.9220   -9.4450 O.2   288  ARG288     -0.2867
    127  CB        14.3180   10.5630  -12.1550 C.3   288  ARG288      0.0307
    128  CG        15.1620   11.3350  -13.1600 C.3   288  ARG288      0.0489
    129  CD        14.3540   12.4680  -13.7970 C.3   288  ARG288      0.2205
    130  NE        15.1750   13.2540  -14.7010 N.pl3 288  ARG288     -0.0865
    131  CZ        14.7080   14.1930  -15.5140 C.cat 288  ARG288      0.5346
    132  NH1       13.3990   14.4280  -15.5820 N.pl3 288  ARG288      0.1354
    133  NH2       15.5370   14.8270  -16.3330 N.pl3 288  ARG288      0.1354
    134  N         15.1650    6.5860  -20.6530 N.3   319  TRP319     -0.1241
    135  CA        14.5420    6.5390  -21.9900 C.3   319  TRP319      0.1605
    136  C         15.5200    7.0060  -23.0590 C.2   319  TRP319      0.2264
    137  O         15.4510    6.5610  -24.1890 O.2   319  TRP319     -0.2867
    138  CB        13.2850    7.4000  -22.0140 C.3   319  TRP319      0.0550
    139  CG        13.5150    8.9160  -21.9510 C.ar  319  TRP319      0.0003
    140  CD1       13.4580    9.7250  -20.8270 C.ar  319  TRP319      0.0946
    141  CD2       13.6960    9.7980  -23.0570 C.ar  319  TRP319      0.0152
    142  NE1       13.6140   11.0480  -21.1830 N.ar  319  TRP319     -0.2442
    143  CE2       13.8010   11.1180  -22.5370 C.ar  319  TRP319      0.0810
    144  CE3       13.8400    9.6060  -24.4360 C.ar  319  TRP319      0.0012
    145  CZ2       13.9680   12.2340  -23.3610 C.ar  319  TRP319      0.0191
    146  CZ3       14.0080   10.7230  -25.2470 C.ar  319  TRP319      0.0001
    147  CH2       14.0490   12.0220  -24.7050 C.ar  319  TRP319      0.0015
    148  N         16.3190    4.4190  -26.1010 N.3   323  TRP323     -0.1227
    149  CA        15.8560    4.6220  -27.4560 C.3   323  TRP323      0.1737
    150  C         16.8110    5.4220  -28.3140 C.2   323  TRP323      0.2595
    151  O         16.6220    5.4810  -29.5230 O.2   323  TRP323     -0.2718
    152  CB        14.4600    5.2650  -27.4600 C.3   323  TRP323      0.0564
    153  CG        13.4090    4.3420  -26.9410 C.ar  323  TRP323      0.0003
    154  CD1       12.7560    4.4330  -25.7480 C.ar  323  TRP323      0.0946
    155  CD2       12.8640    3.2000  -27.6170 C.ar  323  TRP323      0.0152
    156  NE1       11.8440    3.3970  -25.6280 N.ar  323  TRP323     -0.2442
    157  CE2       11.8990    2.6290  -26.7620 C.ar  323  TRP323      0.0810
    158  CE3       13.1080    2.5990  -28.8590 C.ar  323  TRP323      0.0012
    159  CZ2       11.1620    1.4830  -27.1170 C.ar  323  TRP323      0.0191
    160  CZ3       12.3760    1.4580  -29.2120 C.ar  323  TRP323      0.0001
    161  CH2       11.4040    0.9300  -28.3480 C.ar  323  TRP323      0.0015
    162  N         17.8410    6.0260  -27.6990 N.am  324  PHE324     -0.1976
    163  CA        18.7240    6.9570  -28.3980 C.3   324  PHE324      0.1639
    164  C         20.1790    6.7710  -27.9830 C.2   324  PHE324      0.2290
    165  O         20.9360    7.7330  -27.9550 O.2   324  PHE324     -0.2864
    166  CB        18.2680    8.4230  -28.1660 C.3   324  PHE324      0.0560
    167  CG        16.8750    8.6810  -28.6260 C.ar  324  PHE324     -0.0200
    168  CD1       16.5980    8.8630  -29.9780 C.ar  324  PHE324     -0.0042
    169  CD2       15.8180    8.6060  -27.7270 C.ar  324  PHE324     -0.0042
    170  CE1       15.2850    9.0150  -30.4130 C.ar  324  PHE324     -0.0003
    171  CE2       14.5070    8.7380  -28.1540 C.ar  324  PHE324     -0.0003
    172  CZ        14.2410    8.9720  -29.4960 C.ar  324  PHE324     -0.0000
    173  N         22.7620   23.9990  -11.3820 N.3   384  TRP384     -0.1241
    174  CA        21.4540   24.5840  -11.0390 C.3   384  TRP384      0.1605
    175  C         20.9060   23.9210   -9.7580 C.2   384  TRP384      0.2264
    176  O         20.8220   22.7020   -9.6690 O.2   384  TRP384     -0.2867
    177  CB        20.4750   24.3590  -12.2090 C.3   384  TRP384      0.0550
    178  CG        19.1400   24.9090  -11.8890 C.ar  384  TRP384      0.0003
    179  CD1       18.1210   24.2620  -11.2240 C.ar  384  TRP384      0.0946
    180  CD2       18.6690   26.2250  -12.1780 C.ar  384  TRP384      0.0152
    181  NE1       17.0450   25.1230  -11.0720 N.ar  384  TRP384     -0.2442
    182  CE2       17.3590   26.3340  -11.6430 C.ar  384  TRP384      0.0810
    183  CE3       19.2280   27.3290  -12.8220 C.ar  384  TRP384      0.0012
    184  CZ2       16.5910   27.5120  -11.7680 C.ar  384  TRP384      0.0191
    185  CZ3       18.4620   28.5090  -12.9430 C.ar  384  TRP384      0.0001
    186  CH2       17.1810   28.5950  -12.3820 C.ar  384  TRP384      0.0015
    187  N         18.2940   22.3200   -7.8090 N.3   386  LEU386     -0.1245
    188  CA        16.9670   21.7040   -7.8810 C.3   386  LEU386      0.1561
    189  C         16.2980   21.6760   -6.5080 C.2   386  LEU386      0.2260
    190  O         15.0740   21.5090   -6.4190 O.2   386  LEU386     -0.2867
    191  CB        17.0480   20.2830   -8.4380 C.3   386  LEU386      0.0270
    192  CG        17.5540   20.2040   -9.8790 C.3   386  LEU386      0.0019
    193  CD1       17.7720   18.7220  -10.2430 C.3   386  LEU386      0.0001
    194  CD2       16.6080   20.8930  -10.8660 C.3   386  LEU386      0.0001
@<TRIPOS>BOND
     1    71    70    2
     2    70    69    1
     3    72    69    1
     4    72    73    1
     5   170   168   ar
     6   170   172   ar
     7    75    74    1
     8    75    76    1
     9    68    69    1
    10    95    96    2
    11    95    94    1
    12    74    73    1
    13   168   167   ar
    14    93    94    1
    15   151   150    2
    16   172   171   ar
    17   160   158   ar
    18   160   161   ar
    19    94    97    1
    20   158   155   ar
    21   167   166    1
    22   167   169   ar
    23    92    91    2
    24   163   166    1
    25   163   164    1
    26   163   162    1
    27   161   159   ar
    28   150   162   am
    29   150   149    1
    30   171   169   ar
    31   164   165    2
    32    97    98    1
    33   155   153   ar
    34   155   157   ar
    35   152   149    1
    36   152   153    1
    37    91    90    1
    38   149   148    1
    39    36    33    1
    40   159   157   ar
    41    33    32    1
    42    33    34    1
    43   153   154   ar
    44    98    99    1
    45   157   156   ar
    46    90    89    1
    47    49    50    1
    48    49    46    1
    49    35    34    2
    50    99   100    2
    51    99   101   am
    52    34    37   am
    53   154   156   ar
    54   146   147   ar
    55   146   144   ar
    56    46    45    1
    57    46    47    1
    58    37    38    1
    59   147   145   ar
    60   144   141   ar
    61    25    26    2
    62    25    24    1
    63   137   136    2
    64    86    84   ar
    65    86    87   ar
    66    47    48    2
    67    47    51   am
    68    38    39    1
    69    38    41    1
    70    88    87    1
    71    84    82   ar
    72    39    40    2
    73   145   143   ar
    74    77    78    1
    75    24    23    1
    76    24    27    1
    77    87    85   ar
    78   136   135    1
    79   141   143   ar
    80   141   139   ar
    81    51    52    1
    82    44    42    1
    83   143   142   ar
    84    41    42    1
    85    42    43    1
    86    82    81    1
    87    82    83   ar
    88   138   135    1
    89   138   139    1
    90    78    79    1
    91    78    81    1
    92   135   134    1
    93   139   140   ar
    94    27    28    1
    95    85    83   ar
    96    52    55    1
    97    52    53    1
    98    79    80    2
    99    55    56    1
   100   142   140   ar
   101    28    29    1
   102    53    61   am
   103    53    54    2
   104    61    62    1
   105    56    57   ar
   106    56    58   ar
   107    57    59   ar
   108    29    30   ar
   109    29    31   ar
   110    63    62    1
   111    63    64    2
   112    62    65    1
   113    65    66    1
   114    65    67    1
   115    58    60   ar
   116   122   120   ar
   117    59    60   ar
   118   119   120    1
   119   119   118    1
   120   120   121   ar
   121   118   115    1
   122     7     6    2
   123   102   103    1
   124     4     3    2
   125   105   104    2
   126   114   115    1
   127   115   116    1
   128     2     3    1
   129     2     1    1
   130     2     5    1
   131     6     5    1
   132     6     8   am
   133   109   111   ar
   134   109   107   ar
   135   104   103    1
   136    14    13    1
   137   133   131    1
   138   111   112   ar
   139   116   117    2
   140   103   106    1
   141    13    10    1
   142     9    10    1
   143   106   107    1
   144   132   131    1
   145   131   130    2
   146   107   108   ar
   147    10    11    1
   148   112   113    1
   149   112   110   ar
   150   130   129    1
   151   108   110   ar
   152   129   128    1
   153    11    15   am
   154    11    12    2
   155    15    16    1
   156    21    20   ar
   157    22    20   ar
   158   128   127    1
   159   185   183   ar
   160   185   186   ar
   161    20    19    1
   162   183   180   ar
   163   186   184   ar
   164   177   178    1
   165   177   174    1
   166    16    19    1
   167    16    17    1
   168   180   178   ar
   169   180   182   ar
   170   127   124    1
   171   178   179   ar
   172   184   182   ar
   173   182   181   ar
   174   173   174    1
   175   124   123    1
   176   124   125    1
   177   179   181   ar
   178   174   175    1
   179    17    18    2
   180   194   192    1
   181   125   126    2
   182   193   192    1
   183   192   191    1
   184   175   176    2
   185   191   188    1
   186   188   187    1
   187   188   189    1
   188   189   190    2
