@<TRIPOS>MOLECULE
tmp/2yipF00.pdb
 105 98 0 0 0
SMALL
GASTEIGER

@<TRIPOS>ATOM
      1  N         53.1790   71.7570  129.0880 N.3    15  SER15      -0.1202
      2  CA        52.2050   72.6810  129.6280 C.3    15  SER15       0.2020
      3  C         52.5240   73.0100  131.0610 C.2    15  SER15       0.2619
      4  O         52.7100   72.1090  131.8770 O.2    15  SER15      -0.2717
      5  CB        50.8100   72.0830  129.5970 C.3    15  SER15       0.2103
      6  OG        49.9070   73.0150  130.2030 O.3    15  SER15      -0.2182
      7  N         52.5630   74.3080  131.3800 N.am   16  ARG16      -0.1965
      8  CA        52.8290   74.7580  132.7560 C.3    16  ARG16       0.1729
      9  C         51.5870   74.7110  133.6380 C.2    16  ARG16       0.2616
     10  O         51.6940   75.0010  134.7960 O.2    16  ARG16      -0.2715
     11  CB        53.3390   76.2020  132.7970 C.3    16  ARG16       0.0348
     12  CG        54.6060   76.4920  132.0240 C.3    16  ARG16       0.0492
     13  CD        54.9730   77.9910  132.2780 C.3    16  ARG16       0.2205
     14  NE        56.0910   78.4480  131.4720 N.pl3  16  ARG16      -0.0865
     15  CZ        57.3630   78.1800  131.7470 C.cat  16  ARG16       0.5346
     16  NH1       57.7090   77.4200  132.7830 N.pl3  16  ARG16       0.1354
     17  NH2       58.2950   78.6470  130.9580 N.pl3  16  ARG16       0.1354
     18  N         50.4100   74.3420  133.1150 N.am   17  THR17      -0.1951
     19  CA        49.2550   74.3970  133.9350 C.3    17  THR17       0.1897
     20  C         49.4020   73.6270  135.2610 C.2    17  THR17       0.2313
     21  O         49.9800   72.5110  135.3270 O.2    17  THR17      -0.2863
     22  CB        48.0350   73.9170  133.2010 C.3    17  THR17       0.1794
     23  OG1       47.9880   74.5960  131.9680 O.3    17  THR17      -0.2208
     24  CG2       46.7510   74.2550  133.9670 C.3    17  THR17       0.0378
     25  N         49.2050   71.3170  138.3260 N.3    19  GLN19      -0.1245
     26  CA        48.9970   69.8740  138.3400 C.3    19  GLN19       0.1566
     27  C         47.8230   69.4640  139.1670 C.2    19  GLN19       0.2260
     28  O         47.6770   69.8720  140.2930 O.2    19  GLN19      -0.2867
     29  CB        50.1750   69.1230  138.9960 C.3    19  GLN19       0.0367
     30  CG        51.1930   68.8490  138.0430 C.3    19  GLN19       0.0905
     31  CD        52.4690   68.3750  138.6530 C.2    19  GLN19       0.2608
     32  OE1       53.4570   68.2760  137.9300 O.2    19  GLN19      -0.2717
     33  NE2       52.4720   68.0510  139.9780 N.am   19  GLN19      -0.0878
     34  N         50.8250   66.5120  130.2420 N.3    45  THR45      -0.1218
     35  CA        52.1770   66.5210  129.7250 C.3    45  THR45       0.1862
     36  C         52.8920   65.2520  130.2160 C.2    45  THR45       0.2287
     37  O         52.9790   65.0090  131.4220 O.2    45  THR45      -0.2866
     38  CB        52.8940   67.7540  130.1530 C.3    45  THR45       0.1770
     39  OG1       52.1830   68.8820  129.6140 O.3    45  THR45      -0.2211
     40  CG2       54.3580   67.7540  129.6530 C.3    45  THR45       0.0375
     41  N         56.5080   63.1720  129.9740 N.3    47  ASN47      -0.1240
     42  CA        57.9020   63.4480  129.6030 C.3    47  ASN47       0.1653
     43  C         58.6160   62.1270  129.3390 C.2    47  ASN47       0.2266
     44  O         58.6780   61.2810  130.2290 O.2    47  ASN47      -0.2867
     45  CB        58.6300   64.2500  130.6570 C.3    47  ASN47       0.1155
     46  CG        60.0640   64.5870  130.2210 C.2    47  ASN47       0.2627
     47  OD1       60.9380   63.7360  130.2520 O.2    47  ASN47      -0.2716
     48  ND2       60.2800   65.8100  129.7540 N.am   47  ASN47      -0.0877
     49  N         61.8310   61.5180  131.9380 N.3    50  SER50      -0.1217
     50  CA        61.5560   61.2750  133.3700 C.3    50  SER50       0.1889
     51  C         60.4520   60.2040  133.5910 C.2    50  SER50       0.2288
     52  O         60.2730   59.6600  134.6900 O.2    50  SER50      -0.2866
     53  CB        61.1600   62.5890  134.0420 C.3    50  SER50       0.2089
     54  OG        59.8950   62.9890  133.5330 O.3    50  SER50      -0.2183
     55  N         52.0370   64.2670  133.9590 N.3    54  HIS54      -0.1241
     56  CA        51.4820   65.3790  134.7050 C.3    54  HIS54       0.1621
     57  C         50.0520   65.7180  134.2320 C.2    54  HIS54       0.2264
     58  O         49.8770   66.1970  133.1090 O.2    54  HIS54      -0.2867
     59  CB        52.4010   66.5710  134.4930 C.3    54  HIS54       0.0745
     60  CG        53.8390   66.3070  134.7970 C.ar   54  HIS54       0.0817
     61  ND1       54.4410   66.6910  135.9980 N.ar   54  HIS54      -0.2268
     62  CD2       54.8230   65.7910  134.0220 C.ar   54  HIS54       0.1154
     63  CE1       55.7290   66.4240  135.9230 C.ar   54  HIS54       0.1986
     64  NE2       55.9840   65.8680  134.7450 N.ar   54  HIS54      -0.2212
     65  N         46.4100   67.6250  134.2710 N.3    56  LYS56      -0.1245
     66  CA        46.0640   69.0400  134.4650 C.3    56  LYS56       0.1561
     67  C         44.5910   69.3120  134.2180 C.2    56  LYS56       0.2260
     68  O         43.9930   68.7470  133.2860 O.2    56  LYS56      -0.2867
     69  CB        46.9330   69.8920  133.5190 C.3    56  LYS56       0.0271
     70  CG        48.4220   69.8220  133.8760 C.3    56  LYS56       0.0035
     71  CD        49.2890   70.0640  132.7350 C.3    56  LYS56       0.0206
     72  CE        50.7510   69.7860  133.0380 C.3    56  LYS56       0.1093
     73  NZ        51.4420   70.8100  133.8670 N.3    56  LYS56      -0.1314
     74  N         54.7230   75.6320  126.7250 N.3    63  TYR63      -0.1241
     75  CA        56.0780   76.1070  126.7770 C.3    63  TYR63       0.1605
     76  C         56.9720   74.9870  126.2320 C.2    63  TYR63       0.2264
     77  O         56.4840   73.9340  125.8320 O.2    63  TYR63      -0.2867
     78  CB        56.4280   76.5590  128.2010 C.3    63  TYR63       0.0534
     79  CG        56.7670   75.4560  129.2140 C.ar   63  TYR63      -0.0201
     80  CD1       55.8480   74.4590  129.5410 C.ar   63  TYR63      -0.0009
     81  CD2       58.0070   75.4490  129.8810 C.ar   63  TYR63      -0.0009
     82  CE1       56.1510   73.4690  130.4860 C.ar   63  TYR63       0.0417
     83  CE2       58.3190   74.4570  130.8150 C.ar   63  TYR63       0.0417
     84  CZ        57.3700   73.4680  131.1120 C.ar   63  TYR63       0.1957
     85  OH        57.6710   72.4730  132.0180 O.3    63  TYR63      -0.2866
     86  N         60.0660   72.2780  126.9050 N.3    65  TYR65      -0.1241
     87  CA        60.8240   71.5300  127.8910 C.3    65  TYR65       0.1605
     88  C         61.2370   70.1970  127.2520 C.2    65  TYR65       0.2264
     89  O         60.3880   69.4640  126.6930 O.2    65  TYR65      -0.2867
     90  CB        59.9570   71.3170  129.1240 C.3    65  TYR65       0.0534
     91  CG        60.6850   70.7330  130.3020 C.ar   65  TYR65      -0.0201
     92  CD1       60.7560   69.3540  130.4730 C.ar   65  TYR65      -0.0009
     93  CD2       61.2610   71.5520  131.2710 C.ar   65  TYR65      -0.0009
     94  CE1       61.4210   68.7730  131.5500 C.ar   65  TYR65       0.0417
     95  CE2       61.9530   70.9820  132.3650 C.ar   65  TYR65       0.0417
     96  CZ        62.0190   69.5790  132.4800 C.ar   65  TYR65       0.1957
     97  OH        62.6690   68.9910  133.4970 O.3    65  TYR65      -0.2866
     98  N         59.1990   66.5620  126.6710 N.3    68  ASP68      -0.1239
     99  CA        57.7330   66.7200  126.9290 C.3    68  ASP68       0.1674
    100  C         56.9050   66.5250  125.6990 C.2    68  ASP68       0.2266
    101  O         57.3240   66.8340  124.5630 O.2    68  ASP68      -0.2867
    102  CB        57.3890   68.0970  127.4850 C.3    68  ASP68       0.1410
    103  CG        57.5440   68.2020  128.9780 C.2    68  ASP68       0.3668
    104  OD1       57.9300   67.2190  129.6650 O.co2  68  ASP68      -0.2456
    105  OD2       57.2300   69.2910  129.5040 O.co2  68  ASP68      -0.2456
@<TRIPOS>BOND
     1   101   100    2
     2   100    99    1
     3    77    76    2
     4    76    75    1
     5    98    99    1
     6    89    88    2
     7    74    75    1
     8    75    78    1
     9    86    87    1
    10    99   102    1
    11    88    87    1
    12   102   103    1
    13    87    90    1
    14    78    79    1
    15   103   105   ar
    16   103   104   ar
    17     1     2    1
    18    90    91    1
    19    79    80   ar
    20    79    81   ar
    21    43    42    1
    22    43    44    2
    23    80    82   ar
    24     5     2    1
    25     5     6    1
    26    42    41    1
    27    42    45    1
    28    39    38    1
    29     2     3    1
    30    40    38    1
    31    35    38    1
    32    35    36    1
    33    35    34    1
    34    48    46   am
    35    81    83   ar
    36    36    37    2
    37    46    47    2
    38    46    45    1
    39    91    92   ar
    40    91    93   ar
    41    92    94   ar
    42    82    84   ar
    43    83    84   ar
    44    17    15    1
    45     3     7   am
    46     3     4    2
    47    84    85    1
    48    93    95   ar
    49     7     8    1
    50    14    15    2
    51    14    13    1
    52    94    96   ar
    53    15    16    1
    54    49    50    1
    55    23    22    1
    56    12    13    1
    57    12    11    1
    58    95    96   ar
    59    96    97    1
    60    71    72    1
    61    71    70    1
    62     8    11    1
    63     8     9    1
    64    72    73    1
    65    58    57    2
    66    18     9   am
    67    18    19    1
    68    22    19    1
    69    22    24    1
    70    68    67    2
    71    50    51    1
    72    50    53    1
    73    69    70    1
    74    69    66    1
    75    54    53    1
    76    51    52    2
    77     9    10    2
    78    19    20    1
    79    55    56    1
    80    62    64   ar
    81    62    60   ar
    82    67    66    1
    83    57    56    1
    84    65    66    1
    85    59    56    1
    86    59    60    1
    87    64    63   ar
    88    60    61   ar
    89    20    21    2
    90    63    61   ar
    91    32    31    2
    92    30    31    1
    93    30    29    1
    94    25    26    1
    95    26    29    1
    96    26    27    1
    97    31    33   am
    98    27    28    2
