@<TRIPOS>MOLECULE
tmp/2yiqA00.pdb
 184 169 0 0 0
SMALL
GASTEIGER

@<TRIPOS>ATOM
      1  N        -44.9910   32.1670    7.1720 N.3    16  LEU16      -0.1231
      2  CA       -44.0350   31.4650    6.3080 C.3    16  LEU16       0.1693
      3  C        -43.5180   30.1750    6.9350 C.2    16  LEU16       0.2592
      4  O        -43.3060   29.1930    6.2300 O.2    16  LEU16      -0.2718
      5  CB       -42.8590   32.3770    5.9240 C.3    16  LEU16       0.0284
      6  CG       -43.2660   33.5660    5.0430 C.3    16  LEU16       0.0019
      7  CD1      -42.1130   34.5200    4.8630 C.3    16  LEU16       0.0001
      8  CD2      -43.8280   33.1060    3.6800 C.3    16  LEU16       0.0001
      9  N        -43.3080   30.1990    8.2510 N.am   17  GLY17      -0.1957
     10  CA       -42.8190   29.0370    9.0140 C.3    17  GLY17       0.1869
     11  C        -43.2020   29.0990   10.4880 C.2    17  GLY17       0.2309
     12  O        -43.6160   30.1610   10.9950 O.2    17  GLY17      -0.2863
     13  N        -42.5200   32.9720   11.7270 N.3    20  VAL20      -0.1245
     14  CA       -42.0490   33.9380   10.7320 C.3    20  VAL20       0.1561
     15  C        -43.2200   34.2970    9.8320 C.2    20  VAL20       0.2260
     16  O        -43.8710   33.4210    9.2530 O.2    20  VAL20      -0.2867
     17  CB       -40.8520   33.4230    9.8850 C.3    20  VAL20       0.0252
     18  CG1      -40.3040   34.5560    9.0130 C.3    20  VAL20       0.0019
     19  CG2      -39.7600   32.8790   10.7830 C.3    20  VAL20       0.0019
     20  N        -39.5230   39.7600    5.9350 N.3    33  ALA33      -0.1245
     21  CA       -39.9140   38.6670    6.8070 C.3    33  ALA33       0.1562
     22  C        -39.8940   39.2080    8.2040 C.2    33  ALA33       0.2260
     23  O        -38.9780   39.9650    8.5830 O.2    33  ALA33      -0.2867
     24  CB       -38.9370   37.4970    6.6930 C.3    33  ALA33       0.0290
     25  N        -39.7650   38.0410   12.0760 N.3    35  LYS35      -0.1245
     26  CA       -39.5990   36.9760   13.0630 C.3    35  LYS35       0.1561
     27  C        -40.2350   37.4390   14.3660 C.2    35  LYS35       0.2260
     28  O        -39.8940   38.5010   14.8890 O.2    35  LYS35      -0.2867
     29  CB       -38.1130   36.6170   13.2540 C.3    35  LYS35       0.0271
     30  CG       -37.8470   35.6280   14.4350 C.3    35  LYS35       0.0035
     31  CD       -38.2060   34.1820   14.0830 C.3    35  LYS35       0.0206
     32  CE       -37.9180   33.2740   15.2910 C.3    35  LYS35       0.1093
     33  NZ       -38.4000   31.8820   15.1260 N.3    35  LYS35      -0.1314
     34  N        -40.7640   36.5610   18.2630 N.3    37  ILE37      -0.1245
     35  CA       -40.2640   35.7940   19.4000 C.3    37  ILE37       0.1561
     36  C        -41.1240   36.1420   20.6030 C.2    37  ILE37       0.2260
     37  O        -41.1800   37.2980   21.0240 O.2    37  ILE37      -0.2867
     38  CB       -38.7780   36.0980   19.6790 C.3    37  ILE37       0.0252
     39  CG1      -37.9320   35.7130   18.4560 C.3    37  ILE37       0.0019
     40  CG2      -38.2900   35.3420   20.9560 C.3    37  ILE37       0.0019
     41  CD1      -36.6610   36.5200   18.2930 C.3    37  ILE37       0.0001
     42  N        -32.1680   38.8440   23.4780 N.3    40  VAL40      -0.1245
     43  CA       -32.6880   39.3120   22.1880 C.3    40  VAL40       0.1561
     44  C        -32.0770   40.6900   21.9110 C.2    40  VAL40       0.2260
     45  O        -31.7280   41.0240   20.7830 O.2    40  VAL40      -0.2867
     46  CB       -34.2480   39.3850   22.1740 C.3    40  VAL40       0.0252
     47  CG1      -34.7660   39.9000   20.8220 C.3    40  VAL40       0.0019
     48  CG2      -34.8590   38.0260   22.4710 C.3    40  VAL40       0.0019
     49  N        -28.8250   40.1120   20.5050 N.3    43  GLU43      -0.1245
     50  CA       -28.9500   39.5990   19.1670 C.3    43  GLU43       0.1567
     51  C        -29.1270   40.7870   18.2030 C.2    43  GLU43       0.2260
     52  O        -28.4770   40.8610   17.1680 O.2    43  GLU43      -0.2867
     53  CB       -30.1290   38.6330   19.0890 C.3    43  GLU43       0.0388
     54  CG       -30.4530   38.1970   17.6660 C.3    43  GLU43       0.1160
     55  CD       -31.4580   37.0840   17.6370 C.2    43  GLU43       0.3649
     56  OE1      -32.1970   36.9160   18.6510 O.co2  43  GLU43      -0.2457
     57  OE2      -31.5070   36.3800   16.6050 O.co2  43  GLU43      -0.2457
     58  N        -26.7920   41.8060   15.1820 N.3    47  LEU47      -0.1245
     59  CA       -27.2760   41.8750   13.8010 C.3    47  LEU47       0.1561
     60  C        -27.0460   43.2410   13.1640 C.2    47  LEU47       0.2260
     61  O        -26.7210   43.3270   11.9660 O.2    47  LEU47      -0.2867
     62  CB       -28.7640   41.4960   13.6990 C.3    47  LEU47       0.0270
     63  CG       -29.0850   39.9830   13.7670 C.3    47  LEU47       0.0019
     64  CD1      -30.5770   39.7800   14.1090 C.3    47  LEU47       0.0001
     65  CD2      -28.7200   39.2580   12.4560 C.3    47  LEU47       0.0001
     66  N        -38.7460   41.0610   14.9460 N.3    69  ILE69      -0.1245
     67  CA       -37.5130   41.3590   14.2350 C.3    69  ILE69       0.1561
     68  C        -37.8480   41.3650   12.7590 C.2    69  ILE69       0.2260
     69  O        -38.2540   40.3380   12.1890 O.2    69  ILE69      -0.2867
     70  CB       -36.3800   40.3180   14.5460 C.3    69  ILE69       0.0252
     71  CG1      -36.1440   40.2140   16.0520 C.3    69  ILE69       0.0019
     72  CG2      -35.0860   40.7110   13.8340 C.3    69  ILE69       0.0019
     73  CD1      -35.1780   39.0220   16.4500 C.3    69  ILE69       0.0001
     74  N        -36.7010   41.4580    9.0070 N.3    71  LEU71      -0.1231
     75  CA       -35.5410   41.0160    8.2410 C.3    71  LEU71       0.1693
     76  C        -35.8200   41.0520    6.7560 C.2    71  LEU71       0.2592
     77  O        -36.9900   41.1300    6.3020 O.2    71  LEU71      -0.2718
     78  CB       -35.1430   39.5850    8.6360 C.3    71  LEU71       0.0284
     79  CG       -34.9150   39.4370   10.1540 C.3    71  LEU71       0.0019
     80  CD1      -35.1530   37.9880   10.5860 C.3    71  LEU71       0.0001
     81  CD2      -33.4880   39.8860   10.5700 C.3    71  LEU71       0.0001
     82  N        -34.7480   40.9960    5.9690 N.am   72  GLU72      -0.1966
     83  CA       -34.9280   40.7400    4.5390 C.3    72  GLU72       0.1733
     84  C        -35.5690   39.3470    4.3720 C.2    72  GLU72       0.2616
     85  O        -35.3290   38.4250    5.1810 O.2    72  GLU72      -0.2715
     86  CB       -33.5910   40.8370    3.7630 C.3    72  GLU72       0.0429
     87  CG       -32.3880   40.5530    4.6170 C.3    72  GLU72       0.1163
     88  CD       -31.0220   40.6270    3.8890 C.2    72  GLU72       0.3649
     89  OE1      -30.9370   41.0620    2.7170 O.co2  72  GLU72      -0.2457
     90  OE2      -30.0230   40.2580    4.5380 O.co2  72  GLU72      -0.2457
     91  N        -36.4300   39.2490    3.3740 N.am   73  LEU73      -0.1963
     92  CA       -37.1120   38.0140    3.0480 C.3    73  LEU73       0.1728
     93  C        -36.2170   37.1590    2.1570 C.2    73  LEU73       0.2616
     94  O        -35.7960   37.5870    1.0850 O.2    73  LEU73      -0.2715
     95  CB       -38.4200   38.2740    2.3090 C.3    73  LEU73       0.0311
     96  CG       -39.1380   36.9930    1.8360 C.3    73  LEU73       0.0022
     97  CD1      -39.5890   36.1530    3.0380 C.3    73  LEU73       0.0001
     98  CD2      -40.3060   37.3250    0.9660 C.3    73  LEU73       0.0001
     99  N        -35.9850   35.9480    2.5960 N.am   74  MET74      -0.1963
    100  CA       -35.2320   34.9990    1.8040 C.3    74  MET74       0.1736
    101  C        -36.2700   34.0550    1.2120 C.2    74  MET74       0.2616
    102  O        -36.8700   33.2490    1.9210 O.2    74  MET74      -0.2715
    103  CB       -34.1740   34.2890    2.6710 C.3    74  MET74       0.0427
    104  CG       -33.1490   35.2640    3.2380 C.3    74  MET74       0.0599
    105  SD       -32.0250   35.7270    1.9160 S.3    74  MET74      -0.1393
    106  CE       -30.9780   34.2760    1.8580 C.3    74  MET74       0.0692
    107  N        -36.4980   34.2080   -0.0940 N.am   75  GLU75      -0.1963
    108  CA       -37.5700   33.5040   -0.7850 C.3    75  GLU75       0.1733
    109  C        -37.4620   31.9790   -0.7800 C.2    75  GLU75       0.2617
    110  O        -38.4700   31.2850   -0.9520 O.2    75  GLU75      -0.2715
    111  CB       -37.6680   33.9880   -2.2460 C.3    75  GLU75       0.0429
    112  CG       -37.6030   35.5010   -2.4020 C.3    75  GLU75       0.1163
    113  CD       -38.9700   36.1150   -2.4240 C.2    75  GLU75       0.3649
    114  OE1      -39.8300   35.6370   -1.6480 O.co2  75  GLU75      -0.2457
    115  OE2      -39.1990   37.0520   -3.2230 O.co2  75  GLU75      -0.2457
    116  N        -36.2430   31.4660   -0.6290 N.am   76  GLY76      -0.1940
    117  CA       -35.9960   30.0240   -0.7430 C.3    76  GLY76       0.2014
    118  C        -36.3330   29.2470    0.5170 C.2    76  GLY76       0.2639
    119  O        -36.3070   28.0130    0.5160 O.2    76  GLY76      -0.2714
    120  N        -36.5970   29.9660    1.6130 N.am   77  GLY77      -0.1939
    121  CA       -36.9420   29.3090    2.8690 C.3    77  GLY77       0.2014
    122  C        -35.7150   28.7290    3.5660 C.2    77  GLY77       0.2638
    123  O        -34.5830   29.1500    3.3000 O.2    77  GLY77      -0.2714
    124  N        -35.9440   27.7630    4.4490 N.am   78  GLU78      -0.1977
    125  CA       -34.8660   27.2030    5.3140 C.3    78  GLU78       0.1602
    126  C        -34.1960   26.0310    4.6420 C.2    78  GLU78       0.2287
    127  O        -34.8730   25.2590    3.9500 O.2    78  GLU78      -0.2864
    128  CB       -35.4560   26.6040    6.5680 C.3    78  GLU78       0.0415
    129  CG       -36.0910   27.5410    7.5210 C.3    78  GLU78       0.1163
    130  CD       -36.7670   26.7690    8.6600 C.2    78  GLU78       0.3649
    131  OE1      -36.7780   25.4840    8.6960 O.co2  78  GLU78      -0.2457
    132  OE2      -37.3020   27.4580    9.5160 O.co2  78  GLU78      -0.2457
    133  N        -35.7010   22.3450    5.0500 N.3    81  ASP81      -0.1239
    134  CA       -36.7390   21.7910    4.1670 C.3    81  ASP81       0.1674
    135  C        -36.1690   21.1240    2.9150 C.2    81  ASP81       0.2266
    136  O        -36.8510   20.3220    2.2870 O.2    81  ASP81      -0.2867
    137  CB       -37.8280   22.8360    3.8710 C.3    81  ASP81       0.1410
    138  CG       -38.5160   23.3210    5.1560 C.2    81  ASP81       0.3668
    139  OD1      -39.3150   22.5470    5.7330 O.co2  81  ASP81      -0.2456
    140  OD2      -38.2230   24.4510    5.6240 O.co2  81  ASP81      -0.2456
    141  N        -32.1100   24.7420   10.1160 N.3   121  GLU121     -0.1231
    142  CA       -33.2440   25.6540   10.3090 C.3   121  GLU121      0.1699
    143  C        -32.8010   27.1010   10.2920 C.2   121  GLU121      0.2592
    144  O        -33.6100   27.9790    9.9880 O.2   121  GLU121     -0.2718
    145  CB       -33.9740   25.3620   11.6210 C.3   121  GLU121      0.0402
    146  CG       -34.5770   23.9460   11.6500 C.3   121  GLU121      0.1161
    147  CD       -33.6630   22.8860   12.3280 C.2   121  GLU121      0.3649
    148  OE1      -32.4530   22.7450   12.0120 O.co2 121  GLU121     -0.2457
    149  OE2      -34.1970   22.1600   13.1890 O.co2 121  GLU121     -0.2457
    150  N        -31.5140   27.3270   10.5840 N.am  122  ASN122     -0.1974
    151  CA       -30.9360   28.6790   10.6500 C.3   122  ASN122      0.1688
    152  C        -30.1120   29.0650    9.4470 C.2   122  ASN122      0.2292
    153  O        -29.4150   30.0680    9.4740 O.2   122  ASN122     -0.2864
    154  CB       -30.0880   28.8060   11.9180 C.3   122  ASN122      0.1181
    155  CG       -30.9270   28.9140   13.1200 C.2   122  ASN122      0.2629
    156  OD1      -32.1180   29.3230   13.0280 O.2   122  ASN122     -0.2716
    157  ND2      -30.3380   28.6010   14.2810 N.am  122  ASN122     -0.0877
    158  N        -30.7620   30.1560    5.6210 N.3   124  LEU124     -0.1245
    159  CA       -31.8370   30.5970    4.7090 C.3   124  LEU124      0.1561
    160  C        -31.3340   30.6790    3.2770 C.2   124  LEU124      0.2260
    161  O        -30.1790   31.0300    3.0270 O.2   124  LEU124     -0.2867
    162  CB       -32.3970   31.9730    5.1270 C.3   124  LEU124      0.0270
    163  CG       -32.8210   32.0740    6.6000 C.3   124  LEU124      0.0019
    164  CD1      -33.2710   33.4860    7.0010 C.3   124  LEU124      0.0001
    165  CD2      -33.8940   31.0590    6.8510 C.3   124  LEU124      0.0001
    166  N        -28.9110   32.9090   10.0140 N.3   137  THR137     -0.1203
    167  CA       -29.7210   33.7000   10.8980 C.3   137  THR137      0.1994
    168  C        -29.6840   33.1310   12.3330 C.2   137  THR137      0.2617
    169  O        -28.9980   32.1470   12.6250 O.2   137  THR137     -0.2717
    170  CB       -31.1880   33.7600   10.3440 C.3   137  THR137      0.1784
    171  OG1      -31.9410   34.7190   11.0980 O.3   137  THR137     -0.2211
    172  CG2      -31.8490   32.3540   10.4240 C.3   137  THR137      0.0376
    173  N        -30.3760   33.8320   13.2210 N.am  138  ASP138     -0.1973
    174  CA       -30.5860   33.4520   14.6240 C.3   138  ASP138      0.1709
    175  C        -29.3660   33.5520   15.5310 C.2   138  ASP138      0.2293
    176  O        -28.5980   32.5750   15.7190 O.2   138  ASP138     -0.2864
    177  CB       -31.2380   32.0770   14.7190 C.3   138  ASP138      0.1436
    178  CG       -31.4380   31.6500   16.1550 C.2   138  ASP138      0.3671
    179  OD1      -31.4540   32.5140   17.0690 O.co2 138  ASP138     -0.2456
    180  OD2      -31.5480   30.4290   16.3500 O.co2 138  ASP138     -0.2456
    181  N        -29.5870   34.2130   18.6690 N.3   140  GLY140     -0.1225
    182  CA       -30.2300   34.1930   19.9950 C.3   140  GLY140      0.1811
    183  C        -29.4080   33.5110   21.0850 C.2   140  GLY140      0.2280
    184  O        -29.6920   33.6980   22.2600 O.2   140  GLY140     -0.2866
@<TRIPOS>BOND
     1   115   113   ar
     2   113   112    1
     3   113   114   ar
     4   112   111    1
     5   111   108    1
     6   110   109    2
     7   108   109    1
     8   108   107    1
     9   109   116   am
    10   117   116    1
    11   117   118    1
    12   107   101   am
    13   119   118    2
    14   118   120   am
    15    98    96    1
    16    94    93    2
    17   101   100    1
    18   101   102    2
    19   120   121    1
    20   100    99    1
    21   100   103    1
    22    96    95    1
    23    96    97    1
    24   106   105    1
    25   105   104    1
    26    93    99   am
    27    93    92    1
    28   136   135    2
    29    95    92    1
    30   103   104    1
    31    89    88   ar
    32   121   122    1
    33   135   134    1
    34   161   160    2
    35    92    91    1
    36   160   159    1
    37   123   122    2
    38    91    84   am
    39   122   124   am
    40     8     6    1
    41    86    83    1
    42    86    87    1
    43   137   134    1
    44   137   138    1
    45    88    90   ar
    46    88    87    1
    47   127   126    2
    48   134   133    1
    49    84    83    1
    50    84    85    2
    51   124   125    1
    52    83    82    1
    53   126   125    1
    54   159   162    1
    55   159   158    1
    56     7     6    1
    57     6     5    1
    58   162   163    1
    59   138   140   ar
    60   138   139   ar
    61   125   128    1
    62     5     2    1
    63    20    21    1
    64    82    76   am
    65     4     3    2
    66    77    76    2
    67     2     3    1
    68     2     1    1
    69   128   129    1
    70   163   165    1
    71   163   164    1
    72    24    21    1
    73    76    75    1
    74    21    22    1
    75     3     9   am
    76   129   130    1
    77    22    23    2
    78    75    78    1
    79    75    74    1
    80     9    10    1
    81    78    79    1
    82   130   131   ar
    83   130   132   ar
    84    18    17    1
    85    10    11    1
    86    16    15    2
    87   152   153    2
    88   152   151    1
    89    15    14    1
    90    17    14    1
    91    17    19    1
    92   144   143    2
    93   166   167    1
    94   141   142    1
    95    79    81    1
    96    79    80    1
    97   143   142    1
    98   143   150   am
    99   142   145    1
   100   170   172    1
   101   170   167    1
   102   170   171    1
   103    11    12    2
   104   150   151    1
   105   151   154    1
   106    14    13    1
   107   167   168    1
   108   145   146    1
   109   146   147    1
   110   154   155    1
   111    61    60    2
   112   148   147   ar
   113    25    26    1
   114    69    68    2
   115   147   149   ar
   116   168   169    2
   117   168   173   am
   118    65    63    1
   119    68    67    1
   120   156   155    2
   121    26    29    1
   122    26    27    1
   123   155   157   am
   124    60    59    1
   125   173   174    1
   126    29    30    1
   127    62    63    1
   128    62    59    1
   129    63    64    1
   130    59    58    1
   131    72    70    1
   132    31    30    1
   133    31    32    1
   134    67    70    1
   135    67    66    1
   136    27    28    2
   137    70    71    1
   138   174   177    1
   139   174   175    1
   140   177   178    1
   141    33    32    1
   142   175   176    2
   143    71    73    1
   144   178   180   ar
   145   178   179   ar
   146    57    55   ar
   147    52    51    2
   148    55    54    1
   149    55    56   ar
   150    54    53    1
   151    51    50    1
   152    34    35    1
   153    41    39    1
   154    39    38    1
   155   181   182    1
   156    53    50    1
   157    50    49    1
   158    35    38    1
   159    35    36    1
   160    38    40    1
   161   182   183    1
   162    36    37    2
   163    45    44    2
   164    47    46    1
   165   183   184    2
   166    44    43    1
   167    46    43    1
   168    46    48    1
   169    43    42    1
