@<TRIPOS>MOLECULE
tmp/2yirA00.pdb
 210 191 0 0 0
SMALL
GASTEIGER

@<TRIPOS>ATOM
      1  N         51.0760   22.7260   -8.9210 N.3    17  LEU17      -0.1231
      2  CA        50.0090   22.1740   -9.7590 C.3    17  LEU17       0.1693
      3  C         48.6480   22.2420   -9.0580 C.2    17  LEU17       0.2592
      4  O         47.6130   22.2900   -9.7120 O.2    17  LEU17      -0.2718
      5  CB        50.3280   20.7250  -10.1400 C.3    17  LEU17       0.0284
      6  CG        51.5880   20.4890  -10.9870 C.3    17  LEU17       0.0019
      7  CD1       51.9700   19.0090  -10.9850 C.3    17  LEU17       0.0001
      8  CD2       51.3980   20.9970  -12.4040 C.3    17  LEU17       0.0001
      9  N         48.6530   22.2390   -7.7310 N.am   18  GLY18      -0.1957
     10  CA        47.4100   22.1730   -6.9610 C.3    18  GLY18       0.1869
     11  C         47.6320   22.4050   -5.4750 C.2    18  GLY18       0.2309
     12  O         48.7770   22.5200   -5.0160 O.2    18  GLY18      -0.2863
     13  N         45.9140   19.7560    3.5240 N.3    22  CYS22      -0.1235
     14  CA        47.1800   19.1520    3.9650 C.3    22  CYS22       0.1677
     15  C         48.4390   19.8290    3.3860 C.2    22  CYS22       0.2270
     16  O         49.4310   20.0020    4.0900 O.2    22  CYS22      -0.2867
     17  CB        47.1800   17.6620    3.5820 C.3    22  CYS22       0.0956
     18  SG        46.4060   17.3050    1.9450 S.3    22  CYS22      -0.0801
     19  N         50.5620   20.2460   -4.2440 N.3    25  VAL25      -0.1245
     20  CA        51.1430   19.3090   -5.1930 C.3    25  VAL25       0.1561
     21  C         52.0530   20.1170   -6.1260 C.2    25  VAL25       0.2260
     22  O         51.6190   21.1230   -6.7060 O.2    25  VAL25      -0.2867
     23  CB        50.0560   18.5750   -5.9990 C.3    25  VAL25       0.0252
     24  CG1       50.6740   17.5000   -6.8700 C.3    25  VAL25       0.0019
     25  CG2       49.0150   17.9610   -5.0610 C.3    25  VAL25       0.0019
     26  N         54.9250   14.2710  -10.2020 N.3    38  ALA38      -0.1245
     27  CA        54.2030   15.1020   -9.2540 C.3    38  ALA38       0.1562
     28  C         54.7290   14.7880   -7.8620 C.2    38  ALA38       0.2260
     29  O         55.0400   13.6210   -7.5530 O.2    38  ALA38      -0.2867
     30  CB        52.7350   14.8230   -9.3310 C.3    38  ALA38       0.0290
     31  N         53.5170   15.3580   -3.9410 N.3    40  LYS40      -0.1245
     32  CA        52.5230   15.7570   -2.9670 C.3    40  LYS40       0.1561
     33  C         53.1940   16.0370   -1.6250 C.2    40  LYS40       0.2260
     34  O         53.8850   15.1780   -1.0630 O.2    40  LYS40      -0.2867
     35  CB        51.4760   14.6510   -2.8050 C.3    40  LYS40       0.0271
     36  CG        50.4570   14.8970   -1.6890 C.3    40  LYS40       0.0035
     37  CD        49.5830   16.1000   -1.9670 C.3    40  LYS40       0.0206
     38  CE        48.4560   16.2100   -0.9410 C.3    40  LYS40       0.1093
     39  NZ        47.7720   17.5470   -0.9690 N.3    40  LYS40      -0.1314
     40  N         52.6800   16.8380    2.3110 N.3    42  ILE42      -0.1245
     41  CA        51.7700   16.7870    3.4590 C.3    42  ILE42       0.1561
     42  C         52.5540   17.2720    4.6860 C.2    42  ILE42       0.2260
     43  O         53.5460   16.6600    5.0750 O.2    42  ILE42      -0.2867
     44  CB        51.2270   15.3640    3.7160 C.3    42  ILE42       0.0252
     45  CG1       50.4960   14.8440    2.4800 C.3    42  ILE42       0.0019
     46  CG2       50.2960   15.3480    4.9550 C.3    42  ILE42       0.0019
     47  CD1       50.1680   13.3850    2.5440 C.3    42  ILE42       0.0001
     48  N         50.8790    8.9950    7.6680 N.3    47  VAL47      -0.1245
     49  CA        51.2380    8.9480    6.2620 C.3    47  VAL47       0.1561
     50  C         52.0890    7.7230    5.8870 C.2    47  VAL47       0.2260
     51  O         51.8420    7.1070    4.8600 O.2    47  VAL47      -0.2867
     52  CB        51.8920   10.2570    5.8120 C.3    47  VAL47       0.0252
     53  CG1       52.3580   10.1570    4.3510 C.3    47  VAL47       0.0019
     54  CG2       50.8920   11.4080    5.9800 C.3    47  VAL47       0.0019
     55  N         49.8970    4.8440    5.3130 N.3    50  GLU50      -0.1231
     56  CA        49.1930    5.0770    4.0500 C.3    50  GLU50       0.1699
     57  C         50.0930    4.7260    2.8710 C.2    50  GLU50       0.2592
     58  O         49.6940    4.0120    1.9700 O.2    50  GLU50      -0.2718
     59  CB        48.7410    6.5410    3.9530 C.3    50  GLU50       0.0402
     60  CG        48.1620    6.9340    2.5990 C.3    50  GLU50       0.1161
     61  CD        47.7110    8.3920    2.5360 C.2    50  GLU50       0.3649
     62  OE1       47.7810    9.1160    3.5590 O.co2  50  GLU50      -0.2457
     63  OE2       47.3050    8.8190    1.4380 O.co2  50  GLU50      -0.2457
     64  N         51.3270    5.2270    2.8890 N.am   51  ILE51      -0.1980
     65  CA        52.2880    4.9200    1.8320 C.3    51  ILE51       0.1595
     66  C         52.5360    3.4000    1.7420 C.2    51  ILE51       0.2287
     67  O         52.6030    2.8370    0.6480 O.2    51  ILE51      -0.2864
     68  CB        53.6380    5.7070    2.0320 C.3    51  ILE51       0.0276
     69  CG1       53.4050    7.2240    1.9140 C.3    51  ILE51       0.0022
     70  CG2       54.6950    5.2550    1.0300 C.3    51  ILE51       0.0022
     71  CD1       52.3730    7.6350    0.8430 C.3    51  ILE51       0.0001
     72  N         49.6520    1.8600   -0.0720 N.3    54  LEU54      -0.1245
     73  CA        49.6910    2.1460   -1.4990 C.3    54  LEU54       0.1561
     74  C         50.8470    1.4290   -2.2280 C.2    54  LEU54       0.2260
     75  O         50.7240    1.1080   -3.4130 O.2    54  LEU54      -0.2867
     76  CB        49.7480    3.6440   -1.7400 C.3    54  LEU54       0.0270
     77  CG        48.4000    4.3580   -1.6450 C.3    54  LEU54       0.0019
     78  CD1       48.6370    5.8670   -1.5380 C.3    54  LEU54       0.0001
     79  CD2       47.5090    4.0030   -2.8540 C.3    54  LEU54       0.0001
     80  N         46.4570    5.1240   -7.7870 N.3    63  ILE63      -0.1245
     81  CA        47.7070    5.8460   -7.8540 C.3    63  ILE63       0.1561
     82  C         48.8730    5.0290   -7.2700 C.2    63  ILE63       0.2260
     83  O         48.7040    4.3530   -6.2450 O.2    63  ILE63      -0.2867
     84  CB        47.5200    7.2300   -7.1600 C.3    63  ILE63       0.0252
     85  CG1       48.2640    8.3100   -7.9190 C.3    63  ILE63       0.0019
     86  CG2       47.8720    7.1930   -5.6640 C.3    63  ILE63       0.0019
     87  CD1       47.6970    8.5750   -9.2860 C.3    63  ILE63       0.0001
     88  N         53.0380    4.9250   -5.9350 N.3    65  ILE65      -0.1245
     89  CA        54.0200    5.7710   -5.2780 C.3    65  ILE65       0.1561
     90  C         55.3630    5.4940   -5.9170 C.2    65  ILE65       0.2260
     91  O         55.7620    4.3500   -5.9950 O.2    65  ILE65      -0.2867
     92  CB        54.1270    5.4680   -3.7690 C.3    65  ILE65       0.0252
     93  CG1       52.7820    5.7070   -3.0760 C.3    65  ILE65       0.0019
     94  CG2       55.1980    6.3320   -3.1200 C.3    65  ILE65       0.0019
     95  CD1       52.0820    7.0170   -3.4960 C.3    65  ILE65       0.0001
     96  N         55.6670   13.0430   -1.2280 N.3    76  ILE76      -0.1245
     97  CA        55.2990   11.8080   -1.9080 C.3    76  ILE76       0.1561
     98  C         55.4130   12.0170   -3.4120 C.2    76  ILE76       0.2260
     99  O         54.7320   12.8730   -3.9710 O.2    76  ILE76      -0.2867
    100  CB        53.8520   11.4020   -1.5650 C.3    76  ILE76       0.0252
    101  CG1       53.6790   11.2760   -0.0530 C.3    76  ILE76       0.0019
    102  CG2       53.4790   10.1110   -2.2860 C.3    76  ILE76       0.0019
    103  CD1       52.2230   11.3000    0.3900 C.3    76  ILE76       0.0001
    104  N         54.8630   10.8260   -7.2360 N.3    78  LEU78      -0.1231
    105  CA        54.0360    9.9490   -8.0810 C.3    78  LEU78       0.1693
    106  C         54.0370   10.4060   -9.5140 C.2    78  LEU78       0.2592
    107  O         54.5430   11.4990   -9.8220 O.2    78  LEU78      -0.2718
    108  CB        52.5840    9.8380   -7.5850 C.3    78  LEU78       0.0284
    109  CG        51.7460   10.8880   -6.8070 C.3    78  LEU78       0.0019
    110  CD1       52.2440   12.2980   -6.8130 C.3    78  LEU78       0.0001
    111  CD2       50.2910   10.8340   -7.3040 C.3    78  LEU78       0.0001
    112  N         53.4740    9.5730  -10.3950 N.am   79  GLU79      -0.1966
    113  CA        53.3670    9.9560  -11.7920 C.3    79  GLU79       0.1733
    114  C         52.4600   11.1580  -11.9020 C.2    79  GLU79       0.2616
    115  O         51.5780   11.3660  -11.0880 O.2    79  GLU79      -0.2715
    116  CB        52.8400    8.8240  -12.7000 C.3    79  GLU79       0.0429
    117  CG        53.8860    7.7990  -13.1530 C.3    79  GLU79       0.1163
    118  CD        55.1000    8.3910  -13.8870 C.2    79  GLU79       0.3649
    119  OE1       55.1340    9.6110  -14.2180 O.co2  79  GLU79      -0.2457
    120  OE2       56.0350    7.6030  -14.1480 O.co2  79  GLU79      -0.2457
    121  N         52.7020   11.9360  -12.9360 N.am   80  LEU80      -0.1963
    122  CA        51.9520   13.1350  -13.2040 C.3    80  LEU80       0.1728
    123  C         50.5610   12.7530  -13.7180 C.2    80  LEU80       0.2616
    124  O         50.4270   11.8840  -14.5730 O.2    80  LEU80      -0.2715
    125  CB        52.7070   13.9480  -14.2430 C.3    80  LEU80       0.0311
    126  CG        52.4120   15.4360  -14.3970 C.3    80  LEU80       0.0022
    127  CD1       52.7620   16.2040  -13.1310 C.3    80  LEU80       0.0001
    128  CD2       53.1790   15.9630  -15.5980 C.3    80  LEU80       0.0001
    129  N         49.5300   13.3800  -13.1770 N.am   81  MET81      -0.1963
    130  CA        48.1760   13.1490  -13.6500 C.3    81  MET81       0.1736
    131  C         47.7190   14.4820  -14.1850 C.2    81  MET81       0.2616
    132  O         47.1340   15.2870  -13.4750 O.2    81  MET81      -0.2715
    133  CB        47.2880   12.6470  -12.5140 C.3    81  MET81       0.0427
    134  CG        47.6900   11.2510  -12.0200 C.3    81  MET81       0.0599
    135  SD        47.3950    9.9310  -13.2340 S.3    81  MET81      -0.1393
    136  CE        45.5910   10.0100  -13.3240 C.3    81  MET81       0.0692
    137  N         48.0260   14.7040  -15.4570 N.am   82  GLU82      -0.1977
    138  CA        47.9370   16.0270  -16.0470 C.3    82  GLU82       0.1602
    139  C         46.5240   16.5330  -16.1870 C.2    82  GLU82       0.2287
    140  O         46.3220   17.7290  -16.3270 O.2    82  GLU82      -0.2864
    141  CB        48.6260   16.0540  -17.4210 C.3    82  GLU82       0.0415
    142  CG        50.1090   16.2950  -17.3290 C.3    82  GLU82       0.1163
    143  CD        50.7800   16.2210  -18.6740 C.2    82  GLU82       0.3649
    144  OE1       50.8550   15.0970  -19.2200 O.co2  82  GLU82      -0.2457
    145  OE2       51.2310   17.2750  -19.1770 O.co2  82  GLU82      -0.2457
    146  N         44.4080   16.5630  -13.8510 N.3    84  GLY84      -0.1210
    147  CA        44.0050   17.1370  -12.5690 C.3    84  GLY84       0.1956
    148  C         42.8770   16.3790  -11.8940 C.2    84  GLY84       0.2611
    149  O         42.6280   15.1940  -12.1740 O.2    84  GLY84      -0.2717
    150  N         42.1870   17.0650  -10.9940 N.am   85  GLU85      -0.1979
    151  CA        41.1470   16.4400  -10.1880 C.3    85  GLU85       0.1602
    152  C         39.8280   16.4020  -10.9600 C.2    85  GLU85       0.2287
    153  O         39.5040   17.3410  -11.7070 O.2    85  GLU85      -0.2864
    154  CB        40.9310   17.2150   -8.8820 C.3    85  GLU85       0.0415
    155  CG        42.0730   17.1700   -7.8850 C.3    85  GLU85       0.1163
    156  CD        41.8380   18.0780   -6.6840 C.2    85  GLU85       0.3649
    157  OE1       40.7190   18.6250   -6.5320 O.co2  85  GLU85      -0.2457
    158  OE2       42.7730   18.2490   -5.8720 O.co2  85  GLU85      -0.2457
    159  N         37.3520   19.5510  -10.6020 N.3    88  ASP88      -0.1239
    160  CA        37.3660   20.7030  -11.5040 C.3    88  ASP88       0.1674
    161  C         36.4970   20.5260  -12.7400 C.2    88  ASP88       0.2266
    162  O         36.1830   21.5040  -13.4060 O.2    88  ASP88      -0.2867
    163  CB        38.8010   21.0190  -11.9190 C.3    88  ASP88       0.1410
    164  CG        39.6660   21.4080  -10.7330 C.2    88  ASP88       0.3668
    165  OD1       39.5050   22.5350  -10.2220 O.co2  88  ASP88      -0.2456
    166  OD2       40.4830   20.5770  -10.2890 O.co2  88  ASP88      -0.2456
    167  N         37.5120   15.2820   -5.5710 N.3   128  GLU128     -0.1231
    168  CA        38.8690   15.7980   -5.3410 C.3   128  GLU128      0.1699
    169  C         39.9060   14.6770   -5.2310 C.2   128  GLU128      0.2592
    170  O         41.1030   14.9270   -5.4630 O.2   128  GLU128     -0.2718
    171  CB        38.9670   16.7620   -4.1390 C.3   128  GLU128      0.0402
    172  CG        37.9400   16.5930   -3.0420 C.3   128  GLU128      0.1161
    173  CD        36.6200   17.2690   -3.3650 C.2   128  GLU128      0.3649
    174  OE1       36.5560   18.5120   -3.2760 O.co2 128  GLU128     -0.2457
    175  OE2       35.6600   16.5590   -3.7010 O.co2 128  GLU128     -0.2457
    176  N         39.4440   13.4550   -4.9360 N.am  129  ASN129     -0.1974
    177  CA        40.3380   12.2920   -4.7960 C.3   129  ASN129      0.1688
    178  C         40.3110   11.3400   -5.9890 C.2   129  ASN129      0.2292
    179  O         40.7870   10.2100   -5.9040 O.2   129  ASN129     -0.2864
    180  CB        40.0330   11.5650   -3.4780 C.3   129  ASN129      0.1181
    181  CG        40.3410   12.4310   -2.2860 C.2   129  ASN129      0.2629
    182  OD1       41.0690   13.4130   -2.4110 O.2   129  ASN129     -0.2716
    183  ND2       39.7990   12.0940   -1.1400 N.am  129  ASN129     -0.0877
    184  N         41.8150   11.4760   -9.8330 N.3   131  LEU131     -0.1245
    185  CA        42.7440   12.1920  -10.6910 C.3   131  LEU131      0.1561
    186  C         42.6010   11.6930  -12.1290 C.2   131  LEU131      0.2260
    187  O         42.3290   10.5000  -12.3640 O.2   131  LEU131     -0.2867
    188  CB        44.1850   11.9730  -10.2010 C.3   131  LEU131      0.0270
    189  CG        44.5240   12.4170   -8.7680 C.3   131  LEU131      0.0019
    190  CD1       45.9770   12.0330   -8.4220 C.3   131  LEU131      0.0001
    191  CD2       44.3150   13.9330   -8.5750 C.3   131  LEU131      0.0001
    192  N         43.0830    8.4810   -5.4710 N.3   144  THR144     -0.1203
    193  CA        44.1660    8.8730   -4.5810 C.3   144  THR144      0.1994
    194  C         43.6610    9.1510   -3.1580 C.2   144  THR144      0.2617
    195  O         42.4820    8.9530   -2.8520 O.2   144  THR144     -0.2717
    196  CB        44.9010   10.1060   -5.1380 C.3   144  THR144      0.1784
    197  OG1       46.1670   10.2450   -4.4770 O.3   144  THR144     -0.2211
    198  CG2       44.0550   11.3870   -4.9480 C.3   144  THR144      0.0376
    199  N         44.5830    9.5780   -2.2960 N.am  145  ASP145     -0.1973
    200  CA        44.3180    9.9740   -0.9020 C.3   145  ASP145      0.1709
    201  C         43.7160    8.8560   -0.0510 C.2   145  ASP145      0.2293
    202  O         42.4920    8.7420    0.1200 O.2   145  ASP145     -0.2864
    203  CB        43.4580   11.2390   -0.8030 C.3   145  ASP145      0.1436
    204  CG        43.3520   11.7770    0.6410 C.2   145  ASP145      0.3671
    205  OD1       43.9370   11.1920    1.5790 O.co2 145  ASP145     -0.2456
    206  OD2       42.6940   12.8130    0.8430 O.co2 145  ASP145     -0.2456
    207  N         44.3920    8.5770    3.1750 N.3   147  GLY147     -0.1225
    208  CA        44.5970    9.0410    4.5510 C.3   147  GLY147      0.1811
    209  C         43.5050    8.6260    5.5270 C.2   147  GLY147      0.2280
    210  O         43.7470    8.6090    6.7270 O.2   147  GLY147     -0.2866
@<TRIPOS>BOND
     1   144   143   ar
     2   145   143   ar
     3   143   142    1
     4   141   142    1
     5   141   138    1
     6   140   139    2
     7   139   138    1
     8   138   137    1
     9   128   126    1
    10   137   131   am
    11   124   123    2
    12   126   125    1
    13   126   127    1
    14   125   122    1
    15   119   118   ar
    16   131   130    1
    17   131   132    2
    18   120   118   ar
    19   118   117    1
    20   146   147    1
    21   123   122    1
    22   123   129   am
    23   130   129    1
    24   130   133    1
    25   162   161    2
    26   136   135    1
    27   135   134    1
    28   122   121    1
    29   117   116    1
    30   121   114   am
    31   161   160    1
    32   116   113    1
    33   147   148    1
    34   133   134    1
    35     8     6    1
    36   187   186    2
    37   149   148    2
    38   186   185    1
    39   163   160    1
    40   163   164    1
    41   114   113    1
    42   114   115    2
    43   148   150   am
    44   113   112    1
    45   153   152    2
    46   160   159    1
    47   150   151    1
    48     6     7    1
    49     6     5    1
    50   152   151    1
    51   164   166   ar
    52   164   165   ar
    53   185   188    1
    54   185   184    1
    55   112   106   am
    56    26    27    1
    57   188   189    1
    58   151   154    1
    59     5     2    1
    60   107   106    2
    61     2     3    1
    62     2     1    1
    63     4     3    2
    64   106   105    1
    65    30    27    1
    66    87    85    1
    67    27    28    1
    68     3     9   am
    69   154   155    1
    70   189   191    1
    71   189   190    1
    72   105   108    1
    73   105   104    1
    74    85    84    1
    75   155   156    1
    76    28    29    2
    77    81    80    1
    78    81    82    1
    79    81    84    1
    80     9    10    1
    81   108   109    1
    82   111   109    1
    83    82    83    2
    84    84    86    1
    85    10    11    1
    86    24    23    1
    87   110   109    1
    88    22    21    2
    89   156   157   ar
    90   156   158   ar
    91    21    20    1
    92    23    20    1
    93    23    25    1
    94    91    90    2
    95   178   179    2
    96   178   177    1
    97    88    89    1
    98    90    89    1
    99   167   168    1
   100    11    12    2
   101   192   193    1
   102   170   169    2
   103   168   169    1
   104   168   171    1
   105    89    92    1
   106   169   176   am
   107    20    19    1
   108   196   198    1
   109   196   193    1
   110   196   197    1
   111   176   177    1
   112   177   180    1
   113   193   194    1
   114   171   172    1
   115    99    98    2
   116    31    32    1
   117    92    94    1
   118    92    93    1
   119   175   173   ar
   120    95    93    1
   121   180   181    1
   122    75    74    2
   123    98    97    1
   124   173   174   ar
   125   173   172    1
   126   194   195    2
   127   194   199   am
   128    32    35    1
   129    32    33    1
   130    79    77    1
   131    35    36    1
   132   182   181    2
   133   199   200    1
   134   102   100    1
   135   181   183   am
   136    74    73    1
   137    37    36    1
   138    37    38    1
   139    97   100    1
   140    97    96    1
   141    76    77    1
   142    76    73    1
   143    77    78    1
   144    33    34    2
   145   100   101    1
   146    73    72    1
   147    39    38    1
   148   200   203    1
   149   200   201    1
   150   203   204    1
   151   101   103    1
   152   201   202    2
   153   204   206   ar
   154   204   205   ar
   155    67    66    2
   156    71    69    1
   157    70    68    1
   158    63    61   ar
   159    66    65    1
   160    65    68    1
   161    65    64    1
   162    69    68    1
   163    18    17    1
   164    58    57    2
   165    40    41    1
   166    45    47    1
   167    45    44    1
   168    61    60    1
   169    61    62   ar
   170    60    59    1
   171    57    64   am
   172    57    56    1
   173   207   208    1
   174    15    14    1
   175    15    16    2
   176    41    44    1
   177    41    42    1
   178    13    14    1
   179    17    14    1
   180    44    46    1
   181    59    56    1
   182    56    55    1
   183    53    52    1
   184   208   209    1
   185    42    43    2
   186    51    50    2
   187   209   210    2
   188    52    54    1
   189    52    49    1
   190    50    49    1
   191    49    48    1
