@<TRIPOS>MOLECULE
tmp/2yitA00.pdb
 217 199 0 0 0
SMALL
GASTEIGER

@<TRIPOS>ATOM
      1  N         50.9450  -22.7120   -7.4440 N.3    16  LEU16      -0.1231
      2  CA        49.8680  -22.2600   -6.5590 C.3    16  LEU16       0.1693
      3  C         48.5220  -22.3380   -7.2730 C.2    16  LEU16       0.2592
      4  O         47.4860  -22.5750   -6.6570 O.2    16  LEU16      -0.2718
      5  CB        50.1330  -20.8190   -6.1090 C.3    16  LEU16       0.0284
      6  CG        51.3670  -20.5920   -5.2250 C.3    16  LEU16       0.0019
      7  CD1       51.7240  -19.1030   -5.1230 C.3    16  LEU16       0.0001
      8  CD2       51.1470  -21.2020   -3.8460 C.3    16  LEU16       0.0001
      9  N         48.5550  -22.1010   -8.5780 N.am   17  GLY17      -0.1957
     10  CA        47.3890  -22.2300   -9.4550 C.3    17  GLY17       0.1869
     11  C         47.8930  -22.3890  -10.8800 C.2    17  GLY17       0.2309
     12  O         49.0680  -22.1400  -11.1610 O.2    17  GLY17      -0.2863
     13  N         50.6360  -19.8330  -12.1000 N.3    24  VAL24      -0.1245
     14  CA        51.2070  -19.0160  -11.0360 C.3    24  VAL24       0.1561
     15  C         52.0320  -19.8820  -10.0800 C.2    24  VAL24       0.2260
     16  O         51.5160  -20.8570   -9.5130 O.2    24  VAL24      -0.2867
     17  CB        50.1310  -18.2810  -10.2330 C.3    24  VAL24       0.0252
     18  CG1       50.7850  -17.4340   -9.1530 C.3    24  VAL24       0.0019
     19  CG2       49.2880  -17.4130  -11.1280 C.3    24  VAL24       0.0019
     20  N         54.9330  -14.1180   -5.7870 N.3    37  ALA37      -0.1245
     21  CA        54.1890  -14.9160   -6.7480 C.3    37  ALA37       0.1562
     22  C         54.7860  -14.5920   -8.1080 C.2    37  ALA37       0.2260
     23  O         55.1160  -13.4280   -8.3730 O.2    37  ALA37      -0.2867
     24  CB        52.7400  -14.5460   -6.7170 C.3    37  ALA37       0.0290
     25  N         53.7230  -15.0720  -12.1040 N.3    39  LYS39      -0.1245
     26  CA        52.7440  -15.4500  -13.1020 C.3    39  LYS39       0.1561
     27  C         53.4850  -15.7580  -14.4120 C.2    39  LYS39       0.2260
     28  O         54.2660  -14.9410  -14.9150 O.2    39  LYS39      -0.2867
     29  CB        51.7240  -14.3200  -13.2770 C.3    39  LYS39       0.0271
     30  CG        50.7080  -14.5340  -14.3790 C.3    39  LYS39       0.0035
     31  CD        49.6660  -15.6080  -14.0590 C.3    39  LYS39       0.0206
     32  CE        48.7140  -15.7640  -15.2690 C.3    39  LYS39       0.1093
     33  NZ        47.6200  -16.7650  -15.0670 N.3    39  LYS39      -0.1314
     34  N         52.9920  -16.5560  -18.3290 N.3    41  ILE41      -0.1245
     35  CA        52.0740  -16.5010  -19.4700 C.3    41  ILE41       0.1561
     36  C         52.8070  -16.9320  -20.7450 C.2    41  ILE41       0.2260
     37  O         53.7980  -16.3210  -21.1360 O.2    41  ILE41      -0.2867
     38  CB        51.5010  -15.0900  -19.6710 C.3    41  ILE41       0.0252
     39  CG1       50.6810  -14.6700  -18.4460 C.3    41  ILE41       0.0019
     40  CG2       50.6430  -15.0290  -20.9610 C.3    41  ILE41       0.0019
     41  CD1       50.3520  -13.1840  -18.4050 C.3    41  ILE41       0.0001
     42  N         51.0060   -8.7280  -23.2870 N.3    46  VAL46      -0.1245
     43  CA        51.4170   -8.6390  -21.9050 C.3    46  VAL46       0.1561
     44  C         52.1690   -7.3330  -21.6490 C.2    46  VAL46       0.2260
     45  O         51.9400   -6.6730  -20.6370 O.2    46  VAL46      -0.2867
     46  CB        52.2550   -9.8630  -21.5130 C.3    46  VAL46       0.0252
     47  CG1       52.7860   -9.7180  -20.1060 C.3    46  VAL46       0.0019
     48  CG2       51.4100  -11.1220  -21.6460 C.3    46  VAL46       0.0019
     49  N         49.7440   -4.5840  -20.9950 N.3    49  GLU49      -0.1231
     50  CA        49.1790   -4.8560  -19.6630 C.3    49  GLU49       0.1699
     51  C         50.1640   -4.4050  -18.5790 C.2    49  GLU49       0.2592
     52  O         49.7740   -3.7740  -17.5980 O.2    49  GLU49      -0.2718
     53  CB        48.8380   -6.3470  -19.4950 C.3    49  GLU49       0.0402
     54  CG        48.3140   -6.7520  -18.1090 C.3    49  GLU49       0.1161
     55  CD        47.8990   -8.2170  -18.0250 C.2    49  GLU49       0.3649
     56  OE1       48.0240   -8.9550  -19.0250 O.co2  49  GLU49      -0.2457
     57  OE2       47.4340   -8.6480  -16.9530 O.co2  49  GLU49      -0.2457
     58  N         51.4410   -4.7370  -18.7500 N.am   50  ILE50      -0.1980
     59  CA        52.4650   -4.3220  -17.7840 C.3    50  ILE50       0.1595
     60  C         52.5080   -2.7890  -17.6800 C.2    50  ILE50       0.2287
     61  O         52.5200   -2.2460  -16.5790 O.2    50  ILE50      -0.2864
     62  CB        53.8970   -4.8560  -18.1620 C.3    50  ILE50       0.0276
     63  CG1       53.9720   -6.3900  -18.0880 C.3    50  ILE50       0.0022
     64  CG2       54.9710   -4.2420  -17.2770 C.3    50  ILE50       0.0022
     65  CD1       53.4860   -6.9800  -16.8060 C.3    50  ILE50       0.0001
     66  N         49.6110   -1.3650  -15.6870 N.3    53  LEU53      -0.1245
     67  CA        49.7130   -1.6070  -14.2630 C.3    53  LEU53       0.1561
     68  C         50.8510   -0.8270  -13.5550 C.2    53  LEU53       0.2260
     69  O         50.7180   -0.4770  -12.3690 O.2    53  LEU53      -0.2867
     70  CB        49.8300   -3.1080  -14.0040 C.3    53  LEU53       0.0270
     71  CG        48.5110   -3.8860  -14.1420 C.3    53  LEU53       0.0019
     72  CD1       48.7950   -5.4150  -14.0670 C.3    53  LEU53       0.0001
     73  CD2       47.4940   -3.4320  -13.0890 C.3    53  LEU53       0.0001
     74  N         46.7100   -4.9850   -8.1370 N.3    62  ILE62      -0.1245
     75  CA        48.0630   -5.5630   -8.0990 C.3    62  ILE62       0.1561
     76  C         49.1240   -4.6590   -8.7010 C.2    62  ILE62       0.2260
     77  O         48.8480   -3.8560   -9.6110 O.2    62  ILE62      -0.2867
     78  CB        48.1800   -6.9440   -8.8060 C.3    62  ILE62       0.0252
     79  CG1       47.6560   -6.8770  -10.2460 C.3    62  ILE62       0.0019
     80  CG2       47.4480   -7.9920   -7.9960 C.3    62  ILE62       0.0019
     81  CD1       48.5090   -7.6780  -11.2660 C.3    62  ILE62       0.0001
     82  N         53.2820   -4.5870  -10.1740 N.3    64  ILE64      -0.1245
     83  CA        54.2880   -5.4060  -10.8000 C.3    64  ILE64       0.1561
     84  C         55.6060   -5.1370  -10.0920 C.2    64  ILE64       0.2260
     85  O         56.0340   -3.9820  -10.0300 O.2    64  ILE64      -0.2867
     86  CB        54.4820   -5.0520  -12.2830 C.3    64  ILE64       0.0252
     87  CG1       53.1560   -5.1160  -13.0620 C.3    64  ILE64       0.0019
     88  CG2       55.5400   -5.9870  -12.8960 C.3    64  ILE64       0.0019
     89  CD1       52.4900   -6.4690  -12.9750 C.3    64  ILE64       0.0001
     90  N         55.9960  -12.7420  -14.8010 N.3    75  ILE75      -0.1245
     91  CA        55.6510  -11.4990  -14.1110 C.3    75  ILE75       0.1561
     92  C         55.7040  -11.7300  -12.6000 C.2    75  ILE75       0.2260
     93  O         54.9820  -12.5850  -12.0710 O.2    75  ILE75      -0.2867
     94  CB        54.2530  -10.9770  -14.4860 C.3    75  ILE75       0.0252
     95  CG1       54.1360  -10.7710  -16.0060 C.3    75  ILE75       0.0019
     96  CG2       53.9350   -9.6560  -13.7590 C.3    75  ILE75       0.0019
     97  CD1       53.1560  -11.6840  -16.6580 C.3    75  ILE75       0.0001
     98  N         54.9670  -10.5430   -8.8010 N.3    77  LEU77      -0.1231
     99  CA        54.2100   -9.6370   -7.9250 C.3    77  LEU77       0.1693
    100  C         54.2040  -10.1000   -6.4700 C.2    77  LEU77       0.2592
    101  O         54.6400  -11.1980   -6.1620 O.2    77  LEU77      -0.2718
    102  CB        52.7630   -9.4720   -8.3990 C.3    77  LEU77       0.0284
    103  CG        51.9140  -10.7300   -8.6030 C.3    77  LEU77       0.0019
    104  CD1       50.3970  -10.4360   -8.3360 C.3    77  LEU77       0.0001
    105  CD2       52.1640  -11.2930  -10.0220 C.3    77  LEU77       0.0001
    106  N         53.6730   -9.2650   -5.5810 N.am   78  GLU78      -0.1966
    107  CA        53.5920   -9.6210   -4.1660 C.3    78  GLU78       0.1733
    108  C         52.6470  -10.8060   -4.0590 C.2    78  GLU78       0.2616
    109  O         51.7000  -10.8880   -4.8040 O.2    78  GLU78      -0.2715
    110  CB        53.1210   -8.4370   -3.2960 C.3    78  GLU78       0.0429
    111  CG        54.2040   -7.3550   -3.0220 C.3    78  GLU78       0.1163
    112  CD        55.4060   -7.8530   -2.2030 C.2    78  GLU78       0.3649
    113  OE1       55.2510   -8.8120   -1.4130 O.co2  78  GLU78      -0.2457
    114  OE2       56.5150   -7.2850   -2.3400 O.co2  78  GLU78      -0.2457
    115  N         52.9600  -11.7460   -3.1780 N.am   79  LEU79      -0.1963
    116  CA        52.1480  -12.9330   -2.9870 C.3    79  LEU79       0.1728
    117  C         50.8480  -12.5920   -2.2330 C.2    79  LEU79       0.2616
    118  O         50.8850  -11.9960   -1.1690 O.2    79  LEU79      -0.2715
    119  CB        52.9370  -13.9860   -2.2000 C.3    79  LEU79       0.0311
    120  CG        52.2330  -15.3020   -1.8600 C.3    79  LEU79       0.0022
    121  CD1       51.7990  -16.0510   -3.1260 C.3    79  LEU79       0.0001
    122  CD2       53.1310  -16.1720   -0.9750 C.3    79  LEU79       0.0001
    123  N         49.7100  -12.9800   -2.7940 N.am   80  MET80      -0.1963
    124  CA        48.4250  -12.8630   -2.1070 C.3    80  MET80       0.1736
    125  C         48.1190  -14.2260   -1.5140 C.2    80  MET80       0.2616
    126  O         47.6740  -15.1290   -2.2150 O.2    80  MET80      -0.2715
    127  CB        47.3340  -12.4130   -3.0780 C.3    80  MET80       0.0427
    128  CG        47.5630  -11.0010   -3.6460 C.3    80  MET80       0.0599
    129  SD        47.4250   -9.7270   -2.3850 S.3    80  MET80      -0.1393
    130  CE        45.6250   -9.7230   -2.1760 C.3    80  MET80       0.0692
    131  N         48.3780  -14.3640   -0.2150 N.am   81  GLU81      -0.1963
    132  CA        48.4480  -15.6720    0.4070 C.3    81  GLU81       0.1733
    133  C         47.0610  -16.3040    0.5020 C.2    81  GLU81       0.2617
    134  O         46.9470  -17.5130    0.6380 O.2    81  GLU81      -0.2715
    135  CB        49.1210  -15.5900    1.7880 C.3    81  GLU81       0.0429
    136  CG        50.5950  -15.0760    1.7540 C.3    81  GLU81       0.1163
    137  CD        51.4390  -15.5620    2.9290 C.2    81  GLU81       0.3649
    138  OE1       50.8600  -15.9930    3.9530 O.co2  81  GLU81      -0.2457
    139  OE2       52.6990  -15.5300    2.8390 O.co2  81  GLU81      -0.2457
    140  N         46.0140  -15.4890    0.3980 N.am   82  GLY82      -0.1940
    141  CA        44.6480  -15.9990    0.4240 C.3    82  GLY82       0.2014
    142  C         44.1560  -16.6550   -0.8620 C.2    82  GLY82       0.2639
    143  O         43.1270  -17.3260   -0.8580 O.2    82  GLY82      -0.2714
    144  N         44.8660  -16.4440   -1.9710 N.am   83  GLY83      -0.1939
    145  CA        44.4550  -17.0050   -3.2610 C.3    83  GLY83       0.2014
    146  C         43.2550  -16.3060   -3.8830 C.2    83  GLY83       0.2638
    147  O         42.9620  -15.1570   -3.5610 O.2    83  GLY83      -0.2714
    148  N         42.5590  -17.0240   -4.7700 N.am   84  GLU84      -0.1977
    149  CA        41.4650  -16.4720   -5.5640 C.3    84  GLU84       0.1602
    150  C         40.1350  -16.4840   -4.7910 C.2    84  GLU84       0.2287
    151  O         39.8230  -17.4610   -4.0910 O.2    84  GLU84      -0.2864
    152  CB        41.2890  -17.2800   -6.8460 C.3    84  GLU84       0.0415
    153  CG        42.3870  -17.1300   -7.8820 C.3    84  GLU84       0.1163
    154  CD        42.1580  -18.0240   -9.1330 C.2    84  GLU84       0.3649
    155  OE1       41.0680  -18.6360   -9.2720 O.co2  84  GLU84      -0.2457
    156  OE2       43.0850  -18.1050   -9.9800 O.co2  84  GLU84      -0.2457
    157  N         37.6450  -19.6650   -5.0780 N.3    87  ASP87      -0.1239
    158  CA        37.6690  -20.8210   -4.1690 C.3    87  ASP87       0.1674
    159  C         36.7850  -20.6400   -2.9340 C.2    87  ASP87       0.2266
    160  O         36.4090  -21.6170   -2.2910 O.2    87  ASP87      -0.2867
    161  CB        39.1120  -21.1500   -3.7550 C.3    87  ASP87       0.1410
    162  CG        39.9520  -21.6780   -4.9250 C.2    87  ASP87       0.3668
    163  OD1       39.8160  -22.8730   -5.2810 O.co2  87  ASP87      -0.2456
    164  OD2       40.7330  -20.8930   -5.5020 O.co2  87  ASP87      -0.2456
    165  N         37.6080  -15.2860  -10.1310 N.3   127  GLU127     -0.1231
    166  CA        38.9500  -15.7910  -10.4300 C.3   127  GLU127      0.1699
    167  C         39.9600  -14.6670  -10.4610 C.2   127  GLU127      0.2592
    168  O         41.1350  -14.9110  -10.1830 O.2   127  GLU127     -0.2718
    169  CB        39.0120  -16.5210  -11.7730 C.3   127  GLU127      0.0402
    170  CG        38.2150  -17.8010  -11.8130 C.3   127  GLU127      0.1161
    171  CD        36.7450  -17.6110  -12.2360 C.2   127  GLU127      0.3649
    172  OE1       36.0650  -16.6360  -11.8070 O.co2 127  GLU127     -0.2457
    173  OE2       36.2630  -18.4880  -12.9970 O.co2 127  GLU127     -0.2457
    174  N         39.5080  -13.4500  -10.7820 N.am  128  ASN128     -0.1974
    175  CA        40.4160  -12.3080  -10.8920 C.3   128  ASN128      0.1688
    176  C         40.4190  -11.3770   -9.6810 C.2   128  ASN128      0.2292
    177  O         40.9080  -10.2400   -9.7630 O.2   128  ASN128     -0.2864
    178  CB        40.1240  -11.5380  -12.1890 C.3   128  ASN128      0.1181
    179  CG        40.4890  -12.3430  -13.4250 C.2   128  ASN128      0.2629
    180  OD1       41.3110  -13.2550  -13.3480 O.2   128  ASN128     -0.2716
    181  ND2       39.8920  -12.0150  -14.5570 N.am  128  ASN128     -0.0877
    182  N         41.9500  -11.4490   -5.8850 N.3   130  LEU130     -0.1245
    183  CA        42.8810  -12.1250   -5.0100 C.3   130  LEU130      0.1561
    184  C         42.6740  -11.6620   -3.5700 C.2   130  LEU130      0.2260
    185  O         42.3280  -10.4830   -3.3460 O.2   130  LEU130     -0.2867
    186  CB        44.3230  -11.8300   -5.4530 C.3   130  LEU130      0.0270
    187  CG        44.6460  -12.2910   -6.8830 C.3   130  LEU130      0.0019
    188  CD1       46.0850  -11.8850   -7.2820 C.3   130  LEU130      0.0001
    189  CD2       44.4010  -13.8170   -7.0250 C.3   130  LEU130      0.0001
    190  N         44.5630  -15.7080    4.4700 N.3   134  GLN134     -0.1245
    191  CA        43.5940  -16.7960    4.6340 C.3   134  GLN134      0.1566
    192  C         42.4980  -16.4720    5.6510 C.2   134  GLN134      0.2260
    193  O         41.5910  -17.2660    5.8280 O.2   134  GLN134     -0.2867
    194  CB        44.3160  -18.0950    5.0190 C.3   134  GLN134      0.0367
    195  CG        45.3380  -18.5450    3.9660 C.3   134  GLN134      0.0905
    196  CD        46.1370  -19.7640    4.3860 C.2   134  GLN134      0.2608
    197  OE1       45.5770  -20.7520    4.8630 O.2   134  GLN134     -0.2717
    198  NE2       47.4600  -19.7060    4.2000 N.am  134  GLN134     -0.0878
    199  N         43.1740   -8.4410  -10.2470 N.3   143  THR143     -0.1203
    200  CA        44.2810   -8.8230  -11.1190 C.3   143  THR143      0.1994
    201  C         43.7890   -9.1560  -12.5280 C.2   143  THR143      0.2617
    202  O         42.6210   -9.0200  -12.8180 O.2   143  THR143     -0.2717
    203  CB        45.0530  -10.0130  -10.5140 C.3   143  THR143      0.1784
    204  OG1       46.2550  -10.2050  -11.2550 O.3   143  THR143     -0.2211
    205  CG2       44.2210  -11.3160  -10.5400 C.3   143  THR143      0.0376
    206  N         44.7160   -9.5600  -13.3970 N.am  144  ASP144     -0.1973
    207  CA        44.4400   -9.9780  -14.7840 C.3   144  ASP144      0.1709
    208  C         43.8570   -8.8510  -15.6390 C.2   144  ASP144      0.2293
    209  O         42.6490   -8.7450  -15.8270 O.2   144  ASP144     -0.2864
    210  CB        43.5340  -11.2260  -14.8700 C.3   144  ASP144      0.1436
    211  CG        43.3960  -11.7390  -16.3020 C.2   144  ASP144      0.3671
    212  OD1       43.9080  -11.0500  -17.2400 O.co2 144  ASP144     -0.2456
    213  OD2       42.8080  -12.8360  -16.4990 O.co2 144  ASP144     -0.2456
    214  N         44.5280   -8.5360  -18.8440 N.3   146  GLY146     -0.1225
    215  CA        44.7290   -8.9790  -20.2410 C.3   146  GLY146      0.1811
    216  C         43.6520   -8.5010  -21.2130 C.2   146  GLY146      0.2280
    217  O         43.8910   -8.4230  -22.4080 O.2   146  GLY146     -0.2866
@<TRIPOS>BOND
     1    42    43    1
     2   217   216    2
     3    43    44    1
     4    43    46    1
     5    44    45    2
     6    48    46    1
     7    46    47    1
     8   216   215    1
     9    37    36    2
    10    49    50    1
    11    40    38    1
    12    36    35    1
    13   215   214    1
    14    38    35    1
    15    38    39    1
    16    50    53    1
    17    50    51    1
    18    53    54    1
    19    35    34    1
    20    56    55   ar
    21    58    51   am
    22    58    59    1
    23    51    52    2
    24    39    41    1
    25    62    63    1
    26    62    59    1
    27    62    64    1
    28    54    55    1
    29    63    65    1
    30    55    57   ar
    31    59    60    1
    32    60    61    2
    33   212   211   ar
    34    97    95    1
    35   213   211   ar
    36   211   210    1
    37    95    94    1
    38   209   208    2
    39    66    67    1
    40   208   207    1
    41    32    33    1
    42    32    31    1
    43    28    27    2
    44   210   207    1
    45    90    91    1
    46   207   206    1
    47   181   179   am
    48    94    91    1
    49    94    96    1
    50    27    26    1
    51    30    31    1
    52    30    29    1
    53    67    70    1
    54    67    68    1
    55    71    72    1
    56    71    70    1
    57    71    73    1
    58    91    92    1
    59    68    69    2
    60   179   180    2
    61   179   178    1
    62   206   201   am
    63    29    26    1
    64    26    25    1
    65    87    89    1
    66    87    86    1
    67   173   171   ar
    68    88    86    1
    69   202   201    2
    70    92    93    2
    71   201   200    1
    72    86    83    1
    73   171   170    1
    74   171   172   ar
    75   178   175    1
    76    13    14    1
    77   170   169    1
    78   169   166    1
    79    81    79    1
    80   204   203    1
    81    12    11    2
    82    19    17    1
    83   200   203    1
    84   200   199    1
    85    14    17    1
    86    14    15    1
    87   175   174    1
    88   175   176    1
    89    11    10    1
    90    83    82    1
    91    83    84    1
    92   174   167   am
    93   205   203    1
    94   167   166    1
    95   167   168    2
    96   166   165    1
    97    79    78    1
    98    17    18    1
    99    84    85    2
   100    15    16    2
   101   105   103    1
   102   156   154   ar
   103   177   176    2
   104    77    76    2
   105    10     9    1
   106   155   154   ar
   107   154   153    1
   108    78    75    1
   109    78    80    1
   110    98    99    1
   111    76    75    1
   112   103   102    1
   113   103   104    1
   114     9     3   am
   115   102    99    1
   116    23    22    2
   117    74    75    1
   118    22    21    1
   119    99   100    1
   120   153   152    1
   121     1     2    1
   122   188   187    1
   123     3     4    2
   124     3     2    1
   125   189   187    1
   126   187   186    1
   127   152   149    1
   128    21    24    1
   129    21    20    1
   130     2     5    1
   131   100   101    2
   132   100   106   am
   133     5     6    1
   134   182   183    1
   135   106   107    1
   136   149   150    1
   137   149   148    1
   138   164   162   ar
   139   186   183    1
   140   163   162   ar
   141     6     7    1
   142     6     8    1
   143   157   158    1
   144   183   184    1
   145   162   161    1
   146   109   108    2
   147   150   151    2
   148   148   146   am
   149   158   161    1
   150   158   159    1
   151   107   108    1
   152   107   110    1
   153   108   115   am
   154   146   147    2
   155   146   145    1
   156   128   127    1
   157   128   129    1
   158   184   185    2
   159   110   111    1
   160   145   144    1
   161   115   116    1
   162   121   120    1
   163   127   124    1
   164   111   112    1
   165   116   117    1
   166   116   119    1
   167   159   160    2
   168   123   117   am
   169   123   124    1
   170   129   130    1
   171   114   112   ar
   172   117   118    2
   173   126   125    2
   174   112   113   ar
   175   119   120    1
   176   124   125    1
   177   144   142   am
   178   120   122    1
   179   125   131   am
   180   142   143    2
   181   142   141    1
   182   131   132    1
   183   140   141    1
   184   140   133   am
   185   132   133    1
   186   132   135    1
   187   133   134    2
   188   136   135    1
   189   136   137    1
   190   139   137   ar
   191   137   138   ar
   192   195   196    1
   193   195   194    1
   194   198   196   am
   195   196   197    2
   196   190   191    1
   197   191   194    1
   198   191   192    1
   199   192   193    2
