@<TRIPOS>MOLECULE
tmp/2yiuB00.pdb
 197 188 0 0 0
SMALL
GASTEIGER

@<TRIPOS>ATOM
      1  N         26.7940   -9.3460  -22.4940 N.3    24  VAL24      -0.1245
      2  CA        26.3310   -9.0780  -23.8430 C.3    24  VAL24       0.1561
      3  C         24.8100   -9.2020  -23.8450 C.2    24  VAL24       0.2260
      4  O         24.1210   -8.3650  -24.4500 O.2    24  VAL24      -0.2867
      5  CB        26.8690  -10.1180  -24.8390 C.3    24  VAL24       0.0252
      6  CG1       26.4490   -9.7690  -26.2300 C.3    24  VAL24       0.0019
      7  CG2       28.3760  -10.2390  -24.7170 C.3    24  VAL24       0.0019
      8  N         22.6120   -5.7650  -24.4830 N.3    28  VAL28      -0.1231
      9  CA        22.3550   -5.6790  -25.9210 C.3    28  VAL28       0.1692
     10  C         21.1250   -6.4880  -26.3590 C.2    28  VAL28       0.2592
     11  O         20.1790   -5.9420  -26.8750 O.2    28  VAL28      -0.2718
     12  CB        23.6040   -6.1450  -26.6810 C.3    28  VAL28       0.0266
     13  CG1       23.4050   -6.1170  -28.1930 C.3    28  VAL28       0.0020
     14  CG2       24.7890   -5.2930  -26.2510 C.3    28  VAL28       0.0020
     15  N         21.1270   -7.7880  -26.1150 N.am   29  CYS29      -0.1970
     16  CA        20.0990   -8.6730  -26.6620 C.3    29  CYS29       0.1712
     17  C         18.7100   -8.5370  -26.0180 C.2    29  CYS29       0.2296
     18  O         17.6600   -8.7250  -26.6530 O.2    29  CYS29      -0.2864
     19  CB        20.5960  -10.1130  -26.5380 C.3    29  CYS29       0.0983
     20  SG        22.2250  -10.3870  -27.2940 S.3    29  CYS29      -0.0798
     21  N         16.9380   -6.1650  -25.0590 N.3    31  ALA31      -0.1231
     22  CA        16.0080   -5.1350  -25.5160 C.3    31  ALA31       0.1694
     23  C         14.9980   -5.7510  -26.4890 C.2    31  ALA31       0.2592
     24  O         13.8350   -5.4280  -26.4640 O.2    31  ALA31      -0.2718
     25  CB        16.7640   -4.0040  -26.1710 C.3    31  ALA31       0.0304
     26  N         15.4510   -6.6640  -27.3400 N.am   32  CYS32      -0.1956
     27  CA        14.5590   -7.2860  -28.3360 C.3    32  CYS32       0.1843
     28  C         14.2200   -8.7810  -28.0670 C.2    32  CYS32       0.2625
     29  O         13.3920   -9.3460  -28.7650 O.2    32  CYS32      -0.2714
     30  CB        15.1430   -7.1330  -29.7730 C.3    32  CYS32       0.0997
     31  SG        15.5050   -5.4150  -30.4830 S.3    32  CYS32      -0.0797
     32  N         14.8830   -9.4190  -27.1000 N.am   33  HIS33      -0.1973
     33  CA        14.7450  -10.8790  -26.8600 C.3    33  HIS33       0.1656
     34  C         14.6180  -11.2430  -25.3880 C.2    33  HIS33       0.2291
     35  O         15.4560  -10.8650  -24.5590 O.2    33  HIS33      -0.2864
     36  CB        15.9770  -11.6380  -27.3400 C.3    33  HIS33       0.0771
     37  CG        16.1240  -11.7150  -28.8240 C.ar   33  HIS33       0.0820
     38  ND1       15.2590  -12.4350  -29.6210 N.ar   33  HIS33      -0.2267
     39  CD2       17.0690  -11.2070  -29.6510 C.ar   33  HIS33       0.1154
     40  CE1       15.6620  -12.3590  -30.8780 C.ar   33  HIS33       0.1986
     41  NE2       16.7570  -11.6180  -30.9240 N.ar   33  HIS33      -0.2212
     42  N          8.5520   -5.6890  -33.7810 N.3    89  GLY89      -0.1210
     43  CA         9.9900   -5.6150  -34.0420 C.3    89  GLY89       0.1956
     44  C         10.8500   -6.3760  -33.0470 C.2    89  GLY89       0.2612
     45  O         11.9830   -5.9800  -32.7540 O.2    89  GLY89      -0.2717
     46  N         10.3310   -7.4960  -32.5540 N.am   90  MET90      -0.1965
     47  CA        10.8850   -8.1450  -31.3660 C.3    90  MET90       0.1736
     48  C         11.1920   -9.5930  -31.7340 C.2    90  MET90       0.2617
     49  O         10.4590  -10.2300  -32.4720 O.2    90  MET90      -0.2715
     50  CB         9.8670   -8.0620  -30.2200 C.3    90  MET90       0.0427
     51  CG        10.3990   -7.7430  -28.8480 C.3    90  MET90       0.0599
     52  SD        10.5730   -5.9670  -28.4220 S.3    90  MET90      -0.1393
     53  CE        12.2670   -5.6370  -28.9230 C.3    90  MET90       0.0692
     54  N         12.2910  -10.1130  -31.2440 N.am   91  GLY91      -0.1941
     55  CA        12.7170  -11.3830  -31.7630 C.3    91  GLY91       0.1998
     56  C         12.1940  -12.5650  -31.0000 C.2    91  GLY91       0.2480
     57  O         11.6980  -12.4390  -29.9140 O.2    91  GLY91      -0.2729
     58  N         12.3560  -13.7440  -31.5530 N.am   92  PRO92      -0.2726
     59  CA        11.9560  -14.9860  -30.8980 C.3    92  PRO92       0.1402
     60  C         12.6170  -15.1260  -29.5390 C.2    92  PRO92       0.2269
     61  O         13.7390  -14.6860  -29.3590 O.2    92  PRO92      -0.2865
     62  CB        12.5000  -16.0520  -31.8210 C.3    92  PRO92       0.0296
     63  CG        13.6540  -15.4160  -32.4580 C.3    92  PRO92       0.0237
     64  CD        13.3480  -13.9540  -32.6070 C.3    92  PRO92       0.0939
     65  N         14.7670  -16.5340  -26.6740 N.3    94  LEU94      -0.1245
     66  CA        16.0530  -17.1630  -26.8970 C.3    94  LEU94       0.1561
     67  C         16.4540  -18.2210  -25.8840 C.2    94  LEU94       0.2260
     68  O         17.4830  -18.8450  -26.0820 O.2    94  LEU94      -0.2867
     69  CB        17.1560  -16.0990  -26.9180 C.3    94  LEU94       0.0270
     70  CG        17.1670  -15.0750  -28.0700 C.3    94  LEU94       0.0019
     71  CD1       18.2860  -14.0960  -27.8510 C.3    94  LEU94       0.0001
     72  CD2       17.3430  -15.7740  -29.4160 C.3    94  LEU94       0.0001
     73  N         17.0350  -21.1460  -28.1100 N.3    97  MET97      -0.1245
     74  CA        17.6740  -20.9670  -29.4240 C.3    97  MET97       0.1570
     75  C         18.8500  -21.9330  -29.6650 C.2    97  MET97       0.2261
     76  O         18.9080  -22.6150  -30.6960 O.2    97  MET97      -0.2867
     77  CB        18.1190  -19.5140  -29.6520 C.3    97  MET97       0.0387
     78  CG        18.2310  -19.1170  -31.1010 C.3    97  MET97       0.0595
     79  SD        16.6330  -19.2920  -31.9240 S.3    97  MET97      -0.1393
     80  CE        15.7600  -17.8750  -31.2270 C.3    97  MET97       0.0692
     81  N         18.0420  -24.8060  -33.2360 N.3   101  ARG101     -0.1245
     82  CA        18.5470  -24.4600  -34.5600 C.3   101  ARG101      0.1563
     83  C         19.7150  -25.3220  -34.9560 C.2   101  ARG101      0.2260
     84  O         20.6800  -25.4330  -34.2000 O.2   101  ARG101     -0.2867
     85  CB        19.0350  -23.0150  -34.5320 C.3   101  ARG101      0.0307
     86  CG        17.9230  -21.9960  -34.5420 C.3   101  ARG101      0.0489
     87  CD        17.3090  -21.9180  -35.9180 C.3   101  ARG101      0.2205
     88  NE        16.2920  -20.8930  -35.9620 N.pl3 101  ARG101     -0.0865
     89  CZ        15.2720  -20.8500  -35.1120 C.cat 101  ARG101      0.5346
     90  NH1       15.1830  -21.7650  -34.1660 N.pl3 101  ARG101      0.1354
     91  NH2       14.3450  -19.9020  -35.1940 N.pl3 101  ARG101      0.1354
     92  N         25.3310  -21.7030  -35.1780 N.3   107  TYR107     -0.1227
     93  CA        24.3280  -20.9280  -35.8810 C.3   107  TYR107      0.1736
     94  C         24.1130  -19.5290  -35.2410 C.2   107  TYR107      0.2595
     95  O         24.0830  -18.5090  -35.9520 O.2   107  TYR107     -0.2718
     96  CB        23.0260  -21.7150  -36.0080 C.3   107  TYR107      0.0548
     97  CG        21.9160  -20.8770  -36.5700 C.ar  107  TYR107     -0.0200
     98  CD1       21.0950  -20.1130  -35.7310 C.ar  107  TYR107     -0.0009
     99  CD2       21.7110  -20.7980  -37.9430 C.ar  107  TYR107     -0.0009
    100  CE1       20.0950  -19.3390  -36.2370 C.ar  107  TYR107      0.0417
    101  CE2       20.6860  -20.0070  -38.4750 C.ar  107  TYR107      0.0417
    102  CZ        19.8830  -19.2850  -37.6150 C.ar  107  TYR107      0.1957
    103  OH        18.8780  -18.4940  -38.1370 O.3   107  TYR107     -0.2866
    104  N         23.9770  -19.4450  -33.9200 N.am  108  ILE108     -0.1980
    105  CA        23.8320  -18.1090  -33.3260 C.3   108  ILE108      0.1595
    106  C         25.0200  -17.2120  -33.6980 C.2   108  ILE108      0.2287
    107  O         24.8460  -16.0590  -34.0690 O.2   108  ILE108     -0.2864
    108  CB        23.6190  -18.1360  -31.7690 C.3   108  ILE108      0.0276
    109  CG1       22.3640  -18.9380  -31.4200 C.3   108  ILE108      0.0022
    110  CG2       23.5050  -16.7280  -31.2130 C.3   108  ILE108      0.0022
    111  CD1       22.1810  -19.1840  -29.9420 C.3   108  ILE108      0.0001
    112  N         25.1300  -16.2400  -37.3000 N.3   111  VAL111     -0.1231
    113  CA        24.1780  -15.2080  -37.6440 C.3   111  VAL111      0.1692
    114  C         24.6180  -13.8470  -37.1740 C.2   111  VAL111      0.2591
    115  O         24.5500  -12.8800  -37.9300 O.2   111  VAL111     -0.2718
    116  CB        22.8020  -15.4730  -37.0500 C.3   111  VAL111      0.0266
    117  CG1       21.9500  -14.1970  -37.0700 C.3   111  VAL111      0.0020
    118  CG2       22.1220  -16.5930  -37.7930 C.3   111  VAL111      0.0020
    119  N         25.0330  -13.7480  -35.9140 N.am  112  LEU112     -0.1980
    120  CA        25.4290  -12.4420  -35.3550 C.3   112  LEU112      0.1596
    121  C         26.5490  -11.8170  -36.2090 C.2   112  LEU112      0.2287
    122  O         26.6850  -10.5950  -36.3100 O.2   112  LEU112     -0.2864
    123  CB        25.8990  -12.6140  -33.9110 C.3   112  LEU112      0.0297
    124  CG        24.7740  -12.7090  -32.8860 C.3   112  LEU112      0.0022
    125  CD1       25.3150  -13.2190  -31.5770 C.3   112  LEU112      0.0001
    126  CD2       24.1060  -11.3590  -32.6980 C.3   112  LEU112      0.0001
    127  N         21.2940  -16.7950  -42.0010 N.3   128  PHE128     -0.1241
    128  CA        19.8660  -16.8940  -41.7320 C.3   128  PHE128      0.1605
    129  C         18.9810  -17.6190  -42.7600 C.2   128  PHE128      0.2264
    130  O         19.4490  -18.4530  -43.5130 O.2   128  PHE128     -0.2867
    131  CB        19.2840  -15.4960  -41.4810 C.3   128  PHE128      0.0534
    132  CG        17.8490  -15.5210  -41.0850 C.ar  128  PHE128     -0.0203
    133  CD1       17.4810  -15.9400  -39.7970 C.ar  128  PHE128     -0.0042
    134  CD2       16.8610  -15.1770  -41.9980 C.ar  128  PHE128     -0.0042
    135  CE1       16.1500  -15.9940  -39.4180 C.ar  128  PHE128     -0.0003
    136  CE2       15.5150  -15.2160  -41.6350 C.ar  128  PHE128     -0.0003
    137  CZ        15.1570  -15.6280  -40.3370 C.ar  128  PHE128     -0.0000
    138  N         17.5800  -11.5780  -42.9660 N.3   133  ILE133     -0.1231
    139  CA        17.0600  -11.5240  -41.6050 C.3   133  ILE133      0.1692
    140  C         16.4540  -10.1520  -41.3350 C.2   133  ILE133      0.2592
    141  O         16.8950   -9.1670  -41.8870 O.2   133  ILE133     -0.2718
    142  CB        18.1880  -11.7300  -40.5870 C.3   133  ILE133      0.0266
    143  CG1       17.6600  -12.4720  -39.3610 C.3   133  ILE133      0.0019
    144  CG2       18.8310  -10.3740  -40.2000 C.3   133  ILE133      0.0020
    145  CD1       18.6470  -13.4750  -38.8290 C.3   133  ILE133      0.0001
    146  N         15.4520  -10.0880  -40.4750 N.am  134  GLN134     -0.1966
    147  CA        14.7990   -8.8270  -40.1910 C.3   134  GLN134      0.1733
    148  C         15.4340   -8.1600  -38.9740 C.2   134  GLN134      0.2619
    149  O         14.9500   -7.1150  -38.5210 O.2   134  GLN134     -0.2715
    150  CB        13.2790   -9.0260  -39.9930 C.3   134  GLN134      0.0408
    151  CG        12.6170   -9.6880  -41.1510 C.3   134  GLN134      0.0908
    152  CD        12.3220  -11.1390  -40.8680 C.2   134  GLN134      0.2608
    153  OE1       13.1990  -11.9170  -40.4540 O.2   134  GLN134     -0.2717
    154  NE2       11.0710  -11.5230  -41.0870 N.am  134  GLN134     -0.0878
    155  N         16.5080   -8.7600  -38.4560 N.am  135  MET135     -0.1917
    156  CA        17.2440   -8.2100  -37.2950 C.3   135  MET135      0.1952
    157  C         18.4600   -7.4160  -37.7820 C.2   135  MET135      0.2658
    158  O         19.4580   -7.9920  -38.2340 O.2   135  MET135     -0.2711
    159  CB        17.6690   -9.3070  -36.2510 C.2   135  MET135      0.0110
    160  CG        18.7370   -8.8640  -35.1770 C.2   135  MET135      0.0285
    161  SD        19.4540  -10.0310  -33.9250 S.3   135  MET135     -0.1125
    162  CE        20.0290  -11.4040  -34.8930 C.3   135  MET135      0.0742
    163  N         18.3750   -6.0940  -37.6950 N.am  136  ALA136     -0.1974
    164  CA        19.5400   -5.2830  -37.9790 C.3   136  ALA136      0.1597
    165  C         20.7210   -5.8540  -37.1790 C.2   136  ALA136      0.2287
    166  O         20.6100   -6.0860  -35.9640 O.2   136  ALA136     -0.2864
    167  CB        19.2870   -3.8490  -37.5920 C.3   136  ALA136      0.0319
    168  N         23.0820   -6.3060  -34.7210 N.3   138  PRO138     -0.2102
    169  CA        22.9660   -5.7880  -33.3580 C.3   138  PRO138      0.1504
    170  C         24.2700   -5.4330  -32.6670 C.2   138  PRO138      0.2575
    171  O         24.2480   -4.6800  -31.6930 O.2   138  PRO138     -0.2718
    172  CB        22.4130   -6.9870  -32.6170 C.3   138  PRO138      0.0282
    173  CG        23.1220   -8.1120  -33.2810 C.3   138  PRO138      0.0208
    174  CD        23.0030   -7.7760  -34.7330 C.3   138  PRO138      0.0893
    175  N         25.3800   -6.0110  -33.1200 N.am  139  LEU139     -0.1980
    176  CA        26.6720   -5.8130  -32.4510 C.3   139  LEU139      0.1596
    177  C         27.6590   -4.9540  -33.2520 C.2   139  LEU139      0.2287
    178  O         27.8780   -5.2130  -34.4300 O.2   139  LEU139     -0.2864
    179  CB        27.3540   -7.1600  -32.1820 C.3   139  LEU139      0.0297
    180  CG        26.8340   -8.1400  -31.1190 C.3   139  LEU139      0.0022
    181  CD1       27.3610   -9.5640  -31.3710 C.3   139  LEU139      0.0001
    182  CD2       27.1930   -7.6750  -29.7290 C.3   139  LEU139      0.0001
    183  N         28.1040  -14.6170  -26.0230 N.3   161  VAL161     -0.1245
    184  CA        26.6900  -14.7720  -25.8710 C.3   161  VAL161      0.1561
    185  C         26.2160  -16.1020  -26.5160 C.2   161  VAL161      0.2260
    186  O         25.1610  -16.6110  -26.1600 O.2   161  VAL161     -0.2867
    187  CB        25.9670  -13.5590  -26.4130 C.3   161  VAL161      0.0252
    188  CG1       26.0440  -13.5460  -27.9080 C.3   161  VAL161      0.0019
    189  CG2       24.5570  -13.5460  -25.9630 C.3   161  VAL161      0.0019
    190  N         24.1410  -18.4350  -24.4120 N.3   165  LEU165     -0.1245
    191  CA        22.8910  -19.0010  -24.9000 C.3   165  LEU165      0.1561
    192  C         22.8870  -20.5150  -24.8630 C.2   165  LEU165      0.2260
    193  O         21.8490  -21.1020  -24.6480 O.2   165  LEU165     -0.2867
    194  CB        22.5060  -18.4830  -26.2760 C.3   165  LEU165      0.0270
    195  CG        22.1250  -17.0030  -26.1150 C.3   165  LEU165      0.0019
    196  CD1       21.7950  -16.3130  -27.4580 C.3   165  LEU165      0.0001
    197  CD2       21.0070  -16.8760  -25.1390 C.3   165  LEU165      0.0001
@<TRIPOS>BOND
     1   130   129    2
     2   138   139    1
     3   129   128    1
     4   127   128    1
     5   134   136   ar
     6   134   132   ar
     7   141   140    2
     8   128   131    1
     9   136   137   ar
    10   139   140    1
    11   139   142    1
    12   131   132    1
    13   140   146   am
    14   151   152    1
    15   151   150    1
    16   154   152   am
    17   132   133   ar
    18   152   153    2
    19   142   144    1
    20   142   143    1
    21   146   147    1
    22   137   135   ar
    23   147   150    1
    24   147   148    1
    25   133   135   ar
    26   143   145    1
    27   148   149    2
    28   148   155   am
    29   101    99   ar
    30   101   102   ar
    31   155   156    1
    32   158   157    2
    33   103   102    1
    34   164   163    1
    35   164   167    1
    36   164   165    1
    37    99    97   ar
    38   115   114    2
    39   118   116    1
    40   157   163   am
    41   157   156    1
    42   113   112    1
    43   113   114    1
    44   113   116    1
    45   102   100   ar
    46   156   159    1
    47   165   166    2
    48   114   119   am
    49   117   116    1
    50    97    96    1
    51    97    98   ar
    52   122   121    2
    53   159   160    2
    54   100    98   ar
    55   121   120    1
    56    96    93    1
    57    88    87    1
    58    88    89    2
    59    95    94    2
    60    87    86    1
    61   119   120    1
    62    93    94    1
    63    93    92    1
    64   120   123    1
    65    94   104   am
    66    91    89    1
    67   160   161    1
    68    89    90    1
    69    83    82    1
    70    83    84    2
    71   162   161    1
    72   174   168    1
    73   174   173    1
    74   168   169    1
    75    82    85    1
    76    82    81    1
    77    86    85    1
    78   178   177    2
    79   107   106    2
    80    43    42    1
    81    43    44    1
    82   104   105    1
    83   123   124    1
    84   106   105    1
    85   169   170    1
    86   169   172    1
    87   105   108    1
    88   173   172    1
    89   177   176    1
    90   175   170   am
    91   175   176    1
    92    44    45    2
    93    44    46   am
    94   124   126    1
    95   124   125    1
    96   170   171    2
    97    64    63    1
    98    64    58    1
    99    46    47    1
   100    49    48    2
   101    63    62    1
   102   176   179    1
   103   179   180    1
   104    79    80    1
   105    79    78    1
   106    62    59    1
   107   108   109    1
   108   108   110    1
   109    55    54    1
   110    55    56    1
   111    48    47    1
   112    48    54   am
   113    58    56   am
   114    58    59    1
   115   109   111    1
   116   181   180    1
   117    47    50    1
   118   180   182    1
   119    78    77    1
   120    56    57    2
   121    41    40   ar
   122    41    39   ar
   123    59    60    1
   124    40    38   ar
   125    76    75    2
   126    31    30    1
   127    50    51    1
   128    30    27    1
   129    75    74    1
   130    77    74    1
   131    39    37   ar
   132    38    37   ar
   133    60    61    2
   134    74    73    1
   135    72    70    1
   136    53    52    1
   137    51    52    1
   138    37    36    1
   139    29    28    2
   140    27    28    1
   141    27    26    1
   142    13    12    1
   143    70    71    1
   144    70    69    1
   145    28    32   am
   146   188   187    1
   147   196   195    1
   148    26    23   am
   149    36    33    1
   150    20    19    1
   151    32    33    1
   152    69    66    1
   153    66    65    1
   154    66    67    1
   155    11    10    2
   156    33    34    1
   157    12    14    1
   158    12     9    1
   159    16    19    1
   160    16    15    1
   161    16    17    1
   162    18    17    2
   163   185   186    2
   164   185   184    1
   165    23    24    2
   166    23    22    1
   167   187   189    1
   168   187   184    1
   169    10    15   am
   170    10     9    1
   171   194   195    1
   172   194   191    1
   173     6     5    1
   174    25    22    1
   175   195   197    1
   176    68    67    2
   177   183   184    1
   178     9     8    1
   179    22    21    1
   180    34    35    2
   181   191   192    1
   182   191   190    1
   183   192   193    2
   184     5     7    1
   185     5     2    1
   186     4     3    2
   187     3     2    1
   188     2     1    1
