@<TRIPOS>MOLECULE
tmp/2yivA00.pdb
 108 101 0 0 0
SMALL
GASTEIGER

@<TRIPOS>ATOM
      1  N         49.7910   18.6110   42.2210 N.3    92  HIS92      -0.1241
      2  CA        50.5990   19.7680   42.5650 C.3    92  HIS92       0.1621
      3  C         49.9310   21.0780   42.0990 C.2    92  HIS92       0.2264
      4  O         50.1520   22.1220   42.7080 O.2    92  HIS92      -0.2867
      5  CB        52.0160   19.5780   42.0150 C.3    92  HIS92       0.0745
      6  CG        52.7810   18.4930   42.7190 C.ar   92  HIS92       0.0817
      7  ND1       53.5260   17.5420   42.0560 N.ar   92  HIS92      -0.2268
      8  CD2       52.8910   18.2000   44.0380 C.ar   92  HIS92       0.1154
      9  CE1       54.0770   16.7220   42.9330 C.ar   92  HIS92       0.1986
     10  NE2       53.7070   17.0990   44.1440 N.ar   92  HIS92      -0.2212
     11  N         48.9510   16.7600   52.7220 N.3   260  HIS260     -0.1241
     12  CA        49.9210   17.5900   51.9980 C.3   260  HIS260      0.1621
     13  C         50.0330   19.0750   52.2920 C.2   260  HIS260      0.2264
     14  O         51.1450   19.6040   52.2650 O.2   260  HIS260     -0.2867
     15  CB        49.7170   17.3510   50.5030 C.3   260  HIS260      0.0745
     16  CG        50.3360   16.0780   50.0900 C.ar  260  HIS260      0.0817
     17  ND1       49.7330   14.8550   50.3090 N.ar  260  HIS260     -0.2268
     18  CD2       51.5930   15.8080   49.6890 C.ar  260  HIS260      0.1154
     19  CE1       50.5750   13.8940   49.9910 C.ar  260  HIS260      0.1986
     20  NE2       51.7140   14.4480   49.6220 N.ar  260  HIS260     -0.2212
     21  N         64.0340   10.7330   46.7700 N.3   443  ALA443     -0.1231
     22  CA        62.7250   11.3500   46.7390 C.3   443  ALA443      0.1694
     23  C         61.6540   10.2780   46.6840 C.2   443  ALA443      0.2593
     24  O         61.9130    9.1280   46.3250 O.2   443  ALA443     -0.2718
     25  CB        62.6050   12.2940   45.5510 C.3   443  ALA443      0.0304
     26  N         60.4340   10.6740   47.0250 N.am  444  GLY444     -0.1942
     27  CA        59.2850    9.8540   46.7460 C.3   444  GLY444      0.2014
     28  C         58.9010    8.8480   47.8080 C.2   444  GLY444      0.2639
     29  O         59.3600    8.8830   48.9570 O.2   444  GLY444     -0.2714
     30  N         58.0480    7.9260   47.3840 N.am  445  CYS445     -0.1967
     31  CA        57.2000    7.1310   48.2540 C.3   445  CYS445      0.1712
     32  C         57.9030    5.8860   48.7470 C.2   445  CYS445      0.2296
     33  O         59.0440    5.5860   48.3450 O.2   445  CYS445     -0.2864
     34  CB        55.9620    6.7130   47.4520 C.3   445  CYS445      0.0983
     35  SG        55.4010    7.9530   46.2290 S.3   445  CYS445     -0.0798
     36  N         57.5120   16.7880   49.2800 N.3   525  CYS525     -0.1235
     37  CA        57.6640   16.5180   47.8570 C.3   525  CYS525      0.1677
     38  C         57.6370   17.7860   46.9770 C.2   525  CYS525      0.2270
     39  O         58.3880   17.8670   45.9980 O.2   525  CYS525     -0.2867
     40  CB        56.6120   15.5310   47.3950 C.3   525  CYS525      0.0956
     41  SG        56.8680   13.9030   48.1200 S.3   525  CYS525     -0.0801
     42  N         61.0260   19.2030   46.5690 N.3   528  ASN528     -0.1240
     43  CA        61.9740   18.8370   45.5240 C.3   528  ASN528      0.1653
     44  C         62.3650   20.0700   44.7020 C.2   528  ASN528      0.2266
     45  O         63.4560   20.1250   44.1250 O.2   528  ASN528     -0.2867
     46  CB        61.4060   17.7540   44.6120 C.3   528  ASN528      0.1155
     47  CG        61.4530   16.3950   45.2650 C.2   528  ASN528      0.2627
     48  OD1       62.5230   15.9410   45.6780 O.2   528  ASN528     -0.2716
     49  ND2       60.2990   15.7440   45.4040 N.am  528  ASN528     -0.0877
     50  N         69.1970   11.7100   40.8640 N.3   553  ALA553     -0.1231
     51  CA        68.0280   11.5560   41.7240 C.3   553  ALA553      0.1694
     52  C         67.6260   10.0850   41.7640 C.2   553  ALA553      0.2593
     53  O         67.8950    9.3440   40.8180 O.2   553  ALA553     -0.2718
     54  CB        66.8670   12.4200   41.2220 C.3   553  ALA553      0.0304
     55  N         66.9890    9.6770   42.8510 N.am  554  SER554     -0.1938
     56  CA        66.4950    8.3170   43.0140 C.3   554  SER554      0.2055
     57  C         65.1260    8.2990   43.6860 C.2   554  SER554      0.2642
     58  O         65.0000    8.6670   44.8580 O.2   554  SER554     -0.2714
     59  CB        67.4760    7.4990   43.8560 C.3   554  SER554      0.2130
     60  OG        66.9520    6.2230   44.1710 O.3   554  SER554     -0.2179
     61  N         64.1130    7.8720   42.9370 N.am  555  ALA555     -0.1977
     62  CA        62.7890    7.5740   43.4820 C.3   555  ALA555      0.1597
     63  C         62.7970    6.0690   43.7360 C.2   555  ALA555      0.2287
     64  O         62.2580    5.2750   42.9590 O.2   555  ALA555     -0.2864
     65  CB        61.6900    7.9900   42.5210 C.3   555  ALA555      0.0319
     66  N         53.2300    7.0400   43.8440 N.3   560  HIS560     -0.1241
     67  CA        52.1470    7.9090   43.3930 C.3   560  HIS560      0.1621
     68  C         52.3690    8.4310   41.9780 C.2   560  HIS560      0.2264
     69  O         53.5080    8.5470   41.5090 O.2   560  HIS560     -0.2867
     70  CB        51.9990    9.0860   44.3650 C.3   560  HIS560      0.0745
     71  CG        50.6550    9.7420   44.3530 C.ar  560  HIS560      0.0817
     72  ND1       50.2930   10.6900   43.4150 N.ar  560  HIS560     -0.2268
     73  CD2       49.5830    9.5820   45.1630 C.ar  560  HIS560      0.1154
     74  CE1       49.0550   11.0830   43.6510 C.ar  560  HIS560      0.1986
     75  NE2       48.6050   10.4320   44.7100 N.ar  560  HIS560     -0.2212
     76  N         52.2410   11.4090   41.3400 N.3   562  LYS562     -0.1231
     77  CA        53.1140   12.5480   41.6230 C.3   562  LYS562      0.1693
     78  C         54.5860   12.1790   41.5250 C.2   562  LYS562      0.2591
     79  O         55.4110   13.0140   41.1190 O.2   562  LYS562     -0.2718
     80  CB        52.8170   13.1270   43.0050 C.3   562  LYS562      0.0285
     81  CG        51.5040   13.9050   43.0830 C.3   562  LYS562      0.0035
     82  CD        51.2140   14.3980   44.4890 C.3   562  LYS562      0.0206
     83  CE        50.9090   13.2630   45.4290 C.3   562  LYS562      0.1093
     84  NZ        51.0480   13.6630   46.8470 N.3   562  LYS562     -0.1314
     85  N         54.9380   10.9630   41.9280 N.am  563  ALA563     -0.1980
     86  CA        56.3200   10.5110   41.8090 C.3   563  ALA563      0.1597
     87  C         56.7330   10.3410   40.3460 C.2   563  ALA563      0.2287
     88  O         57.8720   10.6360   39.9660 O.2   563  ALA563     -0.2864
     89  CB        56.5490    9.2420   42.5830 C.3   563  ALA563      0.0319
     90  N         57.3430   13.9580   39.0260 N.3   566  ILE566     -0.1231
     91  CA        58.5820   14.5760   39.4740 C.3   566  ILE566      0.1692
     92  C         59.7900   13.8570   38.8530 C.2   566  ILE566      0.2592
     93  O         60.7290   14.4970   38.4210 O.2   566  ILE566     -0.2718
     94  CB        58.6410   14.6580   41.0110 C.3   566  ILE566      0.0266
     95  CG1       57.5060   15.5790   41.4830 C.3   566  ILE566      0.0019
     96  CG2       60.0100   15.1520   41.4660 C.3   566  ILE566      0.0020
     97  CD1       57.5660   16.0200   42.9140 C.3   566  ILE566      0.0001
     98  N         59.7570   12.5290   38.7680 N.am  567  GLY567     -0.1957
     99  CA        60.8370   11.8000   38.1230 C.3   567  GLY567      0.1869
    100  C         61.0160   12.2670   36.6860 C.2   567  GLY567      0.2309
    101  O         62.1360   12.4320   36.1850 O.2   567  GLY567     -0.2863
    102  N         68.0800    9.8270   36.5530 N.3   577  THR577     -0.1218
    103  CA        67.0130    9.6570   37.5370 C.3   577  THR577      0.1862
    104  C         66.6650    8.1830   37.6710 C.2   577  THR577      0.2287
    105  O         66.1520    7.5590   36.7310 O.2   577  THR577     -0.2866
    106  CB        65.7670   10.4570   37.1140 C.3   577  THR577      0.1770
    107  OG1       66.1190   11.8400   36.9790 O.3   577  THR577     -0.2211
    108  CG2       64.6480   10.3280   38.1130 C.3   577  THR577      0.0375
@<TRIPOS>BOND
     1   101   100    2
     2   102   103    1
     3   100    99    1
     4   105   104    2
     5   107   106    1
     6   106   103    1
     7   106   108    1
     8   103   104    1
     9    99    98    1
    10    93    92    2
    11    98    92   am
    12    92    91    1
    13    90    91    1
    14    91    94    1
    15    88    87    2
    16    87    86    1
    17    53    52    2
    18    50    51    1
    19    94    96    1
    20    94    95    1
    21    79    78    2
    22    54    51    1
    23    76    77    1
    24    95    97    1
    25    69    68    2
    26    78    77    1
    27    78    85   am
    28    77    80    1
    29    51    52    1
    30    52    55   am
    31    86    85    1
    32    86    89    1
    33    68    67    1
    34     5     2    1
    35     5     6    1
    36     7     6   ar
    37     7     9   ar
    38     3     2    1
    39     3     4    2
    40     1     2    1
    41    65    62    1
    42     6     8   ar
    43    55    56    1
    44     9    10   ar
    45    61    62    1
    46    61    57   am
    47    64    63    2
    48    80    81    1
    49    56    57    1
    50    56    59    1
    51    81    82    1
    52    67    66    1
    53    67    70    1
    54    72    74   ar
    55    72    71   ar
    56    62    63    1
    57    74    75   ar
    58    57    58    2
    59    59    60    1
    60     8    10   ar
    61    45    44    2
    62    71    70    1
    63    71    73   ar
    64    82    83    1
    65    46    47    1
    66    46    43    1
    67    44    43    1
    68    75    73   ar
    69    47    49   am
    70    47    48    2
    71    83    84    1
    72    43    42    1
    73    25    22    1
    74    39    38    2
    75    35    34    1
    76    24    23    2
    77    23    22    1
    78    23    26   am
    79    22    21    1
    80    27    26    1
    81    27    28    1
    82    38    37    1
    83    30    28   am
    84    30    31    1
    85    40    37    1
    86    40    41    1
    87    34    31    1
    88    28    29    2
    89    37    36    1
    90    31    32    1
    91    33    32    2
    92    20    18   ar
    93    20    19   ar
    94    18    16   ar
    95    19    17   ar
    96    16    17   ar
    97    16    15    1
    98    15    12    1
    99    12    13    1
   100    12    11    1
   101    14    13    2
