@<TRIPOS>MOLECULE
tmp/2yiwA01.pdb
 133 126 0 0 0
SMALL
GASTEIGER

@<TRIPOS>ATOM
      1  N         20.5010   11.6450   16.2390 N.3   164  PRO164     -0.2102
      2  CA        21.0910   12.9890   16.4550 C.3   164  PRO164      0.1504
      3  C         20.8280   13.9590   15.3080 C.2   164  PRO164      0.2575
      4  O         20.6300   15.1430   15.5710 O.2   164  PRO164     -0.2718
      5  CB        22.5810   12.6880   16.6380 C.3   164  PRO164      0.0282
      6  CG        22.7780   11.3350   16.0090 C.3   164  PRO164      0.0208
      7  CD        21.5340   10.5940   16.3130 C.3   164  PRO164      0.0893
      8  N         20.7410   13.4430   14.0520 N.am  165  GLU165     -0.1980
      9  CA        20.4480   14.2550   12.8650 C.3   165  GLU165      0.1602
     10  C         19.0470   14.9170   12.8910 C.2   165  GLU165      0.2287
     11  O         18.8440   15.9010   12.1820 O.2   165  GLU165     -0.2864
     12  CB        20.7130   13.5000   11.5480 C.3   165  GLU165      0.0415
     13  CG        19.8950   12.2330   11.3230 C.3   165  GLU165      0.1163
     14  CD        20.4750   10.9320   11.8570 C.2   165  GLU165      0.3649
     15  OE1       21.2320   10.9630   12.8510 O.co2 165  GLU165     -0.2457
     16  OE2       20.1450    9.8680   11.2900 O.co2 165  GLU165     -0.2457
     17  N         19.4100   17.8980   15.6220 N.3   168  LEU168     -0.1245
     18  CA        20.2150   18.8960   14.9160 C.3   168  LEU168      0.1561
     19  C         19.4060   19.5480   13.7770 C.2   168  LEU168      0.2260
     20  O         19.9500   20.3520   13.0120 O.2   168  LEU168     -0.2867
     21  CB        21.4770   18.1860   14.3750 C.3   168  LEU168      0.0270
     22  CG        22.7290   19.0180   14.1170 C.3   168  LEU168      0.0019
     23  CD1       23.3290   19.5660   15.3910 C.3   168  LEU168      0.0001
     24  CD2       23.7540   18.2140   13.3920 C.3   168  LEU168      0.0001
     25  N         18.0800   18.3590   10.9110 N.3   170  TRP170     -0.1241
     26  CA        18.3500   18.0460    9.5070 C.3   170  TRP170      0.1605
     27  C         17.0760   17.5310    8.8280 C.2   170  TRP170      0.2264
     28  O         16.4470   16.5730    9.2940 O.2   170  TRP170     -0.2867
     29  CB        19.5040   17.0400    9.3640 C.3   170  TRP170      0.0550
     30  CG        20.0010   16.8220    7.9620 C.ar  170  TRP170      0.0003
     31  CD1       20.2060   17.7740    6.9970 C.ar  170  TRP170      0.0946
     32  CD2       20.4680   15.5820    7.4100 C.ar  170  TRP170      0.0152
     33  NE1       20.7490   17.1970    5.8710 N.ar  170  TRP170     -0.2442
     34  CE2       20.9500   15.8570    6.1080 C.ar  170  TRP170      0.0810
     35  CE3       20.5610   14.2640    7.9050 C.ar  170  TRP170      0.0012
     36  CZ2       21.4860   14.8580    5.2840 C.ar  170  TRP170      0.0191
     37  CZ3       21.0890   13.2750    7.0830 C.ar  170  TRP170      0.0001
     38  CH2       21.5300   13.5700    5.7880 C.ar  170  TRP170      0.0015
     39  N         21.9060   16.0470   22.5910 N.3   205  LEU205     -0.1245
     40  CA        23.0250   16.0280   21.6560 C.3   205  LEU205      0.1561
     41  C         24.3760   15.8460   22.3870 C.2   205  LEU205      0.2260
     42  O         25.1790   15.0020   21.9820 O.2   205  LEU205     -0.2867
     43  CB        23.0020   17.3000   20.8130 C.3   205  LEU205      0.0270
     44  CG        23.8500   17.3560   19.5470 C.3   205  LEU205      0.0019
     45  CD1       23.8420   16.0170   18.7630 C.3   205  LEU205      0.0001
     46  CD2       23.3270   18.4370   18.6550 C.3   205  LEU205      0.0001
     47  N         27.0410   12.5830   21.8990 N.3   209  LEU209     -0.1245
     48  CA        28.4310   12.8280   21.5220 C.3   209  LEU209      0.1561
     49  C         29.4210   12.3650   22.5850 C.2   209  LEU209      0.2260
     50  O         30.5490   12.0370   22.2520 O.2   209  LEU209     -0.2867
     51  CB        28.6540   14.3050   21.1520 C.3   209  LEU209      0.0270
     52  CG        27.7250   14.8780   20.0750 C.3   209  LEU209      0.0019
     53  CD1       28.0630   16.3200   19.7900 C.3   209  LEU209      0.0001
     54  CD2       27.7800   14.0710   18.7810 C.3   209  LEU209      0.0001
     55  N         31.7060   14.6430   15.6810 N.3   215  PRO215     -0.2116
     56  CA        31.9130   14.2440   14.2790 C.3   215  PRO215      0.1372
     57  C         33.3410   14.3460   13.7570 C.2   215  PRO215      0.2244
     58  O         34.0440   15.3030   14.0570 O.2   215  PRO215     -0.2868
     59  CB        31.0080   15.2030   13.4930 C.3   215  PRO215      0.0268
     60  CG        30.0090   15.6650   14.4270 C.3   215  PRO215      0.0207
     61  CD        30.6060   15.6180   15.8060 C.3   215  PRO215      0.0892
     62  N         32.0990   13.4310    8.3280 N.3   219  LEU219     -0.1245
     63  CA        30.7260   13.8030    8.6650 C.3   219  LEU219      0.1561
     64  C         30.5420   15.3330    8.6810 C.2   219  LEU219      0.2260
     65  O         29.4940   15.8280    8.2170 O.2   219  LEU219     -0.2867
     66  CB        30.3030   13.1930   10.0220 C.3   219  LEU219      0.0270
     67  CG        28.8630   13.4900   10.4900 C.3   219  LEU219      0.0019
     68  CD1       27.8130   13.1790    9.3960 C.3   219  LEU219      0.0001
     69  CD2       28.5320   12.7080   11.7500 C.3   219  LEU219      0.0001
     70  N         29.4740   17.1120    5.5840 N.3   222  LYS222     -0.1231
     71  CA        28.0950   16.8270    5.1530 C.3   222  LYS222      0.1693
     72  C         27.0330   17.7420    5.7710 C.2   222  LYS222      0.2592
     73  O         25.8600   17.6500    5.3820 O.2   222  LYS222     -0.2718
     74  CB        27.7320   15.3520    5.4510 C.3   222  LYS222      0.0285
     75  CG        28.4030   14.3710    4.5160 C.3   222  LYS222      0.0035
     76  CD        28.2390   12.9480    5.0270 C.3   222  LYS222      0.0206
     77  CE        29.2160   12.0130    4.3690 C.3   222  LYS222      0.1093
     78  NZ        29.0800   10.6240    4.8820 N.3   222  LYS222     -0.1314
     79  N         27.4290   18.5930    6.7420 N.am  223  ILE223     -0.1966
     80  CA        26.5520   19.5260    7.4770 C.3   223  ILE223      0.1727
     81  C         26.5580   20.9210    6.8150 C.2   223  ILE223      0.2617
     82  O         27.5520   21.6430    6.8810 O.2   223  ILE223     -0.2715
     83  CB        26.8970   19.5900    9.0030 C.3   223  ILE223      0.0290
     84  CG1       27.0170   18.1610    9.6310 C.3   223  ILE223      0.0022
     85  CG2       25.8310   20.4270    9.7620 C.3   223  ILE223      0.0023
     86  CD1       27.7540   18.0810   11.0580 C.3   223  ILE223      0.0001
     87  N         25.4590   21.2730    6.1600 N.am  224  SER224     -0.1936
     88  CA        25.3080   22.5630    5.4820 C.3   224  SER224      0.2055
     89  C         25.0990   23.7220    6.4670 C.2   224  SER224      0.2643
     90  O         25.6300   24.8170    6.2500 O.2   224  SER224     -0.2714
     91  CB        24.1390   22.5230    4.4990 C.3   224  SER224      0.2130
     92  OG        23.0260   21.8390    5.0480 O.3   224  SER224     -0.2179
     93  N         24.3090   23.4910    7.5240 N.am  225  SER225     -0.1949
     94  CA        23.9450   24.5040    8.5140 C.3   225  SER225      0.1924
     95  C         25.1310   25.0360    9.2940 C.2   225  SER225      0.2314
     96  O         25.7450   24.3050   10.0690 O.2   225  SER225     -0.2863
     97  CB        22.8650   23.9620    9.4480 C.3   225  SER225      0.2116
     98  OG        22.6870   24.7480   10.6180 O.3   225  SER225     -0.2180
     99  N         24.2480   24.5830   12.9300 N.3   228  ALA228     -0.1245
    100  CA        24.4810   23.2280   13.4410 C.3   228  ALA228      0.1562
    101  C         26.0020   22.9360   13.5800 C.2   228  ALA228      0.2260
    102  O         26.4150   22.3220   14.5660 O.2   228  ALA228     -0.2867
    103  CB        23.8150   22.2000   12.5510 C.3   228  ALA228      0.0290
    104  N         28.2080   22.3070   17.2080 N.3   232  ILE232     -0.1245
    105  CA        28.8970   21.0210   17.3410 C.3   232  ILE232      0.1561
    106  C         30.4050   21.1860   17.5080 C.2   232  ILE232      0.2260
    107  O         30.9920   20.5900   18.4120 O.2   232  ILE232     -0.2867
    108  CB        28.5240   20.0960   16.1430 C.3   232  ILE232      0.0252
    109  CG1       27.0750   19.5770   16.2480 C.3   232  ILE232      0.0019
    110  CG2       29.5200   18.9510   15.9410 C.3   232  ILE232      0.0019
    111  CD1       26.6690   18.9830   17.6170 C.3   232  ILE232      0.0001
    112  N         27.3890    7.7640   14.4830 N.3   264  LEU264     -0.1231
    113  CA        26.9440    9.1350   14.3280 C.3   264  LEU264      0.1693
    114  C         26.5320    9.4650   12.9030 C.2   264  LEU264      0.2592
    115  O         25.4190    9.9280   12.7120 O.2   264  LEU264     -0.2718
    116  CB        27.9620   10.1420   14.8890 C.3   264  LEU264      0.0284
    117  CG        27.5050   11.5920   14.9940 C.3   264  LEU264      0.0019
    118  CD1       26.2850   11.7390   15.8960 C.3   264  LEU264      0.0001
    119  CD2       28.5900   12.4380   15.5550 C.3   264  LEU264      0.0001
    120  N         27.3880    9.1660   11.9050 N.am  265  ASP265     -0.1960
    121  CA        27.0830    9.4150   10.4940 C.3   265  ASP265      0.1840
    122  C         26.0710    8.3750   10.0010 C.2   265  ASP265      0.2622
    123  O         26.4100    7.2070    9.8630 O.2   265  ASP265     -0.2715
    124  CB        28.3650    9.3730    9.6560 C.3   265  ASP265      0.1450
    125  CG        28.1830    9.7130    8.1890 C.2   265  ASP265      0.3671
    126  OD1       27.0250    9.7510    7.7270 O.co2 265  ASP265     -0.2456
    127  OD2       29.1990   10.0030    7.5200 O.co2 265  ASP265     -0.2456
    128  N         24.8450    8.8240    9.6660 N.am  266  SER266     -0.1950
    129  CA        23.7560    7.9440    9.2600 C.3   266  SER266      0.1924
    130  C         23.9920    7.1850    7.9930 C.2   266  SER266      0.2314
    131  O         23.3460    6.1600    7.7800 O.2   266  SER266     -0.2863
    132  CB        22.4300    8.6960    9.2200 C.3   266  SER266      0.2116
    133  OG        22.3990    9.6150    8.1410 O.3   266  SER266     -0.2180
@<TRIPOS>BOND
     1    77    78    1
     2    77    76    1
     3    91    92    1
     4    91    88    1
     5    75    76    1
     6    75    74    1
     7    71    74    1
     8    71    70    1
     9    71    72    1
    10    36    38   ar
    11    36    34   ar
    12    73    72    2
    13    88    87    1
    14    88    89    1
    15    72    79   am
    16    38    37   ar
    17    33    34   ar
    18    33    31   ar
    19    34    32   ar
    20    87    81   am
    21    90    89    2
    22    89    93   am
    23    79    80    1
    24    81    82    2
    25    81    80    1
    26    31    30   ar
    27    37    35   ar
    28    32    35   ar
    29    32    30   ar
    30    80    83    1
    31   127   125   ar
    32    93    94    1
    33   126   125   ar
    34   131   130    2
    35    30    29    1
    36   130   129    1
    37   133   132    1
    38   125   124    1
    39    65    64    2
    40    62    63    1
    41    94    95    1
    42    94    97    1
    43    63    64    1
    44    63    66    1
    45    27    28    2
    46    27    26    1
    47    83    84    1
    48    83    85    1
    49   132   129    1
    50   129   128    1
    51    95    96    2
    52    29    26    1
    53    68    67    1
    54    97    98    1
    55    26    25    1
    56    84    86    1
    57   124   121    1
    58   128   122   am
    59   123   122    2
    60   122   121    1
    61    66    67    1
    62    67    69    1
    63   121   120    1
    64    16    14   ar
    65    13    12    1
    66    13    14    1
    67    12     9    1
    68    14    15   ar
    69   120   114   am
    70    11    10    2
    71   103   100    1
    72   115   114    2
    73     9    10    1
    74     9     8    1
    75   114   113    1
    76    99   100    1
    77    20    19    2
    78    24    22    1
    79   100   101    1
    80    59    56    1
    81    59    60    1
    82   101   102    2
    83    57    58    2
    84    57    56    1
    85    19    18    1
    86     8     3   am
    87    22    21    1
    88    22    23    1
    89    56    55    1
    90   113   112    1
    91   113   116    1
    92    21    18    1
    93    60    61    1
    94   116   117    1
    95    18    17    1
    96   117   119    1
    97   117   118    1
    98     3     4    2
    99     3     2    1
   100    55    61    1
   101   110   108    1
   102     6     7    1
   103     6     5    1
   104   108   109    1
   105   108   105    1
   106     1     7    1
   107     1     2    1
   108   109   111    1
   109     2     5    1
   110   104   105    1
   111   105   106    1
   112   106   107    2
   113    46    44    1
   114    45    44    1
   115    54    52    1
   116    44    43    1
   117    53    52    1
   118    52    51    1
   119    43    40    1
   120    51    48    1
   121    48    47    1
   122    48    49    1
   123    40    41    1
   124    40    39    1
   125    42    41    2
   126    50    49    2
