@<TRIPOS>MOLECULE
tmp/2yixA00.pdb
 209 197 0 0 0
SMALL
GASTEIGER

@<TRIPOS>ATOM
      1  N         -1.0900   10.5190   21.9850 N.3    27  VAL27      -0.1231
      2  CA        -2.0730   10.4240   23.0750 C.3    27  VAL27       0.1692
      3  C         -2.3030   11.7790   23.7550 C.2    27  VAL27       0.2592
      4  O         -1.4460   12.6660   23.7020 O.2    27  VAL27      -0.2718
      5  CB        -1.7040    9.3680   24.1420 C.3    27  VAL27       0.0266
      6  CG1       -1.9830    7.9590   23.6510 C.3    27  VAL27       0.0020
      7  CG2       -0.2670    9.5360   24.6420 C.3    27  VAL27       0.0020
      8  N         -3.4460   11.8840   24.4260 N.am   28  GLY28      -0.1957
      9  CA        -3.8390   13.0350   25.2270 C.3    28  GLY28       0.1869
     10  C         -4.3800   14.2460   24.5050 C.2    28  GLY28       0.2309
     11  O         -4.7230   15.2190   25.1650 O.2    28  GLY28      -0.2863
     12  N         -0.9730   16.9880   27.1920 N.3    32  TYR32      -0.1241
     13  CA         0.3100   16.7550   27.8700 C.3    32  TYR32       0.1605
     14  C          1.4890   17.1390   26.9620 C.2    32  TYR32       0.2264
     15  O          2.6370   16.7950   27.2480 O.2    32  TYR32      -0.2867
     16  CB         0.3890   15.2690   28.3220 C.3    32  TYR32       0.0534
     17  CG        -0.7960   14.8390   29.1610 C.ar   32  TYR32      -0.0201
     18  CD1       -0.8270   15.0750   30.5310 C.ar   32  TYR32      -0.0009
     19  CD2       -1.9020   14.2300   28.5800 C.ar   32  TYR32      -0.0009
     20  CE1       -1.9380   14.7310   31.3000 C.ar   32  TYR32       0.0417
     21  CE2       -3.0220   13.8860   29.3350 C.ar   32  TYR32       0.0417
     22  CZ        -3.0450   14.1590   30.6930 C.ar   32  TYR32       0.1957
     23  OH        -4.1660   13.8640   31.4370 O.3    32  TYR32      -0.2866
     24  N          3.1960   14.0220   23.1170 N.3    35  VAL35      -0.1245
     25  CA         3.3050   12.7150   23.7690 C.3    35  VAL35       0.1561
     26  C          2.6900   11.6050   22.9040 C.2    35  VAL35       0.2260
     27  O          1.6150   11.7760   22.3130 O.2    35  VAL35      -0.2867
     28  CB         2.7520   12.7110   25.2290 C.3    35  VAL35       0.0252
     29  CG1        2.8880   11.3360   25.8860 C.3    35  VAL35       0.0019
     30  CG2        3.4330   13.7740   26.0890 C.3    35  VAL35       0.0019
     31  N          4.8880    6.2630   27.8580 N.3    48  ALA48      -0.1245
     32  CA         4.5150    7.5680   27.3260 C.3    48  ALA48       0.1562
     33  C          5.8540    8.2140   26.9790 C.2    48  ALA48       0.2260
     34  O          6.7710    8.2270   27.8140 O.2    48  ALA48      -0.2867
     35  CB         3.7650    8.3960   28.3750 C.3    48  ALA48       0.0290
     36  N          7.6030   11.6630   25.4290 N.3    50  LYS50      -0.1245
     37  CA         7.4180   13.0650   25.0770 C.3    50  LYS50       0.1561
     38  C          8.6020   13.6450   24.3080 C.2    50  LYS50       0.2260
     39  O          9.7400   13.6350   24.7860 O.2    50  LYS50      -0.2867
     40  CB         7.0770   13.9260   26.3090 C.3    50  LYS50       0.0271
     41  CG         7.0720   15.4510   26.0420 C.3    50  LYS50       0.0035
     42  CD         6.3420   16.3380   27.0420 C.3    50  LYS50       0.0206
     43  CE         6.8150   16.2260   28.4780 C.3    50  LYS50       0.1093
     44  NZ         6.2540   17.3230   29.3020 N.3    50  LYS50      -0.1314
     45  N         12.6250   20.1200   34.1580 N.3    68  GLU68      -0.1245
     46  CA        11.8350   18.9120   33.9860 C.3    68  GLU68       0.1567
     47  C         12.6740   17.6280   34.0760 C.2    68  GLU68       0.2260
     48  O         12.3570   16.7440   34.8710 O.2    68  GLU68      -0.2867
     49  CB        10.9830   18.9750   32.7290 C.3    68  GLU68       0.0388
     50  CG         9.8680   17.9370   32.7860 C.3    68  GLU68       0.1160
     51  CD         8.7940   18.0190   31.7240 C.2    68  GLU68       0.3649
     52  OE1        8.8900   18.9090   30.8510 O.co2  68  GLU68      -0.2457
     53  OE2        7.8820   17.1610   31.7350 O.co2  68  GLU68      -0.2457
     54  N         13.9360   17.0580   37.7340 N.3    71  LEU71      -0.1231
     55  CA        12.7600   16.6320   38.5300 C.3    71  LEU71       0.1693
     56  C         12.3920   15.1580   38.2550 C.2    71  LEU71       0.2591
     57  O         12.2630   14.3770   39.1940 O.2    71  LEU71      -0.2718
     58  CB        11.5600   17.5370   38.1670 C.3    71  LEU71       0.0284
     59  CG        10.9450   18.5780   39.1400 C.3    71  LEU71       0.0019
     60  CD1       11.6730   18.7350   40.4260 C.3    71  LEU71       0.0001
     61  CD2       10.7240   19.9030   38.4640 C.3    71  LEU71       0.0001
     62  N         12.2420   14.7840   36.9730 N.am   72  LEU72      -0.1980
     63  CA        11.8910   13.4100   36.5360 C.3    72  LEU72       0.1596
     64  C         12.9530   12.3700   36.9370 C.2    72  LEU72       0.2287
     65  O         12.6000   11.2380   37.3070 O.2    72  LEU72      -0.2864
     66  CB        11.6900   13.3860   35.0050 C.3    72  LEU72       0.0297
     67  CG        10.2670   13.3490   34.3950 C.3    72  LEU72       0.0022
     68  CD1        9.1350   13.4390   35.4100 C.3    72  LEU72       0.0001
     69  CD2       10.1490   14.2690   33.1860 C.3    72  LEU72       0.0001
     70  N          5.3170   10.1500   38.9920 N.3    81  ILE81      -0.1245
     71  CA         5.8480    9.8280   37.6690 C.3    81  ILE81       0.1561
     72  C          7.3830   10.0300   37.6760 C.2    81  ILE81       0.2260
     73  O          7.8970   11.0170   38.2270 O.2    81  ILE81      -0.2867
     74  CB         5.1020   10.5810   36.5260 C.3    81  ILE81       0.0252
     75  CG1        5.0370    9.7690   35.2170 C.3    81  ILE81       0.0019
     76  CG2        5.6830   11.9540   36.2650 C.3    81  ILE81       0.0019
     77  CD1        4.1090    8.5890   35.1570 C.3    81  ILE81       0.0001
     78  N         11.3790    8.7970   35.5300 N.3    83  LEU83      -0.1245
     79  CA        12.0290    8.6590   34.2400 C.3    83  LEU83       0.1561
     80  C         12.4290    7.2010   34.0210 C.2    83  LEU83       0.2260
     81  O         13.1890    6.6380   34.8090 O.2    83  LEU83      -0.2867
     82  CB        13.2610    9.5540   34.1890 C.3    83  LEU83       0.0270
     83  CG        13.4030   10.6100   33.0950 C.3    83  LEU83       0.0019
     84  CD1       14.8360   10.7440   32.6930 C.3    83  LEU83       0.0001
     85  CD2       12.5400   10.3510   31.8930 C.3    83  LEU83       0.0001
     86  N         11.6240   12.2690   26.5660 N.3   101  LEU101     -0.1231
     87  CA        11.4380   11.7810   27.9370 C.3   101  LEU101      0.1693
     88  C         10.4920   10.5860   27.9240 C.2   101  LEU101      0.2592
     89  O          9.4720   10.6190   27.2310 O.2   101  LEU101     -0.2718
     90  CB        10.9210   12.9080   28.8640 C.3   101  LEU101      0.0284
     91  CG        11.7600   14.1910   28.9060 C.3   101  LEU101      0.0019
     92  CD1       10.9380   15.3650   29.4100 C.3   101  LEU101      0.0001
     93  CD2       13.0230   14.0190   29.7830 C.3   101  LEU101      0.0001
     94  N         10.8650    9.5080   28.6350 N.am  102  VAL102     -0.1966
     95  CA        10.0900    8.2690   28.6750 C.3   102  VAL102      0.1727
     96  C          9.6600    7.9260   30.1050 C.2   102  VAL102      0.2617
     97  O         10.4700    7.9090   31.0260 O.2   102  VAL102     -0.2715
     98  CB        10.8320    7.0770   27.9820 C.3   102  VAL102      0.0290
     99  CG1        9.9980    5.8020   27.9950 C.3   102  VAL102      0.0023
    100  CG2       11.2410    7.4240   26.5530 C.3   102  VAL102      0.0023
    101  N          8.3660    7.6580   30.2750 N.am  103  THR103     -0.1937
    102  CA         7.7870    7.2450   31.5440 C.3   103  THR103      0.2028
    103  C          6.6960    6.2070   31.3460 C.2   103  THR103      0.2642
    104  O          6.3050    5.9350   30.2150 O.2   103  THR103     -0.2714
    105  CB         7.2750    8.4490   32.3340 C.3   103  THR103      0.1808
    106  OG1        7.0070    7.9640   33.6540 O.3   103  THR103     -0.2208
    107  CG2        6.0340    9.0890   31.7170 C.3   103  THR103      0.0379
    108  N          6.1710    5.6700   32.4500 N.am  104  HIS104     -0.1959
    109  CA         5.0610    4.7150   32.4220 C.3   104  HIS104      0.1787
    110  C          3.8310    5.3740   31.7970 C.2   104  HIS104      0.2620
    111  O          3.6140    6.5830   31.9450 O.2   104  HIS104     -0.2715
    112  CB         4.6860    4.2910   33.8560 C.3   104  HIS104      0.0785
    113  CG         5.6800    3.3950   34.5210 C.ar  104  HIS104      0.0821
    114  ND1        6.7140    3.9090   35.2940 N.ar  104  HIS104     -0.2267
    115  CD2        5.7570    2.0420   34.5250 C.ar  104  HIS104      0.1154
    116  CE1        7.3910    2.8540   35.7290 C.ar  104  HIS104      0.1986
    117  NE2        6.8550    1.7100   35.2870 N.ar  104  HIS104     -0.2212
    118  N          3.0370    4.5830   31.0890 N.am  105  LEU105     -0.1963
    119  CA         1.7680    5.0620   30.5550 C.3   105  LEU105      0.1728
    120  C          0.6770    4.4980   31.4740 C.2   105  LEU105      0.2616
    121  O          0.5580    3.2790   31.6390 O.2   105  LEU105     -0.2715
    122  CB         1.5450    4.5850   29.1150 C.3   105  LEU105      0.0311
    123  CG         0.2800    5.0810   28.4410 C.3   105  LEU105      0.0022
    124  CD1        0.3730    6.5640   28.1140 C.3   105  LEU105      0.0001
    125  CD2       -0.0300    4.2560   27.1990 C.3   105  LEU105      0.0001
    126  N         -0.0840    5.3780   32.1110 N.am  106  MET106     -0.1963
    127  CA        -1.1740    4.8870   32.9640 C.3   106  MET106      0.1736
    128  C         -2.4010    4.6700   32.1230 C.2   106  MET106      0.2617
    129  O         -3.1030    3.6910   32.3270 O.2   106  MET106     -0.2715
    130  CB        -1.3990    5.7770   34.1910 C.3   106  MET106      0.0427
    131  CG        -0.1630    5.8490   35.0910 C.3   106  MET106      0.0599
    132  SD         0.1170    4.3660   36.0840 S.3   106  MET106     -0.1393
    133  CE         1.2950    3.5750   35.1270 C.3   106  MET106      0.0692
    134  N         -2.5950    5.5300   31.1320 N.am  107  GLY107     -0.1940
    135  CA        -3.6600    5.4040   30.1430 C.3   107  GLY107      0.2014
    136  C         -4.8250    6.3480   30.3000 C.2   107  GLY107      0.2639
    137  O         -5.5090    6.6530   29.3210 O.2   107  GLY107     -0.2714
    138  N         -5.0720    6.7900   31.5360 N.am  108  ALA108     -0.1963
    139  CA        -6.1450    7.7130   31.8390 C.3   108  ALA108      0.1728
    140  C         -5.7410    8.6730   32.9650 C.2   108  ALA108      0.2616
    141  O         -4.7460    8.4210   33.6450 O.2   108  ALA108     -0.2715
    142  CB        -7.3880    6.9310   32.2200 C.3   108  ALA108      0.0334
    143  N         -6.4950    9.7850   33.1310 N.am  109  ASP109     -0.1971
    144  CA        -6.3160   10.7630   34.2180 C.3   109  ASP109      0.1709
    145  C         -7.4790   10.6020   35.1990 C.2   109  ASP109      0.2293
    146  O         -8.4300    9.9050   34.8580 O.2   109  ASP109     -0.2864
    147  CB        -6.1520   12.2230   33.6980 C.3   109  ASP109      0.1436
    148  CG        -7.3900   12.9450   33.1660 C.2   109  ASP109      0.3671
    149  OD1       -8.4990   12.5910   33.5670 O.co2 109  ASP109     -0.2456
    150  OD2       -7.2300   13.9510   32.4710 O.co2 109  ASP109     -0.2456
    151  N        -11.0130   10.9920   33.5920 N.3   112  ASN112     -0.1240
    152  CA       -11.3010    9.8940   32.6610 C.3   112  ASN112      0.1653
    153  C        -11.6590    8.5810   33.3840 C.2   112  ASN112      0.2266
    154  O        -11.6730    7.5170   32.7560 O.2   112  ASN112     -0.2867
    155  CB       -10.1160    9.6840   31.6870 C.3   112  ASN112      0.1155
    156  CG        -9.6520   10.9170   30.9160 C.2   112  ASN112      0.2627
    157  OD1      -10.3440   11.9620   30.8250 O.2   112  ASN112     -0.2716
    158  ND2       -8.4520   10.8050   30.3340 N.am  112  ASN112     -0.0877
    159  N         -2.3800   10.5400   36.9840 N.3   154  ALA154     -0.1245
    160  CA        -2.4170    9.4460   36.0070 C.3   154  ALA154      0.1562
    161  C         -2.8550    8.1630   36.6580 C.2   154  ALA154      0.2260
    162  O         -2.2060    7.6710   37.5730 O.2   154  ALA154     -0.2867
    163  CB        -1.0580    9.2830   35.3400 C.3   154  ALA154      0.0290
    164  N          1.6090   13.7080   38.1490 N.3   164  LEU164     -0.1231
    165  CA         2.2530   14.3310   36.9950 C.3   164  LEU164      0.1693
    166  C          2.4120   15.8200   37.2760 C.2   164  LEU164      0.2592
    167  O          1.6540   16.3700   38.0580 O.2   164  LEU164     -0.2718
    168  CB         1.2590   14.2440   35.8130 C.3   164  LEU164      0.0284
    169  CG         1.2740   13.1490   34.7480 C.3   164  LEU164      0.0019
    170  CD1        1.7940   11.8060   35.2550 C.3   164  LEU164      0.0001
    171  CD2       -0.1170   13.0080   34.1640 C.3   164  LEU164      0.0001
    172  N          3.3350   16.4840   36.5710 N.am  165  ASP165     -0.1960
    173  CA         3.5060   17.9380   36.5520 C.3   165  ASP165      0.1840
    174  C          3.8180   18.6900   37.8490 C.2   165  ASP165      0.2622
    175  O          3.4170   19.8540   38.0040 O.2   165  ASP165     -0.2715
    176  CB         2.3390   18.5800   35.7820 C.3   165  ASP165      0.1450
    177  CG         2.5170   18.5690   34.2900 C.2   165  ASP165      0.3671
    178  OD1        3.1160   17.6010   33.7740 O.co2 165  ASP165     -0.2456
    179  OD2        2.0480   19.5310   33.6300 O.co2 165  ASP165     -0.2456
    180  N          4.5390   18.0360   38.7620 N.am  166  PHE166     -0.1974
    181  CA         4.9870   18.6190   40.0390 C.3   166  PHE166      0.1639
    182  C          6.2290   19.5000   39.7700 C.2   166  PHE166      0.2290
    183  O          6.9710   19.2280   38.8330 O.2   166  PHE166     -0.2864
    184  CB         5.3170   17.5010   41.0730 C.3   166  PHE166      0.0560
    185  CG         6.1400   16.3820   40.4660 C.ar  166  PHE166     -0.0200
    186  CD1        7.5260   16.4980   40.3450 C.ar  166  PHE166     -0.0042
    187  CD2        5.5250   15.2490   39.9470 C.ar  166  PHE166     -0.0042
    188  CE1        8.2660   15.5350   39.6690 C.ar  166  PHE166     -0.0003
    189  CE2        6.2740   14.2780   39.2700 C.ar  166  PHE166     -0.0003
    190  CZ         7.6370   14.4290   39.1380 C.ar  166  PHE166     -0.0000
    191  N          6.9570   22.3740   38.3210 N.3   168  LEU168     -0.1245
    192  CA         7.2140   23.1200   37.0780 C.3   168  LEU168      0.1561
    193  C          6.5770   24.5090   37.0630 C.2   168  LEU168      0.2260
    194  O          5.6910   24.7880   37.8780 O.2   168  LEU168     -0.2867
    195  CB         6.7720   22.3020   35.8370 C.3   168  LEU168      0.0270
    196  CG         7.3400   20.8810   35.7300 C.3   168  LEU168      0.0019
    197  CD1        6.4720   20.0170   34.8440 C.3   168  LEU168      0.0001
    198  CD2        8.8260   20.8770   35.2680 C.3   168  LEU168      0.0001
    199  N          5.4300   25.7320   33.9960 N.3   170  ARG170     -0.1245
    200  CA         4.5070   25.4170   32.9080 C.3   170  ARG170      0.1563
    201  C          3.0280   25.8160   33.1950 C.2   170  ARG170      0.2260
    202  O          2.3660   26.3380   32.3010 O.2   170  ARG170     -0.2867
    203  CB         4.6330   23.9020   32.6720 C.3   170  ARG170      0.0307
    204  CG         3.7090   23.3240   31.6470 C.3   170  ARG170      0.0489
    205  CD         4.4170   22.2390   30.9190 C.3   170  ARG170      0.2205
    206  NE         4.2940   20.9290   31.5570 N.pl3 170  ARG170     -0.0865
    207  CZ         5.2770   20.0370   31.5670 C.cat 170  ARG170      0.5346
    208  NH1        6.4790   20.3570   31.0960 N.pl3 170  ARG170      0.1354
    209  NH2        5.0840   18.8350   32.0960 N.pl3 170  ARG170      0.1354
@<TRIPOS>BOND
     1     1     2    1
     2    27    26    2
     3    26    25    1
     4     2     3    1
     5     2     5    1
     6    24    25    1
     7     6     5    1
     8     4     3    2
     9     3     8   am
    10    25    28    1
    11     5     7    1
    12    38    39    2
    13    38    37    1
    14     8     9    1
    15    10    11    2
    16    10     9    1
    17    37    36    1
    18    37    40    1
    19    28    29    1
    20    28    30    1
    21    41    40    1
    22    41    42    1
    23   100    98    1
    24    86    87    1
    25    14    15    2
    26    14    13    1
    27    33    32    1
    28    33    34    2
    29    42    43    1
    30    12    13    1
    31   125   123    1
    32    89    88    2
    33    32    31    1
    34    32    35    1
    35    13    16    1
    36    88    87    1
    37    88    94   am
    38    87    90    1
    39    98    99    1
    40    98    95    1
    41   124   123    1
    42    16    17    1
    43   123   122    1
    44    43    44    1
    45    19    17   ar
    46    19    21   ar
    47    94    95    1
    48    95    96    1
    49    90    91    1
    50    91    92    1
    51    91    93    1
    52   122   119    1
    53    17    18   ar
    54   137   136    2
    55    21    22   ar
    56    96   101   am
    57    96    97    2
    58   135   136    1
    59   135   134    1
    60   104   103    2
    61   101   102    1
    62   136   138   am
    63   158   156   am
    64    18    20   ar
    65   119   118    1
    66   119   120    1
    67    22    20   ar
    68    22    23    1
    69   157   156    2
    70    52    51   ar
    71   156   155    1
    72   205   206    1
    73   205   204    1
    74   118   110   am
    75   208   207    1
    76   134   128   am
    77   103   102    1
    78   103   108   am
    79   120   121    2
    80   120   126   am
    81   138   139    1
    82   102   105    1
    83   206   207    2
    84   207   209    1
    85   204   203    1
    86   155   152    1
    87   107   105    1
    88    51    53   ar
    89    51    50    1
    90   110   111    2
    91   110   109    1
    92   139   142    1
    93   139   140    1
    94    85    83    1
    95   126   127    1
    96   128   129    2
    97   128   127    1
    98   202   201    2
    99   105   106    1
   100   109   108    1
   101   109   112    1
   102   150   148   ar
   103   152   153    1
   104   152   151    1
   105   203   200    1
   106    84    83    1
   107    49    50    1
   108    49    46    1
   109   154   153    2
   110   200   201    1
   111   200   199    1
   112   127   130    1
   113   140   143   am
   114   140   141    2
   115    83    82    1
   116   143   144    1
   117   148   149   ar
   118   148   147    1
   119    69    67    1
   120   179   177   ar
   121   147   144    1
   122   178   177   ar
   123   112   113    1
   124    46    47    1
   125    46    45    1
   126    80    79    1
   127    80    81    2
   128    47    48    2
   129   171   169    1
   130    82    79    1
   131   130   131    1
   132   144   145    1
   133    79    78    1
   134   177   176    1
   135    67    66    1
   136    67    68    1
   137   113   115   ar
   138   113   114   ar
   139   115   117   ar
   140   169   170    1
   141   169   168    1
   142   197   196    1
   143   146   145    2
   144    66    63    1
   145   131   132    1
   146   133   132    1
   147    77    75    1
   148    75    74    1
   149   198   196    1
   150   117   116   ar
   151   114   116   ar
   152   163   160    1
   153   196   195    1
   154   176   173    1
   155   168   165    1
   156   195   192    1
   157   160   161    1
   158   160   159    1
   159    76    74    1
   160    74    71    1
   161    63    64    1
   162    63    62    1
   163   173   172    1
   164   173   174    1
   165   172   166   am
   166   161   162    2
   167    64    65    2
   168    62    56   am
   169   165   166    1
   170   165   164    1
   171   193   192    1
   172   193   194    2
   173   192   191    1
   174   166   167    2
   175    71    72    1
   176    71    70    1
   177    72    73    2
   178    54    55    1
   179   174   175    2
   180   174   180   am
   181    58    55    1
   182    58    59    1
   183    56    55    1
   184    56    57    2
   185    61    59    1
   186   180   181    1
   187   183   182    2
   188   190   189   ar
   189   190   188   ar
   190    59    60    1
   191   189   187   ar
   192   188   186   ar
   193   182   181    1
   194   187   185   ar
   195   181   184    1
   196   186   185   ar
   197   185   184    1
