@<TRIPOS>MOLECULE
tmp/2yiyA00.pdb
 216 204 0 0 0
SMALL
GASTEIGER

@<TRIPOS>ATOM
      1  N        -18.4030  -55.6560  -14.2570 N.3    16  VAL16      -0.1245
      2  CA       -18.2460  -54.9650  -15.5320 C.3    16  VAL16       0.1561
      3  C        -17.4860  -55.8980  -16.4930 C.2    16  VAL16       0.2260
      4  O        -17.9010  -56.0520  -17.6460 O.2    16  VAL16      -0.2867
      5  CB       -17.5750  -53.5770  -15.3520 C.3    16  VAL16       0.0252
      6  CG1      -17.0740  -53.0130  -16.6760 C.3    16  VAL16       0.0019
      7  CG2      -18.5240  -52.5930  -14.6790 C.3    16  VAL16       0.0019
      8  N         -6.3000  -61.0350  -15.3210 N.3    21  PHE21      -0.1241
      9  CA        -6.4070  -61.3920  -13.9150 C.3    21  PHE21       0.1605
     10  C         -7.4020  -60.4350  -13.2360 C.2    21  PHE21       0.2264
     11  O         -7.7010  -59.3610  -13.7770 O.2    21  PHE21      -0.2867
     12  CB        -5.0280  -61.3880  -13.2280 C.3    21  PHE21       0.0534
     13  CG        -4.4600  -60.0220  -12.9100 C.ar   21  PHE21      -0.0203
     14  CD1       -4.7230  -59.4070  -11.6890 C.ar   21  PHE21      -0.0042
     15  CD2       -3.6340  -59.3680  -13.8140 C.ar   21  PHE21      -0.0042
     16  CE1       -4.2100  -58.1430  -11.4060 C.ar   21  PHE21      -0.0003
     17  CE2       -3.1180  -58.1070  -13.5240 C.ar   21  PHE21      -0.0003
     18  CZ        -3.3960  -57.5110  -12.3160 C.ar   21  PHE21      -0.0000
     19  N        -13.3150  -56.6540  -12.4200 N.3    24  VAL24      -0.1245
     20  CA       -13.6550  -55.2390  -12.3870 C.3    24  VAL24       0.1561
     21  C        -15.1660  -55.0830  -12.2080 C.2    24  VAL24       0.2260
     22  O        -15.9330  -55.5390  -13.0530 O.2    24  VAL24      -0.2867
     23  CB       -13.1030  -54.4290  -13.6070 C.3    24  VAL24       0.0252
     24  CG1      -13.4620  -52.9490  -13.4900 C.3    24  VAL24       0.0019
     25  CG2      -11.5920  -54.5940  -13.7570 C.3    24  VAL24       0.0019
     26  N        -14.8670  -47.3590  -10.0630 N.3    35  ALA35      -0.1245
     27  CA       -14.5590  -48.6900  -10.5690 C.3    35  ALA35       0.1562
     28  C        -13.5930  -49.3810   -9.5920 C.2    35  ALA35       0.2260
     29  O        -12.6450  -48.7620   -9.1140 O.2    35  ALA35      -0.2867
     30  CB       -13.9570  -48.6080  -11.9570 C.3    35  ALA35       0.0290
     31  N        -11.0880  -52.8540   -8.8690 N.3    37  LYS37      -0.1245
     32  CA       -10.4570  -54.0460   -9.4230 C.3    37  LYS37       0.1561
     33  C        -10.0990  -54.9080   -8.2430 C.2    37  LYS37       0.2260
     34  O         -9.3150  -54.4820   -7.4020 O.2    37  LYS37      -0.2867
     35  CB        -9.2160  -53.7620  -10.2900 C.3    37  LYS37       0.0271
     36  CG        -8.7660  -55.0280  -11.0190 C.3    37  LYS37       0.0035
     37  CD        -7.6900  -54.8410  -12.0650 C.3    37  LYS37       0.0206
     38  CE        -7.2500  -56.2150  -12.5420 C.3    37  LYS37       0.1093
     39  NZ        -6.1410  -56.1550  -13.5370 N.3    37  LYS37      -0.1314
     40  N          0.7170  -59.9170   -9.3540 N.3    47  ALA47      -0.1245
     41  CA         0.2240  -59.1520  -10.5170 C.3    47  ALA47       0.1562
     42  C         -0.5810  -57.8760  -10.1390 C.2    47  ALA47       0.2260
     43  O         -0.5650  -56.8930  -10.8850 O.2    47  ALA47      -0.2867
     44  CB        -0.6000  -60.0550  -11.4330 C.3    47  ALA47       0.0290
     45  N          2.0630  -55.2900   -9.0510 N.3    50  VAL50      -0.1231
     46  CA         2.7150  -54.7160  -10.2240 C.3    50  VAL50       0.1692
     47  C          1.8180  -53.6090  -10.7890 C.2    50  VAL50       0.2591
     48  O          2.3020  -52.4980  -11.0450 O.2    50  VAL50      -0.2718
     49  CB         3.0860  -55.7770  -11.2920 C.3    50  VAL50       0.0266
     50  CG1        3.6140  -55.1130  -12.5710 C.3    50  VAL50       0.0020
     51  CG2        4.1060  -56.7590  -10.7410 C.3    50  VAL50       0.0020
     52  N          0.4990  -53.8990  -10.9100 N.am   51  GLU51      -0.1979
     53  CA        -0.4570  -52.9250  -11.4190 C.3    51  GLU51       0.1602
     54  C         -0.5050  -51.6890  -10.5320 C.2    51  GLU51       0.2287
     55  O         -0.3460  -50.5850  -11.0400 O.2    51  GLU51      -0.2864
     56  CB        -1.8360  -53.5530  -11.6330 C.3    51  GLU51       0.0415
     57  CG        -2.8530  -52.5840  -12.2120 C.3    51  GLU51       0.1163
     58  CD        -4.0780  -53.1990  -12.8510 C.2    51  GLU51       0.3649
     59  OE1       -4.3810  -54.3790  -12.5660 O.co2  51  GLU51      -0.2457
     60  OE2       -4.7170  -52.5060  -13.6720 O.co2  51  GLU51      -0.2457
     61  N          2.5930  -49.4720  -10.8610 N.3    54  GLN54      -0.1231
     62  CA         2.6160  -48.7380  -12.1260 C.3    54  GLN54       0.1698
     63  C          1.5430  -47.6650  -12.2130 C.2    54  GLN54       0.2592
     64  O          1.8590  -46.5610  -12.6510 O.2    54  GLN54      -0.2718
     65  CB         2.5720  -49.6780  -13.3350 C.3    54  GLN54       0.0381
     66  CG         3.6880  -49.4090  -14.3340 C.3    54  GLN54       0.0905
     67  CD         3.8500  -50.5790  -15.2630 C.2    54  GLN54       0.2608
     68  OE1        3.4070  -50.5600  -16.4110 O.2    54  GLN54      -0.2717
     69  NE2        4.4450  -51.6530  -14.7720 N.am   54  GLN54      -0.0878
     70  N          0.2830  -47.9720  -11.7860 N.am   55  LEU55      -0.1980
     71  CA        -0.8360  -47.0160  -11.8010 C.3    55  LEU55       0.1596
     72  C         -0.5830  -45.8180  -10.8900 C.2    55  LEU55       0.2287
     73  O         -1.0940  -44.7320  -11.1670 O.2    55  LEU55      -0.2864
     74  CB        -2.1600  -47.6710  -11.3900 C.3    55  LEU55       0.0297
     75  CG        -2.9630  -48.4520  -12.4380 C.3    55  LEU55       0.0022
     76  CD1       -4.2080  -49.0430  -11.8060 C.3    55  LEU55       0.0001
     77  CD2       -3.3580  -47.5600  -13.6360 C.3    55  LEU55       0.0001
     78  N          2.1700  -43.0830  -12.4060 N.3    58  VAL58      -0.1245
     79  CA         1.6620  -42.3300  -13.5530 C.3    58  VAL58       0.1561
     80  C          0.6230  -41.2420  -13.1870 C.2    58  VAL58       0.2260
     81  O         -0.2720  -41.5080  -12.3910 O.2    58  VAL58      -0.2867
     82  CB         1.1630  -43.3660  -14.5990 C.3    58  VAL58       0.0252
     83  CG1        0.4000  -42.7070  -15.7300 C.3    58  VAL58       0.0019
     84  CG2        2.3340  -44.1800  -15.1560 C.3    58  VAL58       0.0019
     85  N         -4.4980  -40.5570  -18.9130 N.3    63  ILE63      -0.1231
     86  CA        -4.2590  -41.8730  -18.3480 C.3    63  ILE63       0.1692
     87  C         -5.2360  -42.0470  -17.2020 C.2    63  ILE63       0.2591
     88  O         -5.3410  -41.1570  -16.3610 O.2    63  ILE63      -0.2718
     89  CB        -2.7800  -42.1760  -17.9830 C.3    63  ILE63       0.0266
     90  CG1       -1.9200  -42.2530  -19.2690 C.3    63  ILE63       0.0019
     91  CG2       -2.6850  -43.5190  -17.2310 C.3    63  ILE63       0.0020
     92  CD1       -0.8730  -41.3870  -19.2810 C.3    63  ILE63       0.0001
     93  N         -5.9900  -43.1710  -17.2090 N.am   64  VAL64      -0.1980
     94  CA        -6.9770  -43.5200  -16.2000 C.3    64  VAL64       0.1595
     95  C         -6.4370  -43.2010  -14.7990 C.2    64  VAL64       0.2287
     96  O         -5.2740  -43.4870  -14.4700 O.2    64  VAL64      -0.2864
     97  CB        -7.4890  -44.9680  -16.3610 C.3    64  VAL64       0.0276
     98  CG1       -6.4040  -46.0070  -16.0230 C.3    64  VAL64       0.0022
     99  CG2       -8.7690  -45.2060  -15.5600 C.3    64  VAL64       0.0022
    100  N        -10.6250  -46.9700   -8.9980 N.3    78  MET78      -0.1230
    101  CA       -10.4200  -46.2010  -10.2240 C.3    78  MET78       0.1702
    102  C        -11.5530  -45.2600  -10.5430 C.2    78  MET78       0.2592
    103  O        -12.6730  -45.4190  -10.0460 O.2    78  MET78      -0.2718
    104  CB       -10.3270  -47.1860  -11.3980 C.3    78  MET78       0.0401
    105  CG        -8.9970  -47.1650  -12.1120 C.3    78  MET78       0.0596
    106  SD        -7.7340  -47.9490  -11.1200 S.3    78  MET78      -0.1393
    107  CE        -8.4990  -49.4540  -10.8630 C.3    78  MET78       0.0692
    108  N        -11.2930  -44.3310  -11.4750 N.am   79  GLU79      -0.1966
    109  CA       -12.3550  -43.4820  -11.9770 C.3    79  GLU79       0.1733
    110  C        -13.2630  -44.3760  -12.8380 C.2    79  GLU79       0.2616
    111  O        -12.8390  -45.4300  -13.3320 O.2    79  GLU79      -0.2715
    112  CB       -11.8040  -42.2910  -12.7610 C.3    79  GLU79       0.0429
    113  CG       -11.4250  -42.5940  -14.2000 C.3    79  GLU79       0.1163
    114  CD       -10.8840  -41.3860  -14.9260 C.2    79  GLU79       0.3649
    115  OE1      -11.6860  -40.4890  -15.2720 O.co2  79  GLU79      -0.2457
    116  OE2       -9.6470  -41.3100  -15.0940 O.co2  79  GLU79      -0.2457
    117  N        -14.5130  -43.9960  -12.9670 N.am   80  TYR80      -0.1960
    118  CA       -15.4030  -44.8120  -13.7560 C.3    80  TYR80       0.1771
    119  C        -15.6990  -44.1450  -15.0960 C.2    80  TYR80       0.2619
    120  O        -16.0720  -42.9650  -15.1250 O.2    80  TYR80      -0.2715
    121  CB       -16.6780  -45.1150  -12.9640 C.3    80  TYR80       0.0574
    122  CG       -17.6850  -45.9040  -13.7580 C.ar   80  TYR80      -0.0198
    123  CD1      -17.4020  -47.1930  -14.1900 C.ar   80  TYR80      -0.0009
    124  CD2      -18.9140  -45.3530  -14.1030 C.ar   80  TYR80      -0.0009
    125  CE1      -18.3160  -47.9190  -14.9440 C.ar   80  TYR80       0.0417
    126  CE2      -19.8520  -46.0810  -14.8290 C.ar   80  TYR80       0.0417
    127  CZ       -19.5430  -47.3610  -15.2610 C.ar   80  TYR80       0.1957
    128  OH       -20.4540  -48.1010  -15.9800 O.3    80  TYR80      -0.2866
    129  N        -15.5160  -44.8890  -16.2050 N.am   81  ALA81      -0.1977
    130  CA       -15.8140  -44.3540  -17.5290 C.3    81  ALA81       0.1597
    131  C        -17.1810  -44.8420  -17.9590 C.2    81  ALA81       0.2287
    132  O        -17.3410  -45.9720  -18.4410 O.2    81  ALA81      -0.2864
    133  CB       -14.7470  -44.7440  -18.5290 C.3    81  ALA81       0.0319
    134  N        -17.9380  -45.8990  -21.4430 N.3    84  GLY84      -0.1225
    135  CA       -17.3630  -47.2060  -21.7760 C.3    84  GLY84       0.1811
    136  C        -16.0840  -47.0920  -22.5890 C.2    84  GLY84       0.2280
    137  O        -15.4250  -46.0450  -22.5650 O.2    84  GLY84      -0.2866
    138  N          3.9300  -41.4430  -21.4110 N.3   118  LEU118     -0.1245
    139  CA         4.4170  -42.7350  -20.9630 C.3   118  LEU118      0.1561
    140  C          5.8420  -42.9670  -21.4470 C.2   118  LEU118      0.2260
    141  O          6.6490  -43.5510  -20.7270 O.2   118  LEU118     -0.2867
    142  CB         3.5140  -43.8630  -21.4620 C.3   118  LEU118      0.0270
    143  CG         2.1620  -44.0580  -20.8100 C.3   118  LEU118      0.0019
    144  CD1        1.4380  -45.2190  -21.4780 C.3   118  LEU118      0.0001
    145  CD2        2.3020  -44.3410  -19.3240 C.3   118  LEU118      0.0001
    146  N          7.9780  -45.9930  -20.4340 N.3   126  LEU126     -0.1231
    147  CA         6.9040  -46.9570  -20.2540 C.3   126  LEU126      0.1693
    148  C          6.2630  -47.2010  -21.6080 C.2   126  LEU126      0.2592
    149  O          5.7450  -46.2740  -22.2110 O.2   126  LEU126     -0.2718
    150  CB         5.8810  -46.4730  -19.2090 C.3   126  LEU126      0.0284
    151  CG         4.8620  -47.4710  -18.6460 C.3   126  LEU126      0.0019
    152  CD1        5.4310  -48.8850  -18.5300 C.3   126  LEU126      0.0001
    153  CD2        4.3760  -47.0070  -17.3010 C.3   126  LEU126      0.0001
    154  N          6.3830  -48.4310  -22.1210 N.am  127  ILE127     -0.1966
    155  CA         5.8230  -48.8120  -23.4120 C.3   127  ILE127      0.1727
    156  C          4.4930  -49.4460  -23.1060 C.2   127  ILE127      0.2616
    157  O          4.4330  -50.3490  -22.2810 O.2   127  ILE127     -0.2715
    158  CB         6.7370  -49.7670  -24.2060 C.3   127  ILE127      0.0290
    159  CG1        8.1910  -49.2490  -24.2660 C.3   127  ILE127      0.0022
    160  CG2        6.1650  -49.9930  -25.6030 C.3   127  ILE127      0.0023
    161  CD1        9.2530  -50.3460  -24.6120 C.3   127  ILE127      0.0001
    162  N          3.4150  -48.9550  -23.7340 N.am  128  HIS128     -0.1973
    163  CA         2.0820  -49.4960  -23.4880 C.3   128  HIS128      0.1656
    164  C          2.0080  -50.9660  -23.9140 C.2   128  HIS128      0.2291
    165  O          1.6120  -51.7980  -23.1000 O.2   128  HIS128     -0.2864
    166  CB         0.9950  -48.6440  -24.1440 C.3   128  HIS128      0.0771
    167  CG        -0.3830  -49.0010  -23.6850 C.ar  128  HIS128      0.0820
    168  ND1       -1.0250  -50.1470  -24.1330 N.ar  128  HIS128     -0.2267
    169  CD2       -1.1920  -48.3730  -22.8070 C.ar  128  HIS128      0.1154
    170  CE1       -2.2010  -50.1670  -23.5270 C.ar  128  HIS128      0.1986
    171  NE2       -2.3550  -49.1220  -22.7330 N.ar  128  HIS128     -0.2212
    172  N        -10.6260  -45.5480  -22.7130 N.3   137  LEU137     -0.1245
    173  CA       -11.9280  -45.2080  -22.1670 C.3   137  LEU137      0.1561
    174  C        -12.2910  -43.7520  -22.4280 C.2   137  LEU137      0.2260
    175  O        -11.4010  -42.9060  -22.5450 O.2   137  LEU137     -0.2867
    176  CB       -11.9930  -45.5400  -20.6760 C.3   137  LEU137      0.0270
    177  CG       -11.8520  -47.0010  -20.2580 C.3   137  LEU137      0.0019
    178  CD1      -11.8710  -47.1080  -18.7890 C.3   137  LEU137      0.0001
    179  CD2      -12.9400  -47.8780  -20.8260 C.3   137  LEU137      0.0001
    180  N         -6.2690  -43.4820  -21.3760 N.3   147  ILE147     -0.1231
    181  CA        -5.5850  -44.7440  -21.7080 C.3   147  ILE147      0.1692
    182  C         -5.5690  -45.6790  -20.4930 C.2   147  ILE147      0.2592
    183  O         -5.1330  -45.2870  -19.4070 O.2   147  ILE147     -0.2718
    184  CB        -4.1530  -44.5400  -22.2650 C.3   147  ILE147      0.0266
    185  CG1       -4.1480  -43.7390  -23.5600 C.3   147  ILE147      0.0019
    186  CG2       -3.4170  -45.8750  -22.4390 C.3   147  ILE147      0.0020
    187  CD1       -2.8340  -43.0760  -23.7770 C.3   147  ILE147      0.0001
    188  N         -5.9680  -46.9400  -20.7330 N.am  148  CYS148     -0.1956
    189  CA        -6.0410  -48.0580  -19.7910 C.3   148  CYS148      0.1843
    190  C         -5.2190  -49.1990  -20.3450 C.2   148  CYS148      0.2625
    191  O         -4.6680  -49.0910  -21.4470 O.2   148  CYS148     -0.2714
    192  CB        -7.4940  -48.4960  -19.6270 C.3   148  CYS148      0.0997
    193  SG        -8.5520  -47.2290  -18.9090 S.3   148  CYS148     -0.0797
    194  N         -5.1910  -50.3150  -19.5820 N.am  149  ASP149     -0.1957
    195  CA        -4.6510  -51.6120  -19.9610 C.3   149  ASP149      0.1840
    196  C         -5.4090  -52.6650  -19.1610 C.2   149  ASP149      0.2622
    197  O         -5.2670  -52.7580  -17.9310 O.2   149  ASP149     -0.2715
    198  CB        -3.1240  -51.7320  -19.8140 C.3   149  ASP149      0.1450
    199  CG        -2.5030  -52.9220  -20.5600 C.2   149  ASP149      0.3671
    200  OD1       -3.2510  -53.8530  -20.9340 O.co2 149  ASP149     -0.2456
    201  OD2       -1.2760  -52.8900  -20.8210 O.co2 149  ASP149     -0.2456
    202  N         -6.2500  -53.4280  -19.8740 N.am  150  PHE150     -0.1960
    203  CA        -7.0800  -54.4950  -19.3150 C.3   150  PHE150      0.1771
    204  C         -6.4620  -55.8880  -19.4070 C.2   150  PHE150      0.2620
    205  O         -7.0920  -56.8520  -18.9770 O.2   150  PHE150     -0.2715
    206  CB        -8.4970  -54.4660  -19.9200 C.3   150  PHE150      0.0574
    207  CG        -9.2820  -53.2030  -19.6340 C.ar  150  PHE150     -0.0200
    208  CD1       -9.6400  -52.8650  -18.3340 C.ar  150  PHE150     -0.0042
    209  CD2       -9.6900  -52.3700  -20.6690 C.ar  150  PHE150     -0.0042
    210  CE1      -10.3850  -51.7140  -18.0760 C.ar  150  PHE150     -0.0003
    211  CE2      -10.4510  -51.2280  -20.4130 C.ar  150  PHE150     -0.0003
    212  CZ       -10.7840  -50.9030  -19.1190 C.ar  150  PHE150     -0.0000
    213  N         -5.2290  -55.9720  -19.9050 N.am  151  GLY151     -0.1954
    214  CA        -4.4900  -57.2190  -20.0650 C.3   151  GLY151      0.1869
    215  C         -5.0570  -58.0870  -21.1740 C.2   151  GLY151      0.2309
    216  O         -4.3820  -58.9970  -21.6630 O.2   151  GLY151     -0.2863
@<TRIPOS>BOND
     1   160   158    1
     2   161   159    1
     3   159   158    1
     4   158   155    1
     5   166   167    1
     6   166   163    1
     7   168   167   ar
     8   168   170   ar
     9   164   163    1
    10   164   165    2
    11   187   185    1
    12   162   163    1
    13   162   156   am
    14   167   169   ar
    15   185   184    1
    16   170   171   ar
    17   155   156    1
    18   155   154    1
    19   156   157    2
    20   169   171   ar
    21   172   173    1
    22   136   137    2
    23   136   135    1
    24   175   174    2
    25   186   184    1
    26   174   173    1
    27   184   181    1
    28   149   148    2
    29   173   176    1
    30   154   148   am
    31   135   134    1
    32   181   180    1
    33   181   182    1
    34   216   215    2
    35   148   147    1
    36   144   143    1
    37   142   139    1
    38   142   143    1
    39   191   190    2
    40   140   139    1
    41   140   141    2
    42   138   139    1
    43   215   214    1
    44   200   199   ar
    45   179   177    1
    46   201   199   ar
    47   143   145    1
    48   188   182   am
    49   188   189    1
    50   176   177    1
    51   209   211   ar
    52   209   207   ar
    53   199   198    1
    54   182   183    2
    55   146   147    1
    56   211   212   ar
    57   190   189    1
    58   190   194   am
    59   177   178    1
    60   147   150    1
    61   214   213    1
    62   195   198    1
    63   195   194    1
    64   195   196    1
    65   206   207    1
    66   206   203    1
    67   213   204   am
    68   202   203    1
    69   202   196   am
    70   189   192    1
    71   207   208   ar
    72   192   193    1
    73   204   203    1
    74   204   205    2
    75    92    90    1
    76    90    89    1
    77   150   151    1
    78   196   197    2
    79   212   210   ar
    80    85    86    1
    81   151   152    1
    82   151   153    1
    83   133   130    1
    84   132   131    2
    85    86    89    1
    86    86    87    1
    87   208   210   ar
    88    89    91    1
    89   131   130    1
    90     4     3    2
    91   130   129    1
    92    93    87   am
    93    93    94    1
    94    87    88    2
    95     6     5    1
    96     3     2    1
    97    68    67    2
    98    97    94    1
    99    97    98    1
   100    97    99    1
   101   129   119   am
   102    94    95    1
   103   128   127    1
   104    83    82    1
   105     2     5    1
   106     2     1    1
   107     5     7    1
   108     8     9    1
   109   115   114   ar
   110    67    69   am
   111    67    66    1
   112   127   125   ar
   113   127   126   ar
   114    84    82    1
   115   120   119    2
   116   119   118    1
   117   116   114   ar
   118   125   123   ar
   119   114   113    1
   120   126   124   ar
   121    95    96    2
   122    82    79    1
   123    66    65    1
   124   113   112    1
   125   123   122   ar
   126   124   122   ar
   127     9    10    1
   128     9    12    1
   129    15    17   ar
   130    15    13   ar
   131    11    10    2
   132   122   121    1
   133    25    23    1
   134   118   117    1
   135   118   121    1
   136    60    58   ar
   137    77    75    1
   138    23    24    1
   139    23    20    1
   140    79    80    1
   141    79    78    1
   142    39    38    1
   143    17    18   ar
   144    65    62    1
   145   111   110    2
   146    12    13    1
   147    80    81    2
   148    22    21    2
   149   117   110   am
   150    13    14   ar
   151    58    59   ar
   152    58    57    1
   153   110   109    1
   154   112   109    1
   155    64    63    2
   156    50    49    1
   157    38    37    1
   158    75    76    1
   159    75    74    1
   160    19    20    1
   161    20    21    1
   162    18    16   ar
   163    63    62    1
   164    63    70   am
   165    57    56    1
   166    62    61    1
   167   105   104    1
   168   105   106    1
   169    37    36    1
   170   109   108    1
   171    30    27    1
   172    71    70    1
   173    71    74    1
   174    71    72    1
   175    14    16   ar
   176    56    53    1
   177   108   102   am
   178    44    41    1
   179    53    52    1
   180    53    54    1
   181   104   101    1
   182    49    51    1
   183    49    46    1
   184    73    72    2
   185   106   107    1
   186    48    47    2
   187    55    54    2
   188    36    35    1
   189    52    47   am
   190    43    42    2
   191    47    46    1
   192    27    26    1
   193    27    28    1
   194   102   101    1
   195   102   103    2
   196    41    42    1
   197    41    40    1
   198    35    32    1
   199   101   100    1
   200    46    45    1
   201    28    29    2
   202    32    31    1
   203    32    33    1
   204    33    34    2
