@<TRIPOS>MOLECULE
tmp/2yj0E04.pdb
 92 89 0 0 0
SMALL
GASTEIGER

@<TRIPOS>ATOM
      1  N        -43.9710  -41.6320    8.1750 N.3     6  ARG6       -0.1245
      2  CA       -44.4240  -40.4900    7.3940 C.3     6  ARG6        0.1563
      3  C        -45.6140  -39.8810    8.1170 C.2     6  ARG6        0.2260
      4  O        -46.4330  -40.6090    8.6700 O.2     6  ARG6       -0.2867
      5  CB       -44.8410  -40.9520    5.9980 C.3     6  ARG6        0.0307
      6  CG       -45.3440  -39.8550    5.0580 C.3     6  ARG6        0.0489
      7  CD       -44.2190  -39.0050    4.4890 C.3     6  ARG6        0.2205
      8  NE       -44.6960  -38.1630    3.3950 N.pl3   6  ARG6       -0.0865
      9  CZ       -45.3780  -37.0250    3.5400 C.cat   6  ARG6        0.5346
     10  NH1      -45.6790  -36.5520    4.7440 N.pl3   6  ARG6        0.1354
     11  NH2      -45.7640  -36.3470    2.4660 N.pl3   6  ARG6        0.1354
     12  N        -61.1110  -42.5910    5.2750 N.3    28  ARG28      -0.1245
     13  CA       -60.6540  -42.2580    3.9290 C.3    28  ARG28       0.1563
     14  C        -59.1590  -42.5380    3.8120 C.2    28  ARG28       0.2260
     15  O        -58.7000  -43.0510    2.7930 O.2    28  ARG28      -0.2867
     16  CB       -60.9560  -40.7960    3.5780 C.3    28  ARG28       0.0307
     17  CG       -60.3720  -40.3240    2.2380 C.3    28  ARG28       0.0489
     18  CD       -60.8030  -41.2010    1.0680 C.3    28  ARG28       0.2205
     19  NE       -60.2620  -40.7340   -0.2060 N.pl3  28  ARG28      -0.0865
     20  CZ       -59.0100  -40.9190   -0.6270 C.cat  28  ARG28       0.5346
     21  NH1      -58.1190  -41.5660    0.1190 N.pl3  28  ARG28       0.1354
     22  NH2      -58.6420  -40.4440   -1.8110 N.pl3  28  ARG28       0.1354
     23  N        -56.5730  -46.1410    1.3240 N.3    32  THR32      -0.1203
     24  CA       -55.3870  -46.1830    0.4650 C.3    32  THR32       0.1994
     25  C        -54.0790  -46.4410    1.2100 C.2    32  THR32       0.2618
     26  O        -53.1770  -47.0600    0.6600 O.2    32  THR32      -0.2717
     27  CB       -55.2290  -44.8740   -0.3240 C.3    32  THR32       0.1784
     28  OG1      -55.1280  -43.7750    0.5880 O.3    32  THR32      -0.2211
     29  CG2      -56.4140  -44.6600   -1.2510 C.3    32  THR32       0.0376
     30  N        -53.9700  -45.9640    2.4470 N.am   33  MET33      -0.1965
     31  CA       -52.7140  -46.0570    3.1910 C.3    33  MET33       0.1736
     32  C        -52.6590  -47.3000    4.0730 C.2    33  MET33       0.2616
     33  O        -53.6870  -47.7900    4.5350 O.2    33  MET33      -0.2715
     34  CB       -52.4960  -44.7960    4.0310 C.3    33  MET33       0.0427
     35  CG       -52.6400  -43.4940    3.2480 C.3    33  MET33       0.0599
     36  SD       -51.6360  -43.4210    1.7450 S.3    33  MET33      -0.1393
     37  CE       -49.9910  -43.4400    2.4450 C.3    33  MET33       0.0692
     38  N        -51.4440  -47.7940    4.2980 N.am   34  ARG34      -0.1963
     39  CA       -51.2040  -49.0060    5.0810 C.3    34  ARG34       0.1729
     40  C        -50.2660  -48.7070    6.2380 C.2    34  ARG34       0.2616
     41  O        -49.4570  -47.7780    6.1720 O.2    34  ARG34      -0.2715
     42  CB       -50.5870  -50.1010    4.2040 C.3    34  ARG34       0.0348
     43  CG       -51.4880  -50.5610    3.0740 C.3    34  ARG34       0.0492
     44  CD       -50.8000  -51.5850    2.1910 C.3    34  ARG34       0.2205
     45  NE       -49.6190  -51.0450    1.5180 N.pl3  34  ARG34      -0.0865
     46  CZ       -49.6460  -50.2190    0.4730 C.cat  34  ARG34       0.5346
     47  NH1      -50.8020  -49.8010   -0.0380 N.pl3  34  ARG34       0.1354
     48  NH2      -48.5040  -49.7990   -0.0630 N.pl3  34  ARG34       0.1354
     49  N        -50.3740  -49.5130    7.2910 N.am   35  ALA35      -0.1977
     50  CA       -49.5580  -49.3550    8.4910 C.3    35  ALA35       0.1597
     51  C        -49.7920  -48.0000    9.1700 C.2    35  ALA35       0.2287
     52  O        -48.8520  -47.3790    9.6680 O.2    35  ALA35      -0.2864
     53  CB       -48.0770  -49.5470    8.1590 C.3    35  ALA35       0.0319
     54  N        -47.8570  -42.9710    9.8130 N.3    64  PHE64      -0.1227
     55  CA       -47.8080  -44.3690    9.3790 C.3    64  PHE64       0.1736
     56  C        -46.3870  -44.8070    9.0300 C.2    64  PHE64       0.2595
     57  O        -45.5870  -44.0050    8.5520 O.2    64  PHE64      -0.2718
     58  CB       -48.7580  -44.6040    8.1950 C.3    64  PHE64       0.0547
     59  CG       -48.3950  -43.8520    6.9440 C.ar   64  PHE64      -0.0202
     60  CD1      -47.5370  -44.4090    6.0060 C.ar   64  PHE64      -0.0042
     61  CD2      -48.9510  -42.6070    6.6830 C.ar   64  PHE64      -0.0042
     62  CE1      -47.2160  -43.7250    4.8430 C.ar   64  PHE64      -0.0003
     63  CE2      -48.6390  -41.9190    5.5230 C.ar   64  PHE64      -0.0003
     64  CZ       -47.7700  -42.4770    4.6010 C.ar   64  PHE64      -0.0000
     65  N        -46.0780  -46.0790    9.2760 N.am   65  ARG65      -0.1966
     66  CA       -44.7530  -46.6190    8.9700 C.3    65  ARG65       0.1729
     67  C        -44.5470  -46.6750    7.4610 C.2    65  ARG65       0.2616
     68  O        -45.4080  -47.1650    6.7290 O.2    65  ARG65      -0.2715
     69  CB       -44.5730  -48.0210    9.5720 C.3    65  ARG65       0.0348
     70  CG       -43.2750  -48.7270    9.1530 C.3    65  ARG65       0.0492
     71  CD       -43.1720  -50.1630    9.6790 C.3    65  ARG65       0.2205
     72  NE       -44.2770  -51.0230    9.2430 N.pl3  65  ARG65      -0.0865
     73  CZ       -44.3850  -52.3220    9.5290 C.cat  65  ARG65       0.5346
     74  NH1      -43.4490  -52.9460   10.2460 N.pl3  65  ARG65       0.1354
     75  NH2      -45.4340  -53.0110    9.0870 N.pl3  65  ARG65       0.1354
     76  N        -43.4030  -46.1710    7.0060 N.am   66  LEU66      -0.1963
     77  CA       -43.0230  -46.2690    5.5970 C.3    66  LEU66       0.1728
     78  C        -42.5480  -47.6790    5.2530 C.2    66  LEU66       0.2616
     79  O        -41.7200  -48.2600    5.9560 O.2    66  LEU66      -0.2715
     80  CB       -41.9130  -45.2710    5.2510 C.3    66  LEU66       0.0311
     81  CG       -42.2950  -43.7960    5.1550 C.3    66  LEU66       0.0022
     82  CD1      -41.0450  -42.9400    5.0080 C.3    66  LEU66       0.0001
     83  CD2      -43.2440  -43.5680    3.9930 C.3    66  LEU66       0.0001
     84  N        -43.0880  -48.2140    4.1650 N.am   67  GLU67      -0.1977
     85  CA       -42.5840  -49.4340    3.5480 C.3    67  GLU67       0.1602
     86  C        -41.3470  -49.0660    2.7320 C.2    67  GLU67       0.2287
     87  O        -41.1810  -47.9110    2.3410 O.2    67  GLU67      -0.2864
     88  CB       -43.6670  -50.0600    2.6640 C.3    67  GLU67       0.0415
     89  CG       -44.9350  -50.4360    3.4460 C.3    67  GLU67       0.1163
     90  CD       -46.1160  -50.8380    2.5700 C.2    67  GLU67       0.3649
     91  OE1      -46.1580  -50.4630    1.3780 O.co2  67  GLU67      -0.2457
     92  OE2      -47.0210  -51.5240    3.0910 O.co2  67  GLU67      -0.2457
@<TRIPOS>BOND
     1    22    20    1
     2    29    27    1
     3    20    19    2
     4    20    21    1
     5    27    24    1
     6    27    28    1
     7    19    18    1
     8    48    46    1
     9    47    46    1
    10    24    25    1
    11    24    23    1
    12    46    45    2
    13    26    25    2
    14    18    17    1
    15    25    30   am
    16    91    90   ar
    17    45    44    1
    18    36    37    1
    19    36    35    1
    20    44    43    1
    21    17    16    1
    22    87    86    2
    23    30    31    1
    24    11     9    1
    25    90    92   ar
    26    90    89    1
    27    88    89    1
    28    88    85    1
    29    86    85    1
    30    15    14    2
    31    43    42    1
    32    31    34    1
    33    31    32    1
    34    35    34    1
    35     8     9    2
    36     8     7    1
    37     9    10    1
    38    85    84    1
    39    16    13    1
    40    14    13    1
    41    13    12    1
    42    83    81    1
    43    32    38   am
    44    32    33    2
    45    84    78   am
    46    42    39    1
    47    38    39    1
    48     7     6    1
    49    64    62   ar
    50    64    63   ar
    51    62    60   ar
    52    82    81    1
    53     6     5    1
    54    39    40    1
    55    81    80    1
    56    80    77    1
    57    78    77    1
    58    78    79    2
    59    63    61   ar
    60    77    76    1
    61     5     2    1
    62    60    59   ar
    63    41    40    2
    64    40    49   am
    65    61    59   ar
    66    68    67    2
    67    59    58    1
    68    76    67   am
    69    49    50    1
    70     2     3    1
    71     2     1    1
    72    67    66    1
    73     3     4    2
    74    53    50    1
    75    58    55    1
    76    50    51    1
    77    57    56    2
    78    66    65    1
    79    66    69    1
    80    56    65   am
    81    56    55    1
    82    75    73    1
    83    70    69    1
    84    70    71    1
    85    51    52    2
    86    72    73    2
    87    72    71    1
    88    55    54    1
    89    73    74    1
