@<TRIPOS>MOLECULE
tmp/2yj4A00.pdb
 108 100 0 0 0
SMALL
GASTEIGER

@<TRIPOS>ATOM
      1  N        -28.3190  -10.7310   45.4650 N.3    61  GLU61      -0.1245
      2  CA       -28.9780  -11.2910   44.2730 C.3    61  GLU61       0.1567
      3  C        -29.8650  -12.4850   44.5960 C.2    61  GLU61       0.2260
      4  O        -30.6520  -12.9180   43.7630 O.2    61  GLU61      -0.2867
      5  CB       -27.9610  -11.6910   43.2000 C.3    61  GLU61       0.0388
      6  CG       -27.1520  -10.5430   42.6380 C.3    61  GLU61       0.1160
      7  CD       -27.9060   -9.7580   41.5860 C.2    61  GLU61       0.3649
      8  OE1      -29.1470   -9.8950   41.5070 O.co2  61  GLU61      -0.2457
      9  OE2      -27.2550   -9.0050   40.8300 O.co2  61  GLU61      -0.2457
     10  N        -33.6530  -11.8580   44.1560 N.3    64  SER64      -0.1217
     11  CA       -34.2080  -11.4910   42.8620 C.3    64  SER64       0.1889
     12  C        -34.4410  -12.7540   42.0700 C.2    64  SER64       0.2288
     13  O        -33.8330  -13.7850   42.3640 O.2    64  SER64      -0.2866
     14  CB       -33.2490  -10.5830   42.1010 C.3    64  SER64       0.2089
     15  OG       -33.4810  -10.6570   40.7070 O.3    64  SER64      -0.2183
     16  N        -34.4670  -12.5000   38.5640 N.3    66  HIS66      -0.1241
     17  CA       -33.8480  -12.2270   37.2750 C.3    66  HIS66       0.1621
     18  C        -32.7860  -13.2890   36.9680 C.2    66  HIS66       0.2264
     19  O        -32.0240  -13.6950   37.8580 O.2    66  HIS66      -0.2867
     20  CB       -33.2310  -10.8240   37.2780 C.3    66  HIS66       0.0745
     21  CG       -32.8890  -10.3040   35.9160 C.ar   66  HIS66       0.0817
     22  ND1      -32.0920  -10.9950   35.0260 N.ar   66  HIS66      -0.2268
     23  CD2      -33.2270   -9.1460   35.2950 C.ar   66  HIS66       0.1154
     24  CE1      -31.9590  -10.2900   33.9170 C.ar   66  HIS66       0.1986
     25  NE2      -32.6370   -9.1640   34.0540 N.ar   66  HIS66      -0.2212
     26  N        -29.9890  -13.1540   35.5040 N.3    68  ILE68      -0.1231
     27  CA       -28.6630  -12.7060   35.8960 C.3    68  ILE68       0.1692
     28  C        -28.4210  -12.8990   37.3940 C.2    68  ILE68       0.2591
     29  O        -27.4190  -13.4900   37.7900 O.2    68  ILE68      -0.2718
     30  CB       -28.4240  -11.2500   35.4980 C.3    68  ILE68       0.0266
     31  CG1      -28.3180  -11.1480   33.9740 C.3    68  ILE68       0.0019
     32  CG2      -27.1660  -10.7080   36.1830 C.3    68  ILE68       0.0020
     33  CD1      -27.8070   -9.8170   33.4810 C.3    68  ILE68       0.0001
     34  N        -29.3370  -12.4150   38.2210 N.am   69  ALA69      -0.1980
     35  CA       -29.2450  -12.6880   39.6510 C.3    69  ALA69       0.1597
     36  C        -29.0140  -14.1760   39.8910 C.2    69  ALA69       0.2287
     37  O        -28.1750  -14.5560   40.6980 O.2    69  ALA69      -0.2864
     38  CB       -30.4970  -12.2210   40.3720 C.3    69  ALA69       0.0319
     39  N        -35.1400   -4.2800   44.3100 N.3    91  GLU91      -0.1245
     40  CA       -34.9030   -4.3660   42.8690 C.3    91  GLU91       0.1567
     41  C        -35.1110   -2.9760   42.2830 C.2    91  GLU91       0.2260
     42  O        -35.6630   -2.1030   42.9470 O.2    91  GLU91      -0.2867
     43  CB       -35.8630   -5.3460   42.2060 C.3    91  GLU91       0.0388
     44  CG       -35.3060   -6.7430   41.9760 C.3    91  GLU91       0.1160
     45  CD       -36.4030   -7.7510   41.6410 C.2    91  GLU91       0.3649
     46  OE1      -37.5820   -7.4890   41.9830 O.co2  91  GLU91      -0.2457
     47  OE2      -36.0880   -8.8010   41.0360 O.co2  91  GLU91      -0.2457
     48  N        -35.4240   -2.7570   38.4470 N.3    93  SER93      -0.1202
     49  CA       -35.9700   -3.0220   37.1110 C.3    93  SER93       0.2020
     50  C        -34.9770   -2.6740   36.0010 C.2    93  SER93       0.2619
     51  O        -34.6640   -3.5030   35.1410 O.2    93  SER93      -0.2717
     52  CB       -37.2960   -2.2770   36.8810 C.3    93  SER93       0.2103
     53  OG       -38.2120   -2.4700   37.9500 O.3    93  SER93      -0.2182
     54  N        -34.4900   -1.4400   36.0190 N.am   94  GLY94      -0.1942
     55  CA       -33.5580   -1.0030   35.0010 C.3    94  GLY94       0.2014
     56  C        -32.1240   -1.4030   35.2920 C.2    94  GLY94       0.2639
     57  O        -31.4600   -2.0060   34.4460 O.2    94  GLY94      -0.2714
     58  N        -31.6600   -1.0670   36.4950 N.am   95  ILE95      -0.1963
     59  CA       -30.2550   -1.2120   36.8740 C.3    95  ILE95       0.1727
     60  C        -29.9320   -2.6010   37.4360 C.2    95  ILE95       0.2617
     61  O        -29.1950   -3.3820   36.8270 O.2    95  ILE95      -0.2715
     62  CB       -29.8560   -0.1510   37.9180 C.3    95  ILE95       0.0290
     63  CG1      -30.4610    1.2110   37.6610 C.3    95  ILE95       0.0022
     64  CG2      -28.3370   -0.0670   38.0020 C.3    95  ILE95       0.0023
     65  CD1      -30.2620    2.2370   38.7830 C.3    95  ILE95       0.0001
     66  N        -30.4890   -2.8930   38.6060 N.am   96  GLY96      -0.1940
     67  CA       -30.2870   -4.1670   39.2620 C.3    96  GLY96       0.2014
     68  C        -30.8730   -4.1600   40.6600 C.2    96  GLY96       0.2638
     69  O        -32.0520   -3.8810   40.8490 O.2    96  GLY96      -0.2714
     70  N        -30.0430   -4.4550   41.6520 N.am   97  VAL97      -0.1977
     71  CA       -30.5520   -4.6840   42.9910 C.3    97  VAL97       0.1596
     72  C        -29.6860   -4.0140   44.0310 C.2    97  VAL97       0.2287
     73  O        -28.5490   -3.6330   43.7670 O.2    97  VAL97      -0.2864
     74  CB       -30.6360   -6.1870   43.3120 C.3    97  VAL97       0.0276
     75  CG1      -31.4850   -6.8910   42.2880 C.3    97  VAL97       0.0022
     76  CG2      -29.2490   -6.7870   43.3350 C.3    97  VAL97       0.0022
     77  N        -25.7380   -4.3140   43.3270 N.3   108  VAL108     -0.1245
     78  CA       -25.2560   -5.0880   42.2080 C.3   108  VAL108      0.1561
     79  C        -26.0170   -4.6040   40.9940 C.2   108  VAL108      0.2260
     80  O        -27.2230   -4.8030   40.8840 O.2   108  VAL108     -0.2867
     81  CB       -25.4530   -6.6090   42.3980 C.3   108  VAL108      0.0252
     82  CG1      -24.7640   -7.3600   41.2700 C.3   108  VAL108      0.0019
     83  CG2      -24.9030   -7.0550   43.7510 C.3   108  VAL108      0.0019
     84  N        -25.8360   -3.2230   36.5930 N.3   110  LYS110     -0.1245
     85  CA       -25.2050   -3.1630   35.2880 C.3   110  LYS110      0.1561
     86  C        -24.2110   -2.0080   35.1980 C.2   110  LYS110      0.2260
     87  O        -24.0700   -1.1950   36.1200 O.2   110  LYS110     -0.2867
     88  CB       -26.2730   -3.0070   34.2030 C.3   110  LYS110      0.0271
     89  CG       -27.0610   -1.7460   34.2670 C.3   110  LYS110      0.0035
     90  CD       -27.8860   -1.5890   32.9860 C.3   110  LYS110      0.0206
     91  CE       -28.8080   -0.4200   33.2060 C.3   110  LYS110      0.1093
     92  NZ       -29.4760   -0.1280   31.9140 N.3   110  LYS110     -0.1314
     93  N        -19.9070   -6.5020   32.3450 N.3   114  ASP114     -0.1225
     94  CA       -21.0640   -5.6320   32.3870 C.3   114  ASP114      0.1805
     95  C        -21.5770   -5.3960   33.8260 C.2   114  ASP114      0.2597
     96  O        -22.0310   -4.2960   34.1470 O.2   114  ASP114     -0.2718
     97  CB       -22.1730   -6.1370   31.4420 C.3   114  ASP114      0.1424
     98  CG       -22.3770   -7.6630   31.5040 C.2   114  ASP114      0.3668
     99  OD1      -21.4590   -8.4470   31.1200 O.co2 114  ASP114     -0.2456
    100  OD2      -23.4920   -8.0740   31.9080 O.co2 114  ASP114     -0.2456
    101  N        -21.4820   -6.4000   34.6980 N.am  115  ILE115     -0.1980
    102  CA       -22.1150   -6.3010   36.0220 C.3   115  ILE115      0.1595
    103  C        -21.1620   -5.9330   37.1670 C.2   115  ILE115      0.2287
    104  O        -20.1940   -6.6330   37.4420 O.2   115  ILE115     -0.2864
    105  CB       -22.9080   -7.5790   36.3850 C.3   115  ILE115      0.0276
    106  CG1      -23.9220   -7.9050   35.2920 C.3   115  ILE115      0.0022
    107  CG2      -23.6350   -7.3940   37.7140 C.3   115  ILE115      0.0022
    108  CD1      -25.0300   -6.9020   35.1680 C.3   115  ILE115      0.0001
@<TRIPOS>BOND
     1    99    98   ar
     2    97    98    1
     3    97    94    1
     4    98   100   ar
     5    92    91    1
     6    93    94    1
     7    94    95    1
     8    90    91    1
     9    90    89    1
    10    33    31    1
    11    95    96    2
    12    95   101   am
    13    24    25   ar
    14    24    22   ar
    15    31    30    1
    16    25    23   ar
    17    88    89    1
    18    88    85    1
    19    57    56    2
    20   101   102    1
    21    55    56    1
    22    55    54    1
    23    22    21   ar
    24    51    50    2
    25   108   106    1
    26    86    85    1
    27    86    87    2
    28    85    84    1
    29    56    58   am
    30   106   105    1
    31    23    21   ar
    32    30    27    1
    33    30    32    1
    34    26    27    1
    35    27    28    1
    36    21    20    1
    37    50    54   am
    38    50    49    1
    39   102   105    1
    40   102   103    1
    41   105   107    1
    42    58    59    1
    43    61    60    2
    44    59    60    1
    45    59    62    1
    46    52    49    1
    47    52    53    1
    48    18    17    1
    49    18    19    2
    50    49    48    1
    51   103   104    2
    52    17    20    1
    53    17    16    1
    54    28    29    2
    55    28    34   am
    56    60    66   am
    57    63    62    1
    58    63    65    1
    59    62    64    1
    60    34    35    1
    61    66    67    1
    62    67    68    1
    63    35    36    1
    64    35    38    1
    65    36    37    2
    66    68    69    2
    67    68    70   am
    68    15    14    1
    69     9     7   ar
    70    80    79    2
    71    79    78    1
    72    47    45   ar
    73    82    81    1
    74     8     7   ar
    75     7     6    1
    76    45    44    1
    77    45    46   ar
    78    70    71    1
    79    44    43    1
    80    12    13    2
    81    12    11    1
    82    14    11    1
    83    43    40    1
    84    78    81    1
    85    78    77    1
    86    41    40    1
    87    41    42    2
    88    75    74    1
    89    81    83    1
    90     6     5    1
    91    11    10    1
    92    40    39    1
    93    71    74    1
    94    71    72    1
    95     5     2    1
    96    74    76    1
    97     4     3    2
    98    73    72    2
    99     2     3    1
   100     2     1    1
