@<TRIPOS>MOLECULE
tmp/2yj6A00.pdb
 174 164 0 0 0
SMALL
GASTEIGER

@<TRIPOS>ATOM
      1  N          9.5400    9.7090   31.4390 N.3    35  THR35      -0.1218
      2  CA         8.1770    9.2560   31.7530 C.3    35  THR35       0.1862
      3  C          8.1190    8.1060   32.7680 C.2    35  THR35       0.2287
      4  O          8.6820    7.0410   32.5300 O.2    35  THR35      -0.2866
      5  CB         7.4650    8.7690   30.4750 C.3    35  THR35       0.1770
      6  OG1        7.6610    9.7200   29.4220 O.3    35  THR35      -0.2211
      7  CG2        5.9820    8.5480   30.7310 C.3    35  THR35       0.0375
      8  N          3.7720    9.5240   35.0760 N.3    41  GLY41      -0.1225
      9  CA         3.4550    8.8050   33.8550 C.3    41  GLY41       0.1811
     10  C          1.9560    8.7390   33.6090 C.2    41  GLY41       0.2280
     11  O          1.4620    7.7740   33.0310 O.2    41  GLY41      -0.2866
     12  N         -1.1270   10.8030   31.8230 N.3    43  PRO43      -0.2116
     13  CA        -1.5560   11.8980   30.9360 C.3    43  PRO43       0.1372
     14  C         -2.8390   12.6400   31.3740 C.2    43  PRO43       0.2244
     15  O         -3.7680   12.0440   31.9100 O.2    43  PRO43      -0.2868
     16  CB        -1.7570   11.1970   29.5870 C.3    43  PRO43       0.0268
     17  CG        -1.9720    9.7600   29.9300 C.3    43  PRO43       0.0207
     18  CD        -1.1150    9.5020   31.1370 C.3    43  PRO43       0.0892
     19  N        -13.2870    6.9570   21.9090 N.3    62  GLU62      -0.1245
     20  CA       -12.1680    6.6390   22.7890 C.3    62  GLU62       0.1567
     21  C        -12.5560    5.7190   23.9570 C.2    62  GLU62       0.2260
     22  O        -11.7090    5.0490   24.5380 O.2    62  GLU62      -0.2867
     23  CB       -11.5350    7.9200   23.3250 C.3    62  GLU62       0.0388
     24  CG       -10.8580    8.7740   22.2590 C.3    62  GLU62       0.1160
     25  CD        -9.4940    8.2260   21.8730 C.2    62  GLU62       0.3649
     26  OE1       -9.2760    6.9950   21.9970 O.co2  62  GLU62      -0.2457
     27  OE2       -8.6380    9.0340   21.4570 O.co2  62  GLU62      -0.2457
     28  N        -11.4050    2.1010   24.0320 N.3    65  SER65      -0.1217
     29  CA        -9.9800    1.7710   24.1220 C.3    65  SER65       0.1889
     30  C         -9.4590    1.7940   25.5440 C.2    65  SER65       0.2288
     31  O        -10.1080    2.3210   26.4470 O.2    65  SER65      -0.2866
     32  CB        -9.1280    2.7050   23.2760 C.3    65  SER65       0.2089
     33  OG        -9.5920    2.7210   21.9460 O.3    65  SER65      -0.2183
     34  N         -6.0440    2.5180   25.8890 N.3    67  HIS67      -0.1227
     35  CA        -4.8820    3.3860   25.8340 C.3    67  HIS67       0.1737
     36  C         -5.0090    4.4540   26.9190 C.2    67  HIS67       0.2438
     37  O         -6.1170    4.9290   27.2160 O.2    67  HIS67      -0.2733
     38  CB        -4.7490    4.0380   24.4580 C.3    67  HIS67       0.0758
     39  CG        -3.3910    4.6060   24.1920 C.ar   67  HIS67       0.0818
     40  ND1       -2.9110    5.7280   24.8360 N.ar   67  HIS67      -0.2268
     41  CD2       -2.4080    4.2100   23.3500 C.ar   67  HIS67       0.1154
     42  CE1       -1.6900    5.9920   24.4080 C.ar   67  HIS67       0.1986
     43  NE2       -1.3620    5.0860   23.5030 N.ar   67  HIS67      -0.2212
     44  N         -3.8770    4.8130   27.5410 N.am   68  PRO68      -0.2718
     45  CA        -3.8580    5.9150   28.5060 C.3    68  PRO68       0.1535
     46  C         -4.3890    7.2350   27.9090 C.2    68  PRO68       0.2598
     47  O         -5.0030    8.0060   28.6430 O.2    68  PRO68      -0.2715
     48  CB        -2.3780    6.0220   28.8720 C.3    68  PRO68       0.0310
     49  CG        -1.8700    4.6180   28.6880 C.3    68  PRO68       0.0237
     50  CD        -2.5890    4.1000   27.4890 C.3    68  PRO68       0.0939
     51  N         -4.1650    7.4830   26.6170 N.am   69  ILE69      -0.1964
     52  CA        -4.7250    8.6650   25.9620 C.3    69  ILE69       0.1727
     53  C         -6.2480    8.6150   25.9870 C.2    69  ILE69       0.2616
     54  O         -6.9110    9.5780   26.3680 O.2    69  ILE69      -0.2715
     55  CB        -4.3050    8.7890   24.4890 C.3    69  ILE69       0.0290
     56  CG1       -2.7850    8.8490   24.3450 C.3    69  ILE69       0.0022
     57  CG2       -4.9680   10.0260   23.8460 C.3    69  ILE69       0.0023
     58  CD1       -2.0870    9.5540   25.4720 C.3    69  ILE69       0.0001
     59  N         -6.7920    7.4840   25.5660 N.am   70  ALA70      -0.1977
     60  CA        -8.2270    7.2960   25.5180 C.3    70  ALA70       0.1597
     61  C         -8.8680    7.6260   26.8610 C.2    70  ALA70       0.2287
     62  O         -9.8340    8.4000   26.9260 O.2    70  ALA70      -0.2864
     63  CB        -8.5520    5.8660   25.1070 C.3    70  ALA70       0.0319
     64  N         -9.0500    0.2950   16.4130 N.3    92  GLU92      -0.1231
     65  CA        -7.9110    0.9560   17.0050 C.3    92  GLU92       0.1699
     66  C         -6.6670    0.5000   16.2750 C.2    92  GLU92       0.2592
     67  O         -6.0720   -0.5240   16.6110 O.2    92  GLU92      -0.2718
     68  CB        -7.8140    0.6300   18.4970 C.3    92  GLU92       0.0402
     69  CG        -6.7230    1.4000   19.2320 C.3    92  GLU92       0.1161
     70  CD        -6.7500    1.1840   20.7400 C.2    92  GLU92       0.3649
     71  OE1       -7.7780    0.6830   21.2530 O.co2  92  GLU92      -0.2457
     72  OE2       -5.7420    1.5180   21.4100 O.co2  92  GLU92      -0.2457
     73  N         -6.2830    1.2480   15.2540 N.am   93  ILE93      -0.1980
     74  CA        -5.0370    0.9550   14.5800 C.3    93  ILE93       0.1595
     75  C         -3.8980    1.2110   15.5530 C.2    93  ILE93       0.2287
     76  O         -3.5210    2.3540   15.8080 O.2    93  ILE93      -0.2864
     77  CB        -4.8560    1.7860   13.3090 C.3    93  ILE93       0.0276
     78  CG1       -5.9650    1.4610   12.2980 C.3    93  ILE93       0.0022
     79  CG2       -3.4850    1.5210   12.7060 C.3    93  ILE93       0.0022
     80  CD1       -7.2270    2.3230   12.4330 C.3    93  ILE93       0.0001
     81  N         -0.6520    2.0250   17.4610 N.3    95  GLY95      -0.1210
     82  CA         0.4670    2.8850   17.1300 C.3    95  GLY95       0.1956
     83  C          0.1330    4.1640   16.3840 C.2    95  GLY95       0.2612
     84  O          1.0350    4.9270   16.0420 O.2    95  GLY95      -0.2717
     85  N         -1.1460    4.4100   16.1150 N.am   96  ILE96      -0.1965
     86  CA        -1.5210    5.6410   15.4140 C.3    96  ILE96       0.1727
     87  C         -2.7210    6.3760   16.0370 C.2    96  ILE96       0.2617
     88  O         -2.6060    7.5350   16.4400 O.2    96  ILE96      -0.2715
     89  CB        -1.7640    5.4060   13.8920 C.3    96  ILE96       0.0290
     90  CG1       -0.8240    4.4240   13.2540 C.3    96  ILE96       0.0022
     91  CG2       -1.7950    6.7360   13.1740 C.3    96  ILE96       0.0023
     92  CD1        0.5970    4.8510   13.2730 C.3    96  ILE96       0.0001
     93  N         -3.8630    5.6980   16.1090 N.am   97  GLY97      -0.1940
     94  CA        -5.0680    6.3010   16.6320 C.3    97  GLY97       0.2014
     95  C         -6.2160    5.3180   16.6430 C.2    97  GLY97       0.2638
     96  O         -6.0120    4.1020   16.6900 O.2    97  GLY97      -0.2714
     97  N         -7.4300    5.8540   16.5690 N.am   98  VAL98      -0.1977
     98  CA        -8.6250    5.0690   16.7390 C.3    98  VAL98       0.1596
     99  C         -9.7110    5.5510   15.7900 C.2    98  VAL98       0.2287
    100  O         -9.5900    6.6410   15.2200 O.2    98  VAL98      -0.2864
    101  CB        -9.1200    5.2040   18.1750 C.3    98  VAL98       0.0276
    102  CG1       -9.8500    6.5480   18.3750 C.3    98  VAL98       0.0022
    103  CG2      -10.0190    4.0520   18.5200 C.3    98  VAL98       0.0022
    104  N         -9.5970    9.8550   15.5750 N.3   109  VAL109     -0.1231
    105  CA        -8.8140   10.6120   16.5600 C.3   109  VAL109      0.1692
    106  C         -7.3550   10.1670   16.4900 C.2   109  VAL109      0.2592
    107  O         -7.0840    8.9810   16.6630 O.2   109  VAL109     -0.2718
    108  CB        -9.2910   10.3380   18.0070 C.3   109  VAL109      0.0266
    109  CG1       -8.5830   11.2600   18.9750 C.3   109  VAL109      0.0020
    110  CG2      -10.8120   10.4580   18.1470 C.3   109  VAL109      0.0020
    111  N         -6.4110   11.0850   16.2590 N.am  110  LYS110     -0.1966
    112  CA        -4.9880   10.7000   16.1880 C.3   110  LYS110      0.1728
    113  C         -3.9700   11.8290   16.4290 C.2   110  LYS110      0.2616
    114  O         -4.3460   12.9450   16.7660 O.2   110  LYS110     -0.2715
    115  CB        -4.6870   10.0140   14.8490 C.3   110  LYS110      0.0311
    116  CG        -4.9060   10.9030   13.6360 C.3   110  LYS110      0.0038
    117  CD        -5.1530   10.0600   12.3940 C.3   110  LYS110      0.0206
    118  CE        -6.2950   10.6370   11.5820 C.3   110  LYS110      0.1093
    119  NZ        -7.4360   10.9880   12.4950 N.3   110  LYS110     -0.1314
    120  N         -2.6830   11.5290   16.2450 N.am  111  LYS111     -0.1977
    121  CA        -1.6230   12.5260   16.4260 C.3   111  LYS111      0.1596
    122  C         -1.7960   13.7380   15.5060 C.2   111  LYS111      0.2287
    123  O         -2.0880   13.5840   14.3200 O.2   111  LYS111     -0.2864
    124  CB        -0.2400   11.9060   16.1960 C.3   111  LYS111      0.0298
    125  CG        -0.0100   10.6620   17.0130 C.3   111  LYS111      0.0038
    126  CD         0.4000   10.9930   18.4130 C.3   111  LYS111      0.0206
    127  CE         0.7410    9.7770   19.2620 C.3   111  LYS111      0.1093
    128  NZ        -0.3190    8.7820   19.3660 N.3   111  LYS111     -0.1314
    129  N         -3.1950   16.1320   19.6860 N.3   118  ILE118     -0.1245
    130  CA        -4.2070   15.2110   19.1700 C.3   118  ILE118      0.1561
    131  C         -5.2790   15.9060   18.2990 C.2   118  ILE118      0.2260
    132  O         -5.6810   17.0310   18.5920 O.2   118  ILE118     -0.2867
    133  CB        -4.9160   14.4720   20.3310 C.3   118  ILE118      0.0252
    134  CG1       -3.9000   13.7070   21.1980 C.3   118  ILE118      0.0019
    135  CG2       -6.0210   13.5450   19.7950 C.3   118  ILE118      0.0019
    136  CD1       -3.0760   12.6810   20.4320 C.3   118  ILE118      0.0001
    137  N         -2.2630   17.4990   25.5300 N.3   132  ILE132     -0.1231
    138  CA        -2.1820   16.5010   26.5880 C.3   132  ILE132      0.1692
    139  C         -0.8230   16.5470   27.2800 C.2   132  ILE132      0.2593
    140  O          0.2030   16.6730   26.6080 O.2   132  ILE132     -0.2718
    141  CB        -2.4150   15.1060   25.9880 C.3   132  ILE132      0.0266
    142  CG1       -3.8770   14.9840   25.5670 C.3   132  ILE132      0.0019
    143  CG2       -2.0400   14.0210   26.9740 C.3   132  ILE132      0.0020
    144  CD1       -4.2130   13.6940   24.8950 C.3   132  ILE132      0.0001
    145  N         -0.8260   16.4560   28.6120 N.am  133  SER133     -0.1938
    146  CA         0.4080   16.5130   29.4110 C.3   133  SER133      0.2055
    147  C          0.5020   15.4480   30.5110 C.2   133  SER133      0.2643
    148  O         -0.4860   14.8020   30.8530 O.2   133  SER133     -0.2714
    149  CB         0.5780   17.8880   30.0570 C.3   133  SER133      0.2130
    150  OG         0.6840   18.9000   29.0730 O.3   133  SER133     -0.2179
    151  N          1.7140   15.2940   31.0490 N.am  134  ASP134     -0.1971
    152  CA         2.0250   14.3940   32.1610 C.3   134  ASP134      0.1709
    153  C          2.0720   15.2850   33.3980 C.2   134  ASP134      0.2293
    154  O          1.9870   16.5070   33.2670 O.2   134  ASP134     -0.2864
    155  CB         3.4110   13.7630   31.9230 C.3   134  ASP134      0.1436
    156  CG         3.5970   12.4080   32.6150 C.2   134  ASP134      0.3671
    157  OD1        2.9970   12.1630   33.6850 O.co2 134  ASP134     -0.2456
    158  OD2        4.3670   11.5840   32.0690 O.co2 134  ASP134     -0.2456
    159  N          9.6490   13.0800   24.1820 N.3   160  ASP160     -0.1239
    160  CA         8.8750   14.3090   23.9450 C.3   160  ASP160      0.1674
    161  C          9.6600   15.4130   23.2340 C.2   160  ASP160      0.2266
    162  O         10.8640   15.2890   22.9970 O.2   160  ASP160     -0.2867
    163  CB         8.3150   14.8530   25.2600 C.3   160  ASP160      0.1410
    164  CG         7.3050   13.9190   25.8950 C.2   160  ASP160      0.3668
    165  OD1        6.8700   12.9500   25.2310 O.co2 160  ASP160     -0.2456
    166  OD2        6.9300   14.1620   27.0570 O.co2 160  ASP160     -0.2456
    167  N          9.3630    1.5610   26.5660 N.3   208  ASN208     -0.1240
    168  CA        10.4100    1.8480   25.5980 C.3   208  ASN208      0.1653
    169  C         11.7570    2.0280   26.2690 C.2   208  ASN208      0.2266
    170  O         12.5090    2.9510   25.9440 O.2   208  ASN208     -0.2867
    171  CB        10.0650    3.1020   24.7800 C.3   208  ASN208      0.1155
    172  CG         8.8820    2.8860   23.8530 C.2   208  ASN208      0.2627
    173  OD1        8.0920    3.8020   23.6060 O.2   208  ASN208     -0.2716
    174  ND2        8.7440    1.6590   23.3460 N.am  208  ASN208     -0.0877
@<TRIPOS>BOND
     1   118   117    1
     2   118   119    1
     3    78    80    1
     4    78    77    1
     5   117   116    1
     6    79    77    1
     7    91    89    1
     8    90    92    1
     9    90    89    1
    10    77    74    1
    11   116   115    1
    12    89    86    1
    13   123   122    2
    14    74    73    1
    15    74    75    1
    16   115   112    1
    17   100    99    2
    18    73    66   am
    19    86    87    1
    20    86    85    1
    21   122   121    1
    22    75    76    2
    23   104   105    1
    24    99    98    1
    25    87    93   am
    26    87    88    2
    27    84    83    2
    28    93    94    1
    29    85    83   am
    30   112   111    1
    31   112   113    1
    32   124   121    1
    33   124   125    1
    34   120   121    1
    35   120   113   am
    36   111   106   am
    37    66    67    2
    38    66    65    1
    39    83    82    1
    40    64    65    1
    41   113   114    2
    42   106   105    1
    43   106   107    2
    44   105   108    1
    45    97    95   am
    46    97    98    1
    47    94    95    1
    48    95    96    2
    49    98   101    1
    50    65    68    1
    51   125   126    1
    52    82    81    1
    53   108   110    1
    54   108   109    1
    55   101   102    1
    56   101   103    1
    57   131   132    2
    58   131   130    1
    59   126   127    1
    60    68    69    1
    61   130   129    1
    62   130   133    1
    63    69    70    1
    64   127   128    1
    65   135   133    1
    66   133   134    1
    67   136   134    1
    68    70    71   ar
    69    70    72   ar
    70    27    25   ar
    71    25    26   ar
    72    25    24    1
    73    19    20    1
    74    33    32    1
    75    24    23    1
    76    20    23    1
    77    20    21    1
    78   162   161    2
    79   161   160    1
    80    32    29    1
    81   174   172   am
    82    41    43   ar
    83    41    39   ar
    84    43    42   ar
    85   173   172    2
    86    57    55    1
    87   172   171    1
    88   160   159    1
    89   160   163    1
    90    21    22    2
    91    28    29    1
    92    29    30    1
    93    39    38    1
    94    39    40   ar
    95    56    55    1
    96    56    58    1
    97    42    40   ar
    98    38    35    1
    99    55    52    1
   100   171   168    1
   101   144   142    1
   102    63    60    1
   103   165   164   ar
   104   163   164    1
   105    60    59    1
   106    60    61    1
   107   137   138    1
   108    30    31    2
   109    59    53   am
   110   142   141    1
   111   168   169    1
   112   168   167    1
   113    35    34    1
   114    35    36    1
   115   164   166   ar
   116   170   169    2
   117    52    53    1
   118    52    51    1
   119    53    54    2
   120   141   138    1
   121   141   143    1
   122   138   139    1
   123   140   139    2
   124    51    46   am
   125    61    62    2
   126    36    37    2
   127    36    44   am
   128   139   145   am
   129    50    44    1
   130    50    49    1
   131    44    45    1
   132    46    45    1
   133    46    47    2
   134    45    48    1
   135   145   146    1
   136    49    48    1
   137   150   149    1
   138   146   149    1
   139   146   147    1
   140     6     5    1
   141    16    17    1
   142    16    13    1
   143    17    18    1
   144     5     7    1
   145     5     2    1
   146   147   148    2
   147   147   151   am
   148    13    14    1
   149    13    12    1
   150   151   152    1
   151    18    12    1
   152    14    15    2
   153     1     2    1
   154     2     3    1
   155   155   152    1
   156   155   156    1
   157   158   156   ar
   158   152   153    1
   159     4     3    2
   160   156   157   ar
   161    11    10    2
   162   154   153    2
   163    10     9    1
   164     9     8    1
