@<TRIPOS>MOLECULE
tmp/2yj9A00.pdb
 147 141 0 0 0
SMALL
GASTEIGER

@<TRIPOS>ATOM
      1  N          9.7090   36.6980   34.6260 N.3    19  GLN19      -0.1245
      2  CA        10.1840   37.7140   33.6880 C.3    19  GLN19       0.1566
      3  C          9.6830   39.1240   34.0220 C.2    19  GLN19       0.2260
      4  O         10.2070   40.1050   33.5170 O.2    19  GLN19      -0.2867
      5  CB         9.7890   37.3700   32.2850 C.3    19  GLN19       0.0367
      6  CG         8.3030   37.3900   31.9690 C.3    19  GLN19       0.0905
      7  CD         8.0240   36.8840   30.5700 C.2    19  GLN19       0.2608
      8  OE1        7.9290   35.6760   30.3210 O.2    19  GLN19      -0.2717
      9  NE2        7.8860   37.8070   29.6460 N.am   19  GLN19      -0.0878
     10  N          9.3370   41.9640   28.0360 N.3    23  GLY23      -0.1225
     11  CA         9.0790   40.9520   26.9980 C.3    23  GLY23       0.1811
     12  C         10.2730   40.0790   26.7040 C.2    23  GLY23       0.2280
     13  O         10.7480   40.0430   25.5850 O.2    23  GLY23      -0.2866
     14  N         10.5250   36.6360   27.5030 N.3    25  CYS25      -0.1221
     15  CA        10.2090   35.2150   27.5550 C.3    25  CYS25       0.1808
     16  C         11.2500   34.3870   26.8010 C.2    25  CYS25       0.2601
     17  O         11.6660   33.3490   27.3010 O.2    25  CYS25      -0.2717
     18  CB         8.7980   34.9470   27.0210 C.3    25  CYS25       0.0970
     19  SG         8.5190   35.5250   25.3400 S.3    25  CYS25      -0.0800
     20  N         11.6510   34.8530   25.6140 N.am   26  TRP26      -0.1976
     21  CA        12.6890   34.2040   24.7950 C.3    26  TRP26       0.1640
     22  C         13.9860   33.9590   25.5590 C.2    26  TRP26       0.2290
     23  O         14.6640   32.9480   25.3370 O.2    26  TRP26      -0.2864
     24  CB        12.9250   35.0270   23.5310 C.3    26  TRP26       0.0576
     25  CG        13.3390   36.4490   23.8350 C.ar   26  TRP26       0.0006
     26  CD1       12.5210   37.5610   24.0730 C.ar   26  TRP26       0.0946
     27  CD2       14.6960   36.9200   24.0200 C.ar   26  TRP26       0.0152
     28  NE1       13.2900   38.6660   24.3510 N.ar   26  TRP26      -0.2442
     29  CE2       14.6090   38.3430   24.3370 C.ar   26  TRP26       0.0810
     30  CE3       15.9440   36.3190   23.9400 C.ar   26  TRP26       0.0012
     31  CZ2       15.7450   39.1170   24.5430 C.ar   26  TRP26       0.0191
     32  CZ3       17.0770   37.0910   24.1730 C.ar   26  TRP26       0.0001
     33  CH2       16.9800   38.4580   24.4810 C.ar   26  TRP26       0.0015
     34  N         19.9640   39.9420   16.7390 N.3    61  GLY61      -0.1225
     35  CA        18.6140   40.2110   16.2340 C.3    61  GLY61       0.1811
     36  C         17.5720   40.3490   17.3200 C.2    61  GLY61       0.2280
     37  O         16.4000   40.5900   17.0310 O.2    61  GLY61      -0.2866
     38  N         15.4910   41.9180   20.5650 N.3    63  GLU63      -0.1245
     39  CA        14.9660   43.2540   20.8480 C.3    63  GLU63       0.1567
     40  C         14.6270   43.4590   22.3210 C.2    63  GLU63       0.2260
     41  O         13.6500   44.1160   22.6460 O.2    63  GLU63      -0.2867
     42  CB        13.7730   43.5560   19.9320 C.3    63  GLU63       0.0388
     43  CG        14.2020   43.6150   18.4870 C.3    63  GLU63       0.1160
     44  CD        13.1360   44.0860   17.5300 C.2    63  GLU63       0.3649
     45  OE1       12.0700   44.5250   17.9760 O.co2  63  GLU63      -0.2457
     46  OE2       13.4010   44.0140   16.3230 O.co2  63  GLU63      -0.2457
     47  N         11.2650   43.8840   24.1830 N.3    66  ASN66      -0.1225
     48  CA        10.2630   43.8810   23.1220 C.3    66  ASN66       0.1785
     49  C         10.2600   42.5990   22.2880 C.2    66  ASN66       0.2598
     50  O          9.7320   42.5880   21.1760 O.2    66  ASN66      -0.2718
     51  CB        10.5040   45.0670   22.1850 C.3    66  ASN66       0.1169
     52  CG        10.1820   46.4210   22.8160 C.2    66  ASN66       0.2627
     53  OD1       10.7200   47.4330   22.3840 O.2    66  ASN66      -0.2716
     54  ND2        9.3020   46.4500   23.8150 N.am   66  ASN66      -0.0877
     55  N         10.8840   41.5410   22.7840 N.am   67  GLY67      -0.1942
     56  CA        10.8180   40.2500   22.1360 C.3    67  GLY67       0.2014
     57  C         12.1450   39.8020   21.5690 C.2    67  GLY67       0.2639
     58  O         13.1220   40.5540   21.5620 O.2    67  GLY67      -0.2714
     59  N         12.1630   38.5670   21.0660 N.am   68  GLY68      -0.1939
     60  CA        13.3770   37.9800   20.5550 C.3    68  GLY68       0.2014
     61  C         13.1970   36.5090   20.2990 C.2    68  GLY68       0.2639
     62  O         12.0990   35.9810   20.4460 O.2    68  GLY68      -0.2714
     63  N         14.2560   35.8650   19.8160 N.am   69  LEU69      -0.1963
     64  CA        14.2150   34.4480   19.4530 C.3    69  LEU69       0.1728
     65  C         15.2450   33.6510   20.2370 C.2    69  LEU69       0.2616
     66  O         16.3710   34.0830   20.4380 O.2    69  LEU69      -0.2715
     67  CB        14.4840   34.2680   17.9480 C.3    69  LEU69       0.0311
     68  CG        13.5320   34.8310   16.8730 C.3    69  LEU69       0.0022
     69  CD1       13.9480   34.6030   15.4040 C.3    69  LEU69       0.0001
     70  CD2       12.1460   34.2670   17.1320 C.3    69  LEU69       0.0001
     71  N         14.8420   32.4750   20.6620 N.am   70  MET70      -0.1963
     72  CA        15.7710   31.5870   21.3490 C.3    70  MET70       0.1736
     73  C         17.0300   31.2800   20.5170 C.2    70  MET70       0.2616
     74  O         18.1480   31.2930   21.0540 O.2    70  MET70      -0.2715
     75  CB        15.0530   30.2910   21.7880 C.3    70  MET70       0.0427
     76  CG        13.9790   30.5200   22.8660 C.3    70  MET70       0.0599
     77  SD        12.4160   31.1970   22.2420 S.3    70  MET70      -0.1393
     78  CE        11.5780   29.6890   21.7270 C.3    70  MET70       0.0692
     79  N         16.8530   31.0380   19.2120 N.am   71  ASP71      -0.1957
     80  CA        17.9980   30.7430   18.3540 C.3    71  ASP71       0.1840
     81  C         18.9640   31.9290   18.2670 C.2    71  ASP71       0.2622
     82  O         20.1700   31.7280   18.2410 O.2    71  ASP71      -0.2715
     83  CB        17.5750   30.3020   16.9500 C.3    71  ASP71       0.1450
     84  CG        17.0250   28.8950   16.9220 C.2    71  ASP71       0.3671
     85  OD1       17.0770   28.1840   17.9560 O.co2  71  ASP71      -0.2456
     86  OD2       16.5120   28.5390   15.8360 O.co2  71  ASP71      -0.2456
     87  N         18.4340   33.1510   18.2430 N.am   72  TYR72      -0.1974
     88  CA        19.2950   34.3300   18.2950 C.3    72  TYR72       0.1639
     89  C         20.0630   34.3770   19.6270 C.2    72  TYR72       0.2290
     90  O         21.2240   34.7880   19.6830 O.2    72  TYR72      -0.2864
     91  CB        18.4780   35.6160   18.1580 C.3    72  TYR72       0.0560
     92  CG        17.8310   35.8690   16.7930 C.ar   72  TYR72      -0.0198
     93  CD1       18.1220   35.0970   15.6640 C.ar   72  TYR72      -0.0009
     94  CD2       16.9590   36.9510   16.6270 C.ar   72  TYR72      -0.0009
     95  CE1       17.5400   35.3840   14.4420 C.ar   72  TYR72       0.0417
     96  CE2       16.3840   37.2530   15.4000 C.ar   72  TYR72       0.0417
     97  CZ        16.6680   36.4610   14.3070 C.ar   72  TYR72       0.1957
     98  OH        16.1000   36.7270   13.0760 O.3    72  TYR72      -0.2866
     99  N          8.2570   27.5200   20.9780 N.3   135  ALA135     -0.1245
    100  CA         7.3620   28.6550   20.6990 C.3   135  ALA135      0.1562
    101  C          5.9150   28.1460   20.8440 C.2   135  ALA135      0.2260
    102  O          5.5930   27.0670   20.3370 O.2   135  ALA135     -0.2867
    103  CB         7.6190   29.1710   19.2880 C.3   135  ALA135      0.0290
    104  N          0.5120   28.0240   13.9430 N.3   159  GLU159     -0.1245
    105  CA         1.4440   28.7650   13.0990 C.3   159  GLU159      0.1567
    106  C          1.8360   30.1470   13.6320 C.2   159  GLU159      0.2260
    107  O          2.8620   30.6840   13.2160 O.2   159  GLU159     -0.2867
    108  CB         0.8480   28.9410   11.6930 C.3   159  GLU159      0.0388
    109  CG         0.8100   27.6740   10.8380 C.3   159  GLU159      0.1160
    110  CD        -0.3940   26.7860   11.1060 C.2   159  GLU159      0.3649
    111  OE1       -1.5220   27.3280   11.2150 O.co2 159  GLU159     -0.2457
    112  OE2       -0.2150   25.5460   11.1900 O.co2 159  GLU159     -0.2457
    113  N          2.8160   31.8230   16.8090 N.3   161  MET161     -0.1230
    114  CA         3.2780   31.7210   18.1930 C.3   161  MET161      0.1702
    115  C          3.8070   33.0890   18.6630 C.2   161  MET161      0.2592
    116  O          4.3330   33.8760   17.8670 O.2   161  MET161     -0.2718
    117  CB         4.3850   30.6590   18.3100 C.3   161  MET161      0.0401
    118  CG         3.9650   29.2560   17.8680 C.3   161  MET161      0.0596
    119  SD         3.9610   28.8930   16.0870 S.3   161  MET161     -0.1393
    120  CE         5.7170   29.0010   15.7380 C.3   161  MET161      0.0692
    121  N          3.6310   33.3670   19.9500 N.am  162  ASP162     -0.1960
    122  CA         4.0180   34.6490   20.5280 C.3   162  ASP162      0.1840
    123  C          4.6570   34.5410   21.9070 C.2   162  ASP162      0.2622
    124  O          4.7900   35.5370   22.5950 O.2   162  ASP162     -0.2715
    125  CB         2.7960   35.5730   20.6020 C.3   162  ASP162      0.1450
    126  CG         1.6910   35.0390   21.5180 C.2   162  ASP162      0.3671
    127  OD1        1.8600   33.9750   22.1290 O.co2 162  ASP162     -0.2456
    128  OD2        0.6460   35.7310   21.6520 O.co2 162  ASP162     -0.2456
    129  N          5.1150   33.3520   22.2950 N.am  163  HIS163     -0.1959
    130  CA         5.6150   33.1590   23.6330 C.3   163  HIS163      0.1787
    131  C          6.6070   31.9940   23.6160 C.2   163  HIS163      0.2620
    132  O          6.3110   30.9190   23.0710 O.2   163  HIS163     -0.2715
    133  CB         4.4650   32.8740   24.5840 C.3   163  HIS163      0.0785
    134  CG         4.8630   32.8920   26.0320 C.ar  163  HIS163      0.0821
    135  ND1        5.6020   33.8870   26.5870 N.ar  163  HIS163     -0.2267
    136  CD2        4.5850   32.0030   27.0490 C.ar  163  HIS163      0.1154
    137  CE1        5.7710   33.6340   27.8860 C.ar  163  HIS163      0.1986
    138  NE2        5.1590   32.4800   28.1690 N.ar  163  HIS163     -0.2212
    139  N          7.7940   32.2200   24.1710 N.am  164  GLY164     -0.1954
    140  CA         8.8490   31.1970   24.2590 C.3   164  GLY164      0.1869
    141  C          8.8520   30.5940   25.6570 C.2   164  GLY164      0.2309
    142  O          8.9060   31.3220   26.6840 O.2   164  GLY164     -0.2863
    143  N          8.4510   25.5860   16.2250 N.3   210  ALA210     -0.1245
    144  CA         9.7050   26.3260   16.3290 C.3   210  ALA210      0.1562
    145  C         10.4640   25.8790   17.5820 C.2   210  ALA210      0.2260
    146  O         10.7690   26.6710   18.4950 O.2   210  ALA210     -0.2867
    147  CB         9.4660   27.8390   16.3290 C.3   210  ALA210      0.0290
@<TRIPOS>BOND
     1   109   110    1
     2   109   108    1
     3   110   112   ar
     4   110   111   ar
     5   108   105    1
     6    98    97    1
     7   105   106    1
     8   105   104    1
     9   107   106    2
    10    97    95   ar
    11    97    96   ar
    12    95    93   ar
    13    96    94   ar
    14    69    68    1
    15    93    92   ar
    16   120   119    1
    17    86    84   ar
    18   119   118    1
    19   143   144    1
    20    35    34    1
    21    35    36    1
    22    46    44   ar
    23   144   147    1
    24   144   145    1
    25    94    92   ar
    26    92    91    1
    27   113   114    1
    28    68    70    1
    29    68    67    1
    30    84    83    1
    31    84    85   ar
    32    83    80    1
    33    37    36    2
    34    44    45   ar
    35    44    43    1
    36   145   146    2
    37   116   115    2
    38   118   117    1
    39    67    64    1
    40    91    88    1
    41   114   117    1
    42   114   115    1
    43    82    81    2
    44    87    81   am
    45    87    88    1
    46    81    80    1
    47    88    89    1
    48    80    79    1
    49    43    42    1
    50   115   121   am
    51    79    73   am
    52   103   100    1
    53    64    63    1
    54    64    65    1
    55    89    90    2
    56    63    61   am
    57    42    39    1
    58   121   122    1
    59    65    66    2
    60    65    71   am
    61    61    62    2
    62    61    60    1
    63   102   101    2
    64    73    74    2
    65    73    72    1
    66   122   125    1
    67   122   123    1
    68    60    59    1
    69    38    39    1
    70   125   126    1
    71    71    72    1
    72   100   101    1
    73   100    99    1
    74    39    40    1
    75    59    57   am
    76    50    49    2
    77    72    75    1
    78   126   128   ar
    79   126   127   ar
    80    58    57    2
    81    57    56    1
    82    78    77    1
    83    75    76    1
    84   123   129   am
    85   123   124    2
    86    56    55    1
    87    51    52    1
    88    51    48    1
    89    77    76    1
    90    49    55   am
    91    49    48    1
    92   129   130    1
    93    40    41    2
    94    53    52    2
    95    52    54   am
    96   132   131    2
    97    48    47    1
    98    24    25    1
    99    24    21    1
   100   131   130    1
   101   131   139   am
   102   130   133    1
   103    25    27   ar
   104    25    26   ar
   105    30    27   ar
   106    30    32   ar
   107    27    29   ar
   108    26    28   ar
   109   139   140    1
   110    32    33   ar
   111   140   141    1
   112    29    28   ar
   113    29    31   ar
   114    33    31   ar
   115   133   134    1
   116    21    22    1
   117    21    20    1
   118    23    22    2
   119    19    18    1
   120    13    12    2
   121    20    16   am
   122   141   142    2
   123   134   135   ar
   124   134   136   ar
   125   135   137   ar
   126    12    11    1
   127    16    17    2
   128    16    15    1
   129    11    10    1
   130    18    15    1
   131   136   138   ar
   132    14    15    1
   133   137   138   ar
   134     9     7   am
   135     8     7    2
   136     7     6    1
   137     6     5    1
   138     5     2    1
   139     4     3    2
   140     2     3    1
   141     2     1    1
