@<TRIPOS>MOLECULE
tmp/2yjaB00.pdb
 140 131 0 0 0
SMALL
GASTEIGER

@<TRIPOS>ATOM
      1  N         24.6500   14.2650   -2.6130 N.3    51  VAL51      -0.1245
      2  CA        24.5440   14.5660   -4.0520 C.3    51  VAL51       0.1561
      3  C         24.3460   16.0890   -4.2180 C.2    51  VAL51       0.2260
      4  O         25.0400   16.7130   -5.0060 O.2    51  VAL51      -0.2867
      5  CB        23.3970   13.7470   -4.7110 C.3    51  VAL51       0.0252
      6  CG1       23.0840   14.2570   -6.1190 C.3    51  VAL51       0.0019
      7  CG2       23.7290   12.2580   -4.7320 C.3    51  VAL51       0.0019
      8  N         27.5200   18.4950   -3.2720 N.3    54  ILE54      -0.1231
      9  CA        28.5230   18.6840   -4.3200 C.3    54  ILE54       0.1692
     10  C         28.2010   19.9690   -5.0980 C.2    54  ILE54       0.2592
     11  O         29.0930   20.7770   -5.3110 O.2    54  ILE54      -0.2718
     12  CB        28.6150   17.4320   -5.2440 C.3    54  ILE54       0.0266
     13  CG1       29.1000   16.1840   -4.4410 C.3    54  ILE54       0.0019
     14  CG2       29.5620   17.7200   -6.4360 C.3    54  ILE54       0.0020
     15  CD1       28.8920   14.8350   -5.1050 C.3    54  ILE54       0.0001
     16  N         26.9450   20.1490   -5.5030 N.am   55  ASN55      -0.1974
     17  CA        26.4700   21.3280   -6.2330 C.3    55  ASN55       0.1688
     18  C         26.5590   22.5750   -5.3870 C.2    55  ASN55       0.2292
     19  O         26.9730   23.6170   -5.8940 O.2    55  ASN55      -0.2864
     20  CB        25.0540   21.1000   -6.7510 C.3    55  ASN55       0.1181
     21  CG        25.0190   20.0230   -7.8080 C.2    55  ASN55       0.2629
     22  OD1       25.9560   19.8710   -8.5920 O.2    55  ASN55      -0.2716
     23  ND2       23.9600   19.2330   -7.8290 N.am   55  ASN55      -0.0877
     24  N         30.2940   23.6950   -5.0900 N.3    58  LYS58      -0.1245
     25  CA        30.7000   24.3430   -6.3480 C.3    58  LYS58       0.1561
     26  C         30.2470   25.8120   -6.4330 C.2    58  LYS58       0.2260
     27  O         30.9050   26.6190   -7.0950 O.2    58  LYS58      -0.2867
     28  CB        30.2230   23.5180   -7.5570 C.3    58  LYS58       0.0271
     29  CG        30.8970   22.1350   -7.6200 C.3    58  LYS58       0.0035
     30  CD        30.8160   21.4210   -8.9840 C.3    58  LYS58       0.0206
     31  CE        29.4370   20.9710   -9.4010 C.3    58  LYS58       0.1093
     32  NZ        29.4350   20.4640  -10.8030 N.3    58  LYS58      -0.1314
     33  N         35.7420   27.8540   -4.0290 N.3    63  PHE63      -0.1241
     34  CA        35.8640   26.3950   -4.1270 C.3    63  PHE63       0.1605
     35  C         36.3090   25.8760   -5.4980 C.2    63  PHE63       0.2264
     36  O         37.2260   25.0440   -5.5750 O.2    63  PHE63      -0.2867
     37  CB        34.5670   25.7110   -3.6960 C.3    63  PHE63       0.0534
     38  CG        34.6890   24.2240   -3.4900 C.ar   63  PHE63      -0.0203
     39  CD1       35.1790   23.7100   -2.2880 C.ar   63  PHE63      -0.0042
     40  CD2       34.2240   23.3300   -4.4540 C.ar   63  PHE63      -0.0042
     41  CE1       35.2810   22.3350   -2.0890 C.ar   63  PHE63      -0.0003
     42  CE2       34.3180   21.9480   -4.2470 C.ar   63  PHE63      -0.0003
     43  CZ        34.8340   21.4650   -3.0570 C.ar   63  PHE63      -0.0000
     44  N         40.7860   19.7620   -8.8000 N.3    68  LEU68      -0.1231
     45  CA        39.7480   18.7470   -8.5950 C.3    68  LEU68       0.1693
     46  C         40.1180   17.8130   -7.4400 C.2    68  LEU68       0.2592
     47  O         39.2450   17.4670   -6.6380 O.2    68  LEU68      -0.2718
     48  CB        39.4940   17.9580   -9.8890 C.3    68  LEU68       0.0284
     49  CG        38.0410   17.5950  -10.1680 C.3    68  LEU68       0.0019
     50  CD1       37.2040   18.8450  -10.5040 C.3    68  LEU68       0.0001
     51  CD2       37.9490   16.6190  -11.3230 C.3    68  LEU68       0.0001
     52  N         41.4270   17.4450   -7.3290 N.am   69  HIS69      -0.1976
     53  CA        41.9650   16.6220   -6.2500 C.3    69  HIS69       0.1656
     54  C         41.7330   17.3220   -4.8930 C.2    69  HIS69       0.2291
     55  O         41.3930   16.6680   -3.9110 O.2    69  HIS69      -0.2864
     56  CB        43.4660   16.3680   -6.4760 C.3    69  HIS69       0.0771
     57  CG        44.0790   15.4270   -5.4820 C.ar   69  HIS69       0.0820
     58  ND1       44.8560   15.8890   -4.4240 N.ar   69  HIS69      -0.2267
     59  CD2       44.0200   14.0780   -5.4200 C.ar   69  HIS69       0.1154
     60  CE1       45.2230   14.8090   -3.7520 C.ar   69  HIS69       0.1986
     61  NE2       44.7230   13.6990   -4.3010 N.ar   69  HIS69      -0.2212
     62  N         39.3820   19.7620   -4.2500 N.3    71  GLN71      -0.1231
     63  CA        37.9320   19.8520   -4.0200 C.3    71  GLN71       0.1698
     64  C         37.4530   18.5200   -3.4300 C.2    71  GLN71       0.2592
     65  O         36.6780   18.5100   -2.4800 O.2    71  GLN71      -0.2718
     66  CB        37.1920   20.1230   -5.3410 C.3    71  GLN71       0.0381
     67  CG        37.5030   21.4950   -5.9540 C.3    71  GLN71       0.0905
     68  CD        36.7970   21.7160   -7.2720 C.2    71  GLN71       0.2608
     69  OE1       35.6680   21.2920   -7.4680 O.2    71  GLN71      -0.2717
     70  NE2       37.4310   22.4300   -8.2000 N.am   71  GLN71      -0.0878
     71  N         37.9460   17.3950   -3.9810 N.am   72  VAL72      -0.1980
     72  CA        37.6130   16.0500   -3.5110 C.3    72  VAL72       0.1595
     73  C         38.0770   15.9300   -2.0510 C.2    72  VAL72       0.2287
     74  O         37.3080   15.4790   -1.2120 O.2    72  VAL72      -0.2864
     75  CB        38.2270   14.9290   -4.4060 C.3    72  VAL72       0.0276
     76  CG1       38.2090   13.5790   -3.7020 C.3    72  VAL72       0.0022
     77  CG2       37.5300   14.8440   -5.7570 C.3    72  VAL72       0.0022
     78  N         35.8100   18.0250    0.4590 N.3    75  LEU75      -0.1231
     79  CA        34.5000   17.3840    0.6320 C.3    75  LEU75       0.1693
     80  C         34.6020   16.1100    1.4250 C.2    75  LEU75       0.2591
     81  O         33.7890   15.9040    2.3260 O.2    75  LEU75      -0.2718
     82  CB        33.8310   17.1340   -0.7200 C.3    75  LEU75       0.0284
     83  CG        33.1240   18.3420   -1.3260 C.3    75  LEU75       0.0019
     84  CD1       32.9170   18.1450   -2.8220 C.3    75  LEU75       0.0001
     85  CD2       31.7890   18.6250   -0.6170 C.3    75  LEU75       0.0001
     86  N         35.6060   15.2530    1.1300 N.am   76  GLU76      -0.1979
     87  CA        35.7880   14.0000    1.8840 C.3    76  GLU76       0.1602
     88  C         36.0750   14.2860    3.3390 C.2    76  GLU76       0.2287
     89  O         35.7140   13.5060    4.2150 O.2    76  GLU76      -0.2864
     90  CB        36.9530   13.1720    1.3220 C.3    76  GLU76       0.0415
     91  CG        36.5980   12.4940    0.0130 C.3    76  GLU76       0.1163
     92  CD        37.7530   11.7560   -0.6270 C.2    76  GLU76       0.3649
     93  OE1       38.9270   12.0850   -0.3390 O.co2  76  GLU76      -0.2457
     94  OE2       37.4770   10.8900   -1.4790 O.co2  76  GLU76      -0.2457
     95  N         27.4440    4.3640   -3.2200 N.3   234  ASP234     -0.1225
     96  CA        28.8710    4.5840   -3.4340 C.3   234  ASP234      0.1805
     97  C         29.3590    5.9480   -2.9980 C.2   234  ASP234      0.2597
     98  O         30.4820    6.0430   -2.5250 O.2   234  ASP234     -0.2718
     99  CB        29.2740    4.3370   -4.8960 C.3   234  ASP234      0.1424
    100  CG        30.7720    4.1910   -5.0830 C.2   234  ASP234      0.3668
    101  OD1       31.3930    3.4170   -4.3240 O.co2 234  ASP234     -0.2456
    102  OD2       31.3270    4.8790   -5.9580 O.co2 234  ASP234     -0.2456
    103  N         28.5500    7.0030   -3.1970 N.am  235  LEU235     -0.1979
    104  CA        28.9990    8.3430   -2.7830 C.3   235  LEU235      0.1596
    105  C         29.2560    8.3920   -1.2790 C.2   235  LEU235      0.2287
    106  O         30.3180    8.8530   -0.8660 O.2   235  LEU235     -0.2864
    107  CB        28.0050    9.4230   -3.2190 C.3   235  LEU235      0.0297
    108  CG        28.3370   10.8830   -2.8150 C.3   235  LEU235      0.0022
    109  CD1       29.6950   11.3450   -3.3940 C.3   235  LEU235      0.0001
    110  CD2       27.2280   11.8210   -3.2590 C.3   235  LEU235      0.0001
    111  N         32.3020    6.1890   -0.4270 N.3   238  GLU238     -0.1231
    112  CA        33.5430    6.8940   -0.7520 C.3   238  GLU238      0.1699
    113  C         33.8940    7.9370    0.2960 C.2   238  GLU238      0.2592
    114  O         35.0520    8.0290    0.7040 O.2   238  GLU238     -0.2718
    115  CB        33.4700    7.5450   -2.1340 C.3   238  GLU238      0.0402
    116  CG        33.7470    6.5740   -3.2700 C.3   238  GLU238      0.1161
    117  CD        33.8640    7.1830   -4.6560 C.2   238  GLU238      0.3649
    118  OE1       33.9470    8.4300   -4.7710 O.co2 238  GLU238     -0.2457
    119  OE2       33.8960    6.4000   -5.6330 O.co2 238  GLU238     -0.2457
    120  N         32.8980    8.7040    0.7500 N.am  239  MET239     -0.1979
    121  CA        33.0870    9.7380    1.7790 C.3   239  MET239      0.1605
    122  C         33.5370    9.0860    3.0860 C.2   239  MET239      0.2287
    123  O         34.4920    9.5400    3.7110 O.2   239  MET239     -0.2864
    124  CB        31.7780   10.5180    1.9980 C.3   239  MET239      0.0413
    125  CG        31.3550   11.3730    0.8160 C.3   239  MET239      0.0598
    126  SD        32.5940   12.6090    0.3870 S.3   239  MET239     -0.1393
    127  CE        31.5880   13.7350   -0.5330 C.3   239  MET239      0.0692
    128  N         37.2210    7.5350    2.9570 N.3   242  ALA242     -0.1245
    129  CA        38.2790    8.5500    2.9850 C.3   242  ALA242      0.1562
    130  C         38.8130    8.7700    4.4030 C.2   242  ALA242      0.2260
    131  O         39.9120    9.3020    4.5680 O.2   242  ALA242     -0.2867
    132  CB        37.7510    9.8570    2.4340 C.3   242  ALA242      0.0290
    133  N         41.0800    5.5410    4.9150 N.3   245  LEU245     -0.1245
    134  CA        42.1870    5.4920    3.9610 C.3   245  LEU245      0.1561
    135  C         43.3610    6.3850    4.3090 C.2   245  LEU245      0.2260
    136  O         43.1460    7.2970    5.1440 O.2   245  LEU245     -0.2867
    137  CB        41.6520    5.8050    2.5100 C.3   245  LEU245      0.0270
    138  CG        42.7050    5.7400    1.4010 C.3   245  LEU245      0.0019
    139  CD1       42.5700    4.4290    0.6670 C.3   245  LEU245      0.0001
    140  CD2       42.5440    6.9480    0.4890 C.3   245  LEU245      0.0001
@<TRIPOS>BOND
     1    51    49    1
     2    32    31    1
     3    50    49    1
     4    49    48    1
     5    48    45    1
     6    31    30    1
     7    30    29    1
     8    44    45    1
     9    45    46    1
    10    22    21    2
    11    70    68   am
    12    23    21   am
    13    21    20    1
    14    29    28    1
    15    28    25    1
    16    69    68    2
    17    46    52   am
    18    46    47    2
    19    52    53    1
    20    68    67    1
    21    27    26    2
    22    20    17    1
    23    56    53    1
    24    56    57    1
    25    14    12    1
    26    26    25    1
    27    25    24    1
    28    53    54    1
    29    17    16    1
    30    17    18    1
    31     6     5    1
    32   102   100   ar
    33    67    66    1
    34    19    18    2
    35    77    75    1
    36   119   117   ar
    37    36    35    2
    38    16    10   am
    39    35    34    1
    40    57    59   ar
    41    57    58   ar
    42    59    61   ar
    43    66    63    1
    44    11    10    2
    45    12    13    1
    46    12     9    1
    47    15    13    1
    48    10     9    1
    49   100    99    1
    50   100   101   ar
    51     4     3    2
    52    99    96    1
    53    54    55    2
    54   118   117   ar
    55     7     5    1
    56     5     2    1
    57   117   116    1
    58    40    42   ar
    59    40    38   ar
    60    58    60   ar
    61    75    76    1
    62    75    72    1
    63     9     8    1
    64    61    60   ar
    65    62    63    1
    66    42    43   ar
    67     3     2    1
    68    34    33    1
    69    34    37    1
    70     2     1    1
    71    63    64    1
    72    71    72    1
    73    71    64   am
    74    37    38    1
    75    72    73    1
    76    38    39   ar
    77    96    95    1
    78    96    97    1
    79    64    65    2
    80   109   108    1
    81   116   115    1
    82   110   108    1
    83   107   108    1
    84   107   104    1
    85   103    97   am
    86   103   104    1
    87    43    41   ar
    88    97    98    2
    89    84    83    1
    90   104   105    1
    91    39    41   ar
    92   115   112    1
    93    73    74    2
    94    94    92   ar
    95    83    82    1
    96    83    85    1
    97   105   106    2
    98   112   111    1
    99   112   113    1
   100    82    79    1
   101    92    93   ar
   102    92    91    1
   103   127   126    1
   104    91    90    1
   105   113   114    2
   106   113   120   am
   107   126   125    1
   108    78    79    1
   109   140   138    1
   110    79    80    1
   111   139   138    1
   112   120   121    1
   113   125   124    1
   114    86    80   am
   115    86    87    1
   116    90    87    1
   117   138   137    1
   118    80    81    2
   119   121   124    1
   120   121   122    1
   121    87    88    1
   122   132   129    1
   123   137   134    1
   124   128   129    1
   125   129   130    1
   126   122   123    2
   127    88    89    2
   128   134   135    1
   129   134   133    1
   130   135   136    2
   131   130   131    2
