@<TRIPOS>MOLECULE
tmp/2yjcA00.pdb
 147 141 0 0 0
SMALL
GASTEIGER

@<TRIPOS>ATOM
      1  N          9.7160   36.7500   34.3280 N.3    19  GLN19      -0.1245
      2  CA        10.2170   37.7990   33.4510 C.3    19  GLN19       0.1566
      3  C          9.6650   39.1850   33.7710 C.2    19  GLN19       0.2260
      4  O         10.1910   40.1770   33.2920 O.2    19  GLN19      -0.2867
      5  CB         9.8650   37.4490   32.0030 C.3    19  GLN19       0.0367
      6  CG         8.3700   37.4640   31.6900 C.3    19  GLN19       0.0905
      7  CD         8.0630   37.0200   30.2800 C.2    19  GLN19       0.2608
      8  OE1        8.0070   35.8180   29.9810 O.2    19  GLN19      -0.2717
      9  NE2        7.9150   37.9680   29.3830 N.am   19  GLN19      -0.0878
     10  N          9.4160   42.0890   27.8720 N.3    23  GLY23      -0.1225
     11  CA         9.1730   41.1100   26.7920 C.3    23  GLY23       0.1811
     12  C         10.3710   40.2300   26.4940 C.2    23  GLY23       0.2280
     13  O         10.8410   40.2060   25.3750 O.2    23  GLY23      -0.2866
     14  N         10.5920   36.7550   27.2290 N.3    25  CYS25      -0.1221
     15  CA        10.2790   35.3280   27.2550 C.3    25  CYS25       0.1808
     16  C         11.3130   34.4820   26.5070 C.2    25  CYS25       0.2601
     17  O         11.6960   33.4330   26.9570 O.2    25  CYS25      -0.2717
     18  CB         8.8780   35.0710   26.7010 C.3    25  CYS25       0.0970
     19  SG         8.6010   35.6580   25.0280 S.3    25  CYS25      -0.0800
     20  N         11.7340   34.9700   25.3510 N.am   26  TRP26      -0.1976
     21  CA        12.7300   34.3180   24.5190 C.3    26  TRP26       0.1640
     22  C         14.0330   34.0710   25.2410 C.2    26  TRP26       0.2290
     23  O         14.7040   33.0630   25.0080 O.2    26  TRP26      -0.2864
     24  CB        12.9560   35.1840   23.2520 C.3    26  TRP26       0.0576
     25  CG        13.3870   36.5930   23.5850 C.ar   26  TRP26       0.0006
     26  CD1       12.5790   37.7000   23.8310 C.ar   26  TRP26       0.0946
     27  CD2       14.7540   37.0490   23.7660 C.ar   26  TRP26       0.0152
     28  NE1       13.3490   38.7860   24.1270 N.ar   26  TRP26      -0.2442
     29  CE2       14.6680   38.4590   24.1030 C.ar   26  TRP26       0.0810
     30  CE3       16.0010   36.4430   23.6960 C.ar   26  TRP26       0.0012
     31  CZ2       15.8030   39.2250   24.3670 C.ar   26  TRP26       0.0191
     32  CZ3       17.1340   37.2100   23.9450 C.ar   26  TRP26       0.0001
     33  CH2       17.0390   38.5640   24.2900 C.ar   26  TRP26       0.0015
     34  N         20.0470   40.2270   16.5320 N.3    61  GLY61      -0.1225
     35  CA        18.6960   40.5240   16.0550 C.3    61  GLY61       0.1811
     36  C         17.6530   40.6140   17.1510 C.2    61  GLY61       0.2280
     37  O         16.4850   40.8840   16.8660 O.2    61  GLY61      -0.2866
     38  N         15.5540   42.1080   20.3980 N.3    63  GLU63      -0.1245
     39  CA        15.0160   43.4230   20.6750 C.3    63  GLU63       0.1567
     40  C         14.7000   43.6160   22.1550 C.2    63  GLU63       0.2260
     41  O         13.7450   44.3000   22.5280 O.2    63  GLU63      -0.2867
     42  CB        13.8150   43.6590   19.7520 C.3    63  GLU63       0.0388
     43  CG        14.2250   43.7010   18.2810 C.3    63  GLU63       0.1160
     44  CD        13.0770   43.9180   17.2820 C.2    63  GLU63       0.3649
     45  OE1       11.8860   44.0080   17.6650 O.co2  63  GLU63      -0.2457
     46  OE2       13.3770   43.9790   16.0680 O.co2  63  GLU63      -0.2457
     47  N         11.3830   44.0440   24.0320 N.3    66  ASN66      -0.1225
     48  CA        10.3550   44.0350   23.0020 C.3    66  ASN66       0.1785
     49  C         10.4050   42.7880   22.0840 C.2    66  ASN66       0.2598
     50  O          9.9950   42.8190   20.9300 O.2    66  ASN66      -0.2718
     51  CB        10.4730   45.3030   22.1560 C.3    66  ASN66       0.1169
     52  CG        10.1020   46.5820   22.9340 C.2    66  ASN66       0.2627
     53  OD1       10.6730   47.6360   22.7050 O.2    66  ASN66      -0.2716
     54  ND2        9.1580   46.4740   23.8410 N.am   66  ASN66      -0.0877
     55  N         10.9270   41.6940   22.6070 N.am   67  GLY67      -0.1942
     56  CA        10.9010   40.4240   21.9040 C.3    67  GLY67       0.2014
     57  C         12.2200   39.9970   21.3180 C.2    67  GLY67       0.2639
     58  O         13.1930   40.7500   21.3050 O.2    67  GLY67      -0.2714
     59  N         12.2530   38.7420   20.8860 N.am   68  GLY68      -0.1939
     60  CA        13.4790   38.1490   20.3310 C.3    68  GLY68       0.2014
     61  C         13.2500   36.6890   20.0360 C.2    68  GLY68       0.2639
     62  O         12.1320   36.1660   20.1900 O.2    68  GLY68      -0.2714
     63  N         14.3260   36.0450   19.5940 N.am   69  LEU69      -0.1963
     64  CA        14.2890   34.6400   19.1940 C.3    69  LEU69       0.1728
     65  C         15.3080   33.8470   19.9960 C.2    69  LEU69       0.2616
     66  O         16.4390   34.2970   20.2100 O.2    69  LEU69      -0.2715
     67  CB        14.5930   34.4600   17.7120 C.3    69  LEU69       0.0311
     68  CG        13.5670   35.0530   16.7400 C.3    69  LEU69       0.0022
     69  CD1       14.1350   34.9460   15.3330 C.3    69  LEU69       0.0001
     70  CD2       12.1920   34.4100   16.8460 C.3    69  LEU69       0.0001
     71  N         14.9140   32.6440   20.3850 N.am   70  MET70      -0.1963
     72  CA        15.8290   31.7440   21.0730 C.3    70  MET70       0.1736
     73  C         17.0590   31.4610   20.2160 C.2    70  MET70       0.2616
     74  O         18.1730   31.4530   20.7690 O.2    70  MET70      -0.2715
     75  CB        15.1120   30.4650   21.4950 C.3    70  MET70       0.0427
     76  CG        14.0230   30.7360   22.5280 C.3    70  MET70       0.0599
     77  SD        12.4400   31.3940   21.9450 S.3    70  MET70      -0.1393
     78  CE        11.6300   29.8820   21.4470 C.3    70  MET70       0.0692
     79  N         16.8960   31.2660   18.9160 N.am   71  ASP71      -0.1957
     80  CA        18.0510   30.9660   18.0910 C.3    71  ASP71       0.1840
     81  C         19.0250   32.1600   18.0230 C.2    71  ASP71       0.2622
     82  O         20.2260   31.9570   17.9220 O.2    71  ASP71      -0.2715
     83  CB        17.6380   30.5380   16.6830 C.3    71  ASP71       0.1450
     84  CG        17.0410   29.1410   16.6210 C.2    71  ASP71       0.3671
     85  OD1       17.0870   28.4340   17.6520 O.co2  71  ASP71      -0.2456
     86  OD2       16.5350   28.8040   15.5030 O.co2  71  ASP71      -0.2456
     87  N         18.5110   33.3840   18.0350 N.am   72  TYR72      -0.1974
     88  CA        19.3630   34.5570   18.0820 C.3    72  TYR72       0.1639
     89  C         20.1440   34.5820   19.4070 C.2    72  TYR72       0.2290
     90  O         21.3170   34.9670   19.4350 O.2    72  TYR72      -0.2864
     91  CB        18.5670   35.8500   17.9330 C.3    72  TYR72       0.0560
     92  CG        17.8700   36.1490   16.5930 C.ar   72  TYR72      -0.0198
     93  CD1       18.1130   35.4280   15.4310 C.ar   72  TYR72      -0.0009
     94  CD2       16.9780   37.2050   16.5120 C.ar   72  TYR72      -0.0009
     95  CE1       17.4710   35.7690   14.2340 C.ar   72  TYR72       0.0417
     96  CE2       16.3300   37.5540   15.3340 C.ar   72  TYR72       0.0417
     97  CZ        16.5780   36.8440   14.1850 C.ar   72  TYR72       0.1957
     98  OH        15.9020   37.2020   13.0220 O.3    72  TYR72      -0.2866
     99  N          8.2860   27.7300   20.5810 N.3   135  ALA135     -0.1245
    100  CA         7.3920   28.8390   20.3650 C.3   135  ALA135      0.1562
    101  C          5.9640   28.3200   20.4730 C.2   135  ALA135      0.2260
    102  O          5.6280   27.2930   19.9190 O.2   135  ALA135     -0.2867
    103  CB         7.6490   29.3990   18.9680 C.3   135  ALA135      0.0290
    104  N          0.4900   28.2230   13.5160 N.3   159  GLU159     -0.1245
    105  CA         1.4040   29.0310   12.6900 C.3   159  GLU159      0.1567
    106  C          1.7820   30.4040   13.2800 C.2   159  GLU159      0.2260
    107  O          2.8070   30.9600   12.8920 O.2   159  GLU159     -0.2867
    108  CB         0.7920   29.2680   11.2960 C.3   159  GLU159      0.0388
    109  CG         0.8090   28.0560   10.3750 C.3   159  GLU159      0.1160
    110  CD        -0.3610   27.1120   10.6030 C.2   159  GLU159      0.3649
    111  OE1       -1.5270   27.5750   10.5570 O.co2 159  GLU159     -0.2457
    112  OE2       -0.1130   25.9020   10.8110 O.co2 159  GLU159     -0.2457
    113  N          2.8160   32.0430   16.4090 N.3   161  MET161     -0.1230
    114  CA         3.3540   31.9340   17.7760 C.3   161  MET161      0.1702
    115  C          3.8520   33.2890   18.2750 C.2   161  MET161      0.2592
    116  O          4.3600   34.0900   17.4950 O.2   161  MET161     -0.2718
    117  CB         4.4910   30.9120   17.8460 C.3   161  MET161      0.0401
    118  CG         4.0520   29.4930   17.4990 C.3   161  MET161      0.0596
    119  SD         4.0240   29.1200   15.7270 S.3   161  MET161     -0.1393
    120  CE         5.7860   29.1690   15.3730 C.3   161  MET161      0.0692
    121  N          3.7120   33.5290   19.5750 N.am  162  ASP162     -0.1960
    122  CA         4.0870   34.8230   20.1360 C.3   162  ASP162      0.1840
    123  C          4.7420   34.7310   21.5110 C.2   162  ASP162      0.2622
    124  O          4.9150   35.7480   22.1770 O.2   162  ASP162     -0.2715
    125  CB         2.8600   35.7470   20.2010 C.3   162  ASP162      0.1450
    126  CG         1.7690   35.2230   21.1160 C.2   162  ASP162      0.3671
    127  OD1        1.9500   34.1840   21.7910 O.co2 162  ASP162     -0.2456
    128  OD2        0.7070   35.8890   21.1590 O.co2 162  ASP162     -0.2456
    129  N          5.1240   33.5340   21.9370 N.am  163  HIS163     -0.1959
    130  CA         5.6840   33.3490   23.2600 C.3   163  HIS163      0.1787
    131  C          6.6570   32.1740   23.2480 C.2   163  HIS163      0.2620
    132  O          6.3230   31.0870   22.7710 O.2   163  HIS163     -0.2715
    133  CB         4.5240   33.1430   24.2340 C.3   163  HIS163      0.0785
    134  CG         4.9200   33.1430   25.6820 C.ar  163  HIS163      0.0821
    135  ND1        5.6220   34.1510   26.2550 N.ar  163  HIS163     -0.2267
    136  CD2        4.6440   32.2340   26.7060 C.ar  163  HIS163      0.1154
    137  CE1        5.8010   33.8730   27.5650 C.ar  163  HIS163      0.1986
    138  NE2        5.2070   32.7030   27.8350 N.ar  163  HIS163     -0.2212
    139  N          7.8670   32.3990   23.7720 N.am  164  GLY164     -0.1954
    140  CA         8.8950   31.3740   23.8790 C.3   164  GLY164      0.1869
    141  C          8.8740   30.7560   25.2400 C.2   164  GLY164      0.2309
    142  O          8.9010   31.4820   26.2560 O.2   164  GLY164     -0.2863
    143  N          8.4540   25.8360   15.8960 N.3   213  ALA213     -0.1245
    144  CA         9.7350   26.5320   15.9730 C.3   213  ALA213      0.1562
    145  C         10.4730   26.0840   17.2340 C.2   213  ALA213      0.2260
    146  O         10.7600   26.8450   18.1420 O.2   213  ALA213     -0.2867
    147  CB         9.5600   28.0440   15.9630 C.3   213  ALA213      0.0290
@<TRIPOS>BOND
     1   109   110    1
     2   109   108    1
     3   111   110   ar
     4   110   112   ar
     5   108   105    1
     6   105   106    1
     7   105   104    1
     8   107   106    2
     9    98    97    1
    10    97    95   ar
    11    97    96   ar
    12    95    93   ar
    13    69    68    1
    14    96    94   ar
    15   120   119    1
    16    93    92   ar
    17    86    84   ar
    18   119   118    1
    19   143   144    1
    20   147   144    1
    21   144   145    1
    22    35    34    1
    23    35    36    1
    24    46    44   ar
    25   113   114    1
    26    94    92   ar
    27    92    91    1
    28    84    83    1
    29    84    85   ar
    30    83    80    1
    31    68    70    1
    32    68    67    1
    33    37    36    2
    34   145   146    2
    35    44    45   ar
    36    44    43    1
    37   116   115    2
    38   118   117    1
    39    67    64    1
    40   114   117    1
    41   114   115    1
    42    82    81    2
    43    91    88    1
    44    81    87   am
    45    81    80    1
    46    87    88    1
    47    88    89    1
    48    80    79    1
    49   115   121   am
    50    43    42    1
    51    79    73   am
    52   103   100    1
    53    64    63    1
    54    64    65    1
    55    89    90    2
    56   121   122    1
    57    63    61   am
    58    42    39    1
    59   102   101    2
    60    65    66    2
    61    65    71   am
    62    61    62    2
    63    61    60    1
    64   122   125    1
    65   122   123    1
    66   125   126    1
    67    73    74    2
    68    73    72    1
    69    60    59    1
    70   100   101    1
    71   100    99    1
    72    71    72    1
    73    38    39    1
    74    39    40    1
    75    59    57   am
    76    50    49    2
    77    72    75    1
    78   126   128   ar
    79   126   127   ar
    80    58    57    2
    81    57    56    1
    82    78    77    1
    83    75    76    1
    84   123   129   am
    85   123   124    2
    86    56    55    1
    87   129   130    1
    88    77    76    1
    89    49    55   am
    90    49    48    1
    91    40    41    2
    92    51    52    1
    93    51    48    1
    94    53    52    2
    95   132   131    2
    96    52    54   am
    97    48    47    1
    98   131   130    1
    99   131   139   am
   100    24    25    1
   101    24    21    1
   102   130   133    1
   103    25    27   ar
   104    25    26   ar
   105    30    27   ar
   106    30    32   ar
   107    27    29   ar
   108   139   140    1
   109    26    28   ar
   110   140   141    1
   111    32    33   ar
   112    29    28   ar
   113    29    31   ar
   114   133   134    1
   115    33    31   ar
   116    21    22    1
   117    21    20    1
   118    23    22    2
   119    19    18    1
   120   141   142    2
   121    20    16   am
   122    13    12    2
   123   134   135   ar
   124   134   136   ar
   125   135   137   ar
   126    12    11    1
   127    16    17    2
   128    16    15    1
   129    18    15    1
   130   136   138   ar
   131    11    10    1
   132    14    15    1
   133   137   138   ar
   134     9     7   am
   135     8     7    2
   136     7     6    1
   137     6     5    1
   138     5     2    1
   139     4     3    2
   140     2     3    1
   141     2     1    1
