@<TRIPOS>MOLECULE
tmp/2yjdA00.pdb
 116 108 0 0 0
SMALL
GASTEIGER

@<TRIPOS>ATOM
      1  N         -7.3660  -30.2470    3.6810 N.3    45  VAL45      -0.1245
      2  CA        -6.6750  -31.5130    3.9770 C.3    45  VAL45       0.1561
      3  C         -7.7510  -32.6190    4.1460 C.2    45  VAL45       0.2260
      4  O         -7.6940  -33.6240    3.4390 O.2    45  VAL45      -0.2867
      5  CB        -5.7190  -31.3980    5.2020 C.3    45  VAL45       0.0252
      6  CG1       -5.1460  -32.7640    5.5890 C.3    45  VAL45       0.0019
      7  CG2       -4.5850  -30.4140    4.9150 C.3    45  VAL45       0.0019
      8  N         -9.8910  -33.6790    0.8530 N.3    48  ILE48      -0.1245
      9  CA        -9.1920  -34.6550    0.0200 C.3    48  ILE48       0.1561
     10  C         -9.4440  -36.0620    0.5750 C.2    48  ILE48       0.2260
     11  O         -9.8260  -36.9470   -0.2010 O.2    48  ILE48      -0.2867
     12  CB        -7.6980  -34.2710   -0.2190 C.3    48  ILE48       0.0252
     13  CG1       -7.6160  -33.0320   -1.1370 C.3    48  ILE48       0.0019
     14  CG2       -6.8960  -35.4290   -0.8320 C.3    48  ILE48       0.0019
     15  CD1       -6.3710  -32.1750   -0.9510 C.3    48  ILE48       0.0001
     16  N        -11.8660  -39.1450   -1.2380 N.3    52  LYS52      -0.1245
     17  CA       -11.3080  -40.4970   -1.4080 C.3    52  LYS52       0.1561
     18  C        -12.2460  -41.5830   -0.8690 C.2    52  LYS52       0.2260
     19  O        -12.1880  -42.7170   -1.3440 O.2    52  LYS52      -0.2867
     20  CB        -9.9310  -40.5970   -0.7530 C.3    52  LYS52       0.0271
     21  CG        -8.8140  -39.9540   -1.5780 C.3    52  LYS52       0.0035
     22  CD        -7.5060  -39.8910   -0.8000 C.3    52  LYS52       0.0206
     23  CE        -6.8190  -41.2240   -0.6500 C.3    52  LYS52       0.1093
     24  NZ        -5.8700  -41.1930    0.4850 N.3    52  LYS52      -0.1314
     25  N        -14.7520  -42.8720   -6.2950 N.3    57  PHE57      -0.1227
     26  CA       -13.9590  -41.6630   -6.6350 C.3    57  PHE57       0.1736
     27  C        -12.5010  -41.9970   -6.9680 C.2    57  PHE57       0.2595
     28  O        -11.9150  -41.4010   -7.8770 O.2    57  PHE57      -0.2718
     29  CB       -14.0160  -40.5970   -5.5200 C.3    57  PHE57       0.0547
     30  CG       -13.2240  -39.3310   -5.8070 C.ar   57  PHE57      -0.0202
     31  CD1      -13.8090  -38.2570   -6.4780 C.ar   57  PHE57      -0.0042
     32  CD2      -11.8900  -39.2170   -5.4180 C.ar   57  PHE57      -0.0042
     33  CE1      -13.0750  -37.0960   -6.7540 C.ar   57  PHE57      -0.0003
     34  CE2      -11.1530  -38.0640   -5.7170 C.ar   57  PHE57      -0.0003
     35  CZ       -11.7530  -37.0100   -6.3780 C.ar   57  PHE57      -0.0000
     36  N        -11.9180  -42.9290   -6.2120 N.am   58  VAL58      -0.1980
     37  CA       -10.5360  -43.3990   -6.3820 C.3    58  VAL58       0.1595
     38  C        -10.3920  -44.2980   -7.6340 C.2    58  VAL58       0.2287
     39  O         -9.2710  -44.5770   -8.0770 O.2    58  VAL58      -0.2864
     40  CB        -9.9510  -44.0380   -5.0790 C.3    58  VAL58       0.0276
     41  CG1       -9.8890  -43.0190   -3.9380 C.3    58  VAL58       0.0022
     42  CG2      -10.7170  -45.2930   -4.6560 C.3    58  VAL58       0.0022
     43  N         -6.8130  -40.2480  -12.5300 N.3    62  LEU62      -0.1245
     44  CA        -6.1550  -39.3050  -11.6220 C.3    62  LEU62       0.1561
     45  C         -6.3590  -37.8830  -12.1150 C.2    62  LEU62       0.2260
     46  O         -6.5730  -36.9860  -11.2950 O.2    62  LEU62      -0.2867
     47  CB        -4.6620  -39.6320  -11.4280 C.3    62  LEU62       0.0270
     48  CG        -3.9370  -38.9000  -10.2890 C.3    62  LEU62       0.0019
     49  CD1       -4.2100  -39.5500   -8.9320 C.3    62  LEU62       0.0001
     50  CD2       -2.4520  -38.8580  -10.5430 C.3    62  LEU62       0.0001
     51  N         -9.8340  -36.8670  -10.8830 N.3    65  GLN65      -0.1231
     52  CA        -9.7730  -36.6960   -9.4270 C.3    65  GLN65       0.1698
     53  C         -9.1830  -35.3270   -9.0520 C.2    65  GLN65       0.2592
     54  O         -9.8210  -34.5710   -8.3050 O.2    65  GLN65      -0.2718
     55  CB        -8.9650  -37.8120   -8.7660 C.3    65  GLN65       0.0381
     56  CG        -9.6250  -39.1840   -8.8310 C.3    65  GLN65       0.0905
     57  CD        -8.7700  -40.2180   -8.1400 C.2    65  GLN65       0.2608
     58  OE1       -8.3960  -40.0710   -6.9670 O.2    65  GLN65      -0.2717
     59  NE2       -8.4170  -41.2730   -8.8630 N.am   65  GLN65      -0.0878
     60  N         -7.9970  -34.9950   -9.6220 N.am   66  VAL66      -0.1980
     61  CA        -7.2870  -33.7210   -9.3990 C.3    66  VAL66       0.1595
     62  C         -8.1340  -32.5470   -9.9240 C.2    66  VAL66       0.2287
     63  O         -8.3730  -31.5950   -9.1800 O.2    66  VAL66      -0.2864
     64  CB        -5.8080  -33.7410   -9.9260 C.3    66  VAL66       0.0276
     65  CG1       -5.1290  -32.3820   -9.7850 C.3    66  VAL66       0.0022
     66  CG2       -4.9760  -34.7960   -9.2020 C.3    66  VAL66       0.0022
     67  N        -11.4980  -31.8700   -7.7410 N.3    69  LEU69      -0.1231
     68  CA       -11.1440  -31.2490   -6.4660 C.3    69  LEU69       0.1693
     69  C        -10.6780  -29.8040   -6.6310 C.2    69  LEU69       0.2591
     70  O        -11.1460  -28.9350   -5.9010 O.2    69  LEU69      -0.2718
     71  CB       -10.1140  -32.0950   -5.6920 C.3    69  LEU69       0.0284
     72  CG       -10.6500  -33.3740   -5.0470 C.3    69  LEU69       0.0019
     73  CD1       -9.5470  -34.3900   -4.8800 C.3    69  LEU69       0.0001
     74  CD2      -11.2800  -33.0940   -3.6760 C.3    69  LEU69       0.0001
     75  N         -9.8020  -29.5340   -7.6190 N.am   70  GLU70      -0.1979
     76  CA        -9.2710  -28.1930   -7.8680 C.3    70  GLU70       0.1602
     77  C        -10.3070  -27.2010   -8.3860 C.2    70  GLU70       0.2287
     78  O        -10.1550  -26.0050   -8.1760 O.2    70  GLU70      -0.2864
     79  CB        -8.0470  -28.2560   -8.7930 C.3    70  GLU70       0.0415
     80  CG        -6.8330  -28.8390   -8.0820 C.3    70  GLU70       0.1163
     81  CD        -5.5530  -28.9740   -8.8830 C.2    70  GLU70       0.3649
     82  OE1       -5.5870  -28.7630  -10.1160 O.co2  70  GLU70      -0.2457
     83  OE2       -4.5170  -29.3320   -8.2770 O.co2  70  GLU70      -0.2457
     84  N         -0.0200  -23.2950    2.3980 N.3   215  ASP215     -0.1225
     85  CA         0.4510  -24.4770    1.6430 C.3   215  ASP215      0.1805
     86  C         -0.5100  -25.0990    0.6060 C.2   215  ASP215      0.2597
     87  O         -0.3390  -24.8370   -0.5870 O.2   215  ASP215     -0.2718
     88  CB         1.0120  -25.5490    2.5970 C.3   215  ASP215      0.1424
     89  CG         2.1820  -25.0870    3.4420 C.2   215  ASP215      0.3668
     90  OD1        3.3070  -25.0050    2.9050 O.co2 215  ASP215     -0.2456
     91  OD2        1.9770  -24.8330    4.6450 O.co2 215  ASP215     -0.2456
     92  N         -1.4930  -25.9240    1.0520 N.am  216  LEU216     -0.1979
     93  CA        -2.4900  -26.5850    0.1920 C.3   216  LEU216      0.1596
     94  C         -3.4260  -25.5590   -0.4330 C.2   216  LEU216      0.2287
     95  O         -3.7940  -25.7050   -1.5990 O.2   216  LEU216     -0.2864
     96  CB        -3.3430  -27.5810    0.9960 C.3   216  LEU216      0.0297
     97  CG        -3.6830  -28.9660    0.3950 C.3   216  LEU216      0.0022
     98  CD1       -4.7600  -29.6270    1.1970 C.3   216  LEU216      0.0001
     99  CD2       -4.1460  -28.9130   -1.0660 C.3   216  LEU216      0.0001
    100  N         -1.8550  -24.2500   -3.3440 N.3   219  GLU219     -0.1231
    101  CA        -1.8580  -25.2830   -4.3920 C.3   219  GLU219      0.1699
    102  C         -3.2140  -25.3050   -5.1120 C.2   219  GLU219      0.2592
    103  O         -3.2560  -25.4240   -6.3380 O.2   219  GLU219     -0.2718
    104  CB        -1.5670  -26.6750   -3.7980 C.3   219  GLU219      0.0402
    105  CG        -0.2440  -27.2840   -4.2180 C.3   219  GLU219      0.1161
    106  CD         0.9440  -26.8580   -3.3820 C.2   219  GLU219      0.3649
    107  OE1        1.1960  -27.4980   -2.3350 O.co2 219  GLU219     -0.2457
    108  OE2        1.6290  -25.8860   -3.7770 O.co2 219  GLU219     -0.2457
    109  N         -4.3100  -25.1700   -4.3360 N.am  220  MET220     -0.1979
    110  CA        -5.7040  -25.1720   -4.8000 C.3   220  MET220      0.1605
    111  C         -6.0590  -23.9130   -5.5500 C.2   220  MET220      0.2287
    112  O         -6.7370  -23.9770   -6.5800 O.2   220  MET220     -0.2864
    113  CB        -6.6680  -25.3650   -3.6130 C.3   220  MET220      0.0413
    114  CG        -6.6670  -26.7780   -3.0570 C.3   220  MET220      0.0598
    115  SD        -6.9800  -28.0340   -4.3190 S.3   220  MET220     -0.1393
    116  CE        -7.5850  -29.3630   -3.2870 C.3   220  MET220      0.0692
@<TRIPOS>BOND
     1    43    44    1
     2    45    44    1
     3    45    46    2
     4    44    47    1
     5    47    48    1
     6    51    52    1
     7    50    48    1
     8    48    49    1
     9    82    81   ar
    10    64    65    1
    11    64    61    1
    12    64    66    1
    13    62    61    1
    14    62    63    2
    15    60    61    1
    16    60    53   am
    17    52    53    1
    18    52    55    1
    19    53    54    2
    20    81    83   ar
    21    81    80    1
    22    59    57   am
    23    56    55    1
    24    56    57    1
    25    79    80    1
    26    79    76    1
    27    77    78    2
    28    77    76    1
    29    57    58    2
    30    39    38    2
    31    28    27    2
    32    76    75    1
    33    67    68    1
    34    38    37    1
    35    75    69   am
    36    27    26    1
    37    27    36   am
    38    33    31   ar
    39    33    35   ar
    40    26    25    1
    41    26    29    1
    42    69    68    1
    43    69    70    2
    44   112   111    2
    45    31    30   ar
    46    68    71    1
    47    37    36    1
    48    37    40    1
    49    35    34   ar
    50   103   102    2
    51    30    29    1
    52    30    32   ar
    53    34    32   ar
    54    71    72    1
    55   111   110    1
    56   102   101    1
    57   102   109   am
    58    40    42    1
    59    40    41    1
    60    72    73    1
    61    72    74    1
    62   110   109    1
    63   110   113    1
    64   101   104    1
    65   101   100    1
    66   115   116    1
    67   115   114    1
    68   105   104    1
    69   105   106    1
    70   108   106   ar
    71   113   114    1
    72   106   107   ar
    73    95    94    2
    74    21    22    1
    75    21    20    1
    76    17    16    1
    77    17    18    1
    78    17    20    1
    79    19    18    2
    80    13    15    1
    81    13    12    1
    82    99    97    1
    83    14    12    1
    84    22    23    1
    85    23    24    1
    86    87    86    2
    87    94    93    1
    88    12     9    1
    89    11    10    2
    90     9    10    1
    91     9     8    1
    92    93    96    1
    93    93    92    1
    94    97    96    1
    95    97    98    1
    96    86    92   am
    97    86    85    1
    98    85    84    1
    99    85    88    1
   100    88    89    1
   101    90    89   ar
   102     4     3    2
   103    89    91   ar
   104     1     2    1
   105     2     3    1
   106     2     5    1
   107     7     5    1
   108     5     6    1
