@<TRIPOS>MOLECULE
tmp/2yjdA01.pdb
 178 168 0 0 0
SMALL
GASTEIGER

@<TRIPOS>ATOM
      1  N         -9.1280  -12.2880    7.2920 N.3    33  MET33      -0.1245
      2  CA        -8.5740  -13.0060    6.1490 C.3    33  MET33       0.1570
      3  C         -7.5800  -14.0650    6.6050 C.2    33  MET33       0.2261
      4  O         -7.5180  -15.1350    5.9990 O.2    33  MET33      -0.2867
      5  CB        -7.9390  -12.0540    5.1220 C.3    33  MET33       0.0387
      6  CG        -8.9260  -11.3950    4.1760 C.3    33  MET33       0.0595
      7  SD       -10.3130  -12.4260    3.6110 S.3    33  MET33      -0.1393
      8  CE        -9.4640  -13.6480    2.5830 C.3    33  MET33       0.0692
      9  N         -9.8810  -16.9340    8.0410 N.3    36  LEU36      -0.1231
     10  CA       -10.5460  -17.6970    6.9820 C.3    36  LEU36       0.1693
     11  C         -9.5920  -18.5870    6.1950 C.2    36  LEU36       0.2592
     12  O         -9.9030  -19.7660    6.0070 O.2    36  LEU36      -0.2718
     13  CB       -11.4120  -16.8310    6.0490 C.3    36  LEU36       0.0284
     14  CG       -12.5910  -16.0710    6.6780 C.3    36  LEU36       0.0019
     15  CD1      -13.5540  -15.5800    5.6070 C.3    36  LEU36       0.0001
     16  CD2      -13.3520  -16.9390    7.6630 C.3    36  LEU36       0.0001
     17  N         -8.4150  -18.0490    5.7900 N.am   37  THR37      -0.1953
     18  CA        -7.4090  -18.8220    5.0430 C.3    37  THR37       0.1897
     19  C         -6.8750  -19.9730    5.8790 C.2    37  THR37       0.2313
     20  O         -6.7430  -21.0850    5.3550 O.2    37  THR37      -0.2863
     21  CB        -6.2950  -17.9480    4.4150 C.3    37  THR37       0.1794
     22  OG1       -5.5110  -17.2830    5.4200 O.3    37  THR37      -0.2208
     23  CG2       -6.8190  -16.9930    3.3450 C.3    37  THR37       0.0378
     24  N         -8.4510  -21.5400    8.3960 N.3    39  LEU39      -0.1231
     25  CA        -9.5460  -22.5060    8.4740 C.3    39  LEU39       0.1693
     26  C         -9.6710  -23.3090    7.1640 C.2    39  LEU39       0.2591
     27  O         -9.6460  -24.5400    7.2120 O.2    39  LEU39      -0.2718
     28  CB       -10.8540  -21.7760    8.8210 C.3    39  LEU39       0.0284
     29  CG       -12.1540  -22.5510    8.7170 C.3    39  LEU39       0.0019
     30  CD1      -12.2830  -23.5900    9.8190 C.3    39  LEU39       0.0001
     31  CD2      -13.3360  -21.5960    8.7470 C.3    39  LEU39       0.0001
     32  N         -9.7430  -22.6100    6.0080 N.am   40  ALA40      -0.1980
     33  CA        -9.8550  -23.2220    4.6830 C.3    40  ALA40       0.1597
     34  C         -8.7140  -24.2030    4.3860 C.2    40  ALA40       0.2287
     35  O         -8.9910  -25.3010    3.9120 O.2    40  ALA40      -0.2864
     36  CB        -9.9450  -22.1500    3.6040 C.3    40  ALA40       0.0319
     37  N         -9.2680  -27.4150    6.3930 N.3    43  GLU43      -0.1245
     38  CA       -10.4680  -28.0300    5.8400 C.3    43  GLU43       0.1567
     39  C        -10.1790  -28.7320    4.5130 C.2    43  GLU43       0.2260
     40  O        -10.8090  -29.7470    4.2170 O.2    43  GLU43      -0.2867
     41  CB       -11.5470  -26.9750    5.6370 C.3    43  GLU43       0.0388
     42  CG       -12.3460  -26.6190    6.8700 C.3    43  GLU43       0.1160
     43  CD       -13.4760  -25.6500    6.5840 C.2    43  GLU43       0.3649
     44  OE1      -13.2080  -24.5770    5.9950 O.co2  43  GLU43      -0.2457
     45  OE2      -14.6360  -25.9730    6.9230 O.co2  43  GLU43      -0.2457
     46  N        -13.3340  -27.0510   -4.9640 N.3    73  TRP73      -0.1227
     47  CA       -12.9510  -26.8610   -3.5550 C.3    73  TRP73       0.1737
     48  C        -13.6260  -25.7050   -2.8310 C.2    73  TRP73       0.2595
     49  O        -13.9860  -25.8910   -1.6740 O.2    73  TRP73      -0.2718
     50  CB       -11.4360  -26.8440   -3.3360 C.3    73  TRP73       0.0564
     51  CG       -10.7420  -25.6090   -3.8260 C.ar   73  TRP73       0.0003
     52  CD1      -10.1000  -25.4530   -5.0170 C.ar   73  TRP73       0.0946
     53  CD2      -10.5810  -24.3730   -3.1140 C.ar   73  TRP73       0.0152
     54  NE1       -9.5210  -24.2050   -5.0800 N.ar   73  TRP73      -0.2442
     55  CE2       -9.8020  -23.5220   -3.9260 C.ar   73  TRP73       0.0810
     56  CE3      -10.9930  -23.9100   -1.8500 C.ar   73  TRP73       0.0012
     57  CZ2       -9.4870  -22.2110   -3.5470 C.ar   73  TRP73       0.0191
     58  CZ3      -10.6730  -22.6160   -1.4740 C.ar   73  TRP73       0.0001
     59  CH2       -9.9540  -21.7730   -2.3260 C.ar   73  TRP73       0.0015
     60  N        -13.7870  -24.5180   -3.4820 N.am   74  MET74      -0.1979
     61  CA       -14.4470  -23.3880   -2.8030 C.3    74  MET74       0.1605
     62  C        -15.9210  -23.6840   -2.5940 C.2    74  MET74       0.2287
     63  O        -16.4070  -23.4740   -1.4840 O.2    74  MET74      -0.2864
     64  CB       -14.2500  -22.0410   -3.5270 C.3    74  MET74       0.0413
     65  CG       -14.8640  -20.8460   -2.7840 C.3    74  MET74       0.0598
     66  SD       -14.1400  -20.5660   -1.1580 S.3    74  MET74      -0.1393
     67  CE       -12.7270  -19.5370   -1.6450 C.3    74  MET74       0.0692
     68  N        -16.3450  -26.0020    0.3220 N.3    77  LEU77      -0.1231
     69  CA       -16.1130  -25.2870    1.5980 C.3    77  LEU77       0.1693
     70  C        -17.3400  -24.4440    1.9600 C.2    77  LEU77       0.2591
     71  O        -17.8020  -24.4870    3.0970 O.2    77  LEU77      -0.2718
     72  CB       -14.8700  -24.3770    1.5480 C.3    77  LEU77       0.0284
     73  CG       -13.4870  -25.0310    1.5830 C.3    77  LEU77       0.0019
     74  CD1      -12.3960  -23.9830    1.5570 C.3    77  LEU77       0.0001
     75  CD2      -13.3210  -25.9540    2.7580 C.3    77  LEU77       0.0001
     76  N        -17.9230  -23.7610    0.9630 N.am   78  MET78      -0.1979
     77  CA       -19.0930  -22.9220    1.1790 C.3    78  MET78       0.1605
     78  C        -20.3450  -23.7370    1.4250 C.2    78  MET78       0.2287
     79  O        -21.1360  -23.3550    2.2840 O.2    78  MET78      -0.2864
     80  CB       -19.2560  -21.9130    0.0680 C.3    78  MET78       0.0413
     81  CG       -18.1220  -20.8980    0.0490 C.3    78  MET78       0.0598
     82  SD       -18.2400  -19.8250   -1.3910 S.3    78  MET78      -0.1393
     83  CE       -19.5100  -20.6570   -2.2660 C.3    78  MET78       0.0692
     84  N        -20.1190  -24.8140    5.0210 N.3    81  LEU81      -0.1245
     85  CA       -20.3550  -23.6380    5.8270 C.3    81  LEU81       0.1561
     86  C        -21.8570  -23.3590    5.9130 C.2    81  LEU81       0.2260
     87  O        -22.3630  -23.1400    7.0130 O.2    81  LEU81      -0.2867
     88  CB       -19.6120  -22.4340    5.2280 C.3    81  LEU81       0.0270
     89  CG       -19.9500  -21.0480    5.8040 C.3    81  LEU81       0.0019
     90  CD1      -19.4540  -20.9040    7.2490 C.3    81  LEU81       0.0001
     91  CD2      -19.3890  -19.9380    4.9220 C.3    81  LEU81       0.0001
     92  N        -23.5810  -25.8400    8.1230 N.3    84  ARG84      -0.1245
     93  CA       -23.2870  -25.5390    9.5320 C.3    84  ARG84       0.1563
     94  C        -24.1120  -24.3480   10.0330 C.2    84  ARG84       0.2260
     95  O        -24.4490  -24.2840   11.2140 O.2    84  ARG84      -0.2867
     96  CB       -21.7950  -25.2380    9.7160 C.3    84  ARG84       0.0307
     97  CG       -20.8960  -26.4710    9.6090 C.3    84  ARG84       0.0489
     98  CD       -19.5060  -26.2450   10.1810 C.3    84  ARG84       0.2205
     99  NE       -18.7540  -25.1540    9.5460 N.pl3  84  ARG84      -0.0865
    100  CZ       -18.0860  -25.2510    8.3960 C.cat  84  ARG84       0.5346
    101  NH1      -18.0900  -26.3900    7.7080 N.pl3  84  ARG84       0.1354
    102  NH2      -17.4130  -24.2130    7.9260 N.pl3  84  ARG84       0.1354
    103  N        -18.5940  -20.6810   10.7530 N.3    94  PHE94      -0.1241
    104  CA       -17.2990  -21.0990   10.2180 C.3    94  PHE94       0.1605
    105  C        -16.6570  -22.2030   11.0530 C.2    94  PHE94       0.2264
    106  O        -16.1230  -23.1500   10.4970 O.2    94  PHE94      -0.2867
    107  CB       -16.3520  -19.9020   10.0830 C.3    94  PHE94       0.0534
    108  CG       -16.6900  -18.9890    8.9280 C.ar   94  PHE94      -0.0203
    109  CD1      -16.1900  -19.2370    7.6510 C.ar   94  PHE94      -0.0042
    110  CD2      -17.4740  -17.8590    9.1220 C.ar   94  PHE94      -0.0042
    111  CE1      -16.4740  -18.3750    6.5900 C.ar   94  PHE94      -0.0003
    112  CE2      -17.7670  -17.0020    8.0550 C.ar   94  PHE94      -0.0003
    113  CZ       -17.2610  -17.2620    6.7990 C.ar   94  PHE94      -0.0000
    114  N        -16.0000   -8.6110    1.1780 N.3   111  ILE111     -0.1245
    115  CA       -16.3800   -9.8820    1.7810 C.3   111  ILE111      0.1561
    116  C        -17.8690   -9.8930    2.0650 C.2   111  ILE111      0.2260
    117  O        -18.4980  -10.9440    1.9480 O.2   111  ILE111     -0.2867
    118  CB       -15.4880  -10.3330    2.9750 C.3   111  ILE111      0.0252
    119  CG1      -15.2380  -11.8510    2.9330 C.3   111  ILE111      0.0019
    120  CG2      -16.0300   -9.9090    4.3420 C.3   111  ILE111      0.0019
    121  CD1      -14.1680  -12.3470    3.9170 C.3   111  ILE111      0.0001
    122  N        -20.1700  -11.4260   -0.4840 N.3   114  ILE114     -0.1231
    123  CA       -20.0520  -12.8900   -0.4430 C.3   114  ILE114      0.1692
    124  C        -20.7960  -13.4530    0.7780 C.2   114  ILE114      0.2592
    125  O        -21.4420  -14.4970    0.6510 O.2   114  ILE114     -0.2718
    126  CB       -18.5880  -13.3970   -0.5150 C.3   114  ILE114      0.0266
    127  CG1      -17.7620  -12.6490   -1.5950 C.3   114  ILE114      0.0019
    128  CG2      -18.5600  -14.9000   -0.7490 C.3   114  ILE114      0.0020
    129  CD1      -16.2910  -12.9210   -1.5700 C.3   114  ILE114      0.0001
    130  N        -20.7190  -12.7570    1.9400 N.am  115  PHE115     -0.1976
    131  CA       -21.4280  -13.1320    3.1740 C.3   115  PHE115      0.1639
    132  C        -22.9440  -13.0890    2.8990 C.2   115  PHE115      0.2290
    133  O        -23.6560  -14.0290    3.2540 O.2   115  PHE115     -0.2864
    134  CB       -21.0620  -12.1650    4.3390 C.3   115  PHE115      0.0560
    135  CG       -19.8950  -12.4900    5.2600 C.ar  115  PHE115     -0.0200
    136  CD1      -18.8350  -13.2830    4.8250 C.ar  115  PHE115     -0.0042
    137  CD2      -19.8090  -11.9200    6.5290 C.ar  115  PHE115     -0.0042
    138  CE1      -17.7390  -13.5340    5.6570 C.ar  115  PHE115     -0.0003
    139  CE2      -18.7150  -12.1810    7.3650 C.ar  115  PHE115     -0.0003
    140  CZ       -17.6850  -12.9780    6.9200 C.ar  115  PHE115     -0.0000
    141  N        -24.0700  -16.0290    0.6150 N.3   118  LEU118     -0.1245
    142  CA       -24.0740  -17.2270    1.4610 C.3   118  LEU118      0.1561
    143  C        -25.2580  -17.2800    2.4560 C.2   118  LEU118      0.2260
    144  O        -25.9110  -18.3270    2.5830 O.2   118  LEU118     -0.2867
    145  CB       -22.7210  -17.4010    2.1750 C.3   118  LEU118      0.0270
    146  CG       -21.5250  -17.7160    1.2700 C.3   118  LEU118      0.0019
    147  CD1      -20.2110  -17.5280    2.0150 C.3   118  LEU118      0.0001
    148  CD2      -21.6130  -19.1190    0.6990 C.3   118  LEU118      0.0001
    149  N        -15.8650  -15.7620   -4.3340 N.3   198  GLY198     -0.1225
    150  CA       -14.9170  -16.1530   -3.2950 C.3   198  GLY198      0.1811
    151  C        -13.4930  -16.3080   -3.7880 C.2   198  GLY198      0.2280
    152  O        -12.5680  -15.8660   -3.1040 O.2   198  GLY198     -0.2866
    153  N        -12.1260  -12.7370   -4.8930 N.3   201  HIS201     -0.1226
    154  CA       -11.7790  -12.0120   -3.6600 C.3   201  HIS201      0.1752
    155  C        -10.4350  -12.4870   -3.0850 C.2   201  HIS201      0.2595
    156  O         -9.5970  -11.6600   -2.7290 O.2   201  HIS201     -0.2718
    157  CB       -12.8910  -12.1800   -2.6250 C.3   201  HIS201      0.0759
    158  CG       -12.6070  -11.5670   -1.2890 C.ar  201  HIS201      0.0818
    159  ND1      -12.0730  -12.3140   -0.2520 N.ar  201  HIS201     -0.2268
    160  CD2      -12.8580  -10.3160   -0.8420 C.ar  201  HIS201      0.1154
    161  CE1      -12.0000  -11.4890    0.7800 C.ar  201  HIS201      0.1986
    162  NE2      -12.4610  -10.2780    0.4740 N.ar  201  HIS201     -0.2212
    163  N        -10.2400  -13.8160   -3.0010 N.am  202  LEU202     -0.1980
    164  CA        -9.0140  -14.4290   -2.4980 C.3   202  LEU202      0.1596
    165  C         -7.8060  -14.0810   -3.3800 C.2   202  LEU202      0.2287
    166  O         -6.7350  -13.8010   -2.8430 O.2   202  LEU202     -0.2864
    167  CB        -9.1970  -15.9470   -2.3560 C.3   202  LEU202      0.0297
    168  CG        -8.0520  -16.7600   -1.7400 C.3   202  LEU202      0.0022
    169  CD1       -7.6870  -16.2600   -0.3400 C.3   202  LEU202      0.0001
    170  CD2       -8.4160  -18.2290   -1.6930 C.3   202  LEU202      0.0001
    171  N         -3.8410  -24.5400    0.3480 N.3   217  LEU217     -0.1245
    172  CA        -4.7260  -23.4870   -0.1440 C.3   217  LEU217      0.1561
    173  C         -4.0850  -22.7560   -1.3420 C.2   217  LEU217      0.2260
    174  O         -4.7830  -22.4210   -2.3020 O.2   217  LEU217     -0.2867
    175  CB        -5.1150  -22.5210    0.9840 C.3   217  LEU217      0.0270
    176  CG        -6.0290  -21.3370    0.6200 C.3   217  LEU217      0.0019
    177  CD1       -7.4010  -21.7950    0.1520 C.3   217  LEU217      0.0001
    178  CD2       -6.1870  -20.4080    1.7910 C.3   217  LEU217      0.0001
@<TRIPOS>BOND
     1    54    52   ar
     2    54    55   ar
     3    52    51   ar
     4    46    47    1
     5   153   154    1
     6   149   150    1
     7    55    57   ar
     8    55    53   ar
     9    51    50    1
    10    51    53   ar
    11   151   150    1
    12   151   152    2
    13   154   155    1
    14   154   157    1
    15    47    50    1
    16    47    48    1
    17    57    59   ar
    18    64    61    1
    19    64    65    1
    20    60    48   am
    21    60    61    1
    22   165   166    2
    23   165   164    1
    24    53    56   ar
    25   155   163   am
    26   155   156    2
    27   163   164    1
    28    48    49    2
    29    61    62    1
    30    65    66    1
    31   157   158    1
    32    62    63    2
    33   164   167    1
    34   167   168    1
    35    59    58   ar
    36   174   173    2
    37    83    82    1
    38    56    58   ar
    39   168   170    1
    40   168   169    1
    41    67    66    1
    42   127   129    1
    43   127   126    1
    44    82    81    1
    45   173   172    1
    46   158   160   ar
    47   158   159   ar
    48   160   162   ar
    49   128   126    1
    50   126   123    1
    51   122   123    1
    52   123   124    1
    53   159   161   ar
    54   172   171    1
    55   172   175    1
    56    81    80    1
    57    80    77    1
    58   177   176    1
    59    68    69    1
    60   162   161   ar
    61   141   142    1
    62   176   175    1
    63   176   178    1
    64   125   124    2
    65   148   146    1
    66   124   130   am
    67    76    77    1
    68    76    70   am
    69   114   115    1
    70    77    78    1
    71   146   147    1
    72   146   145    1
    73    78    79    2
    74   142   145    1
    75   142   143    1
    76    72    73    1
    77    72    69    1
    78    74    73    1
    79    73    75    1
    80    69    70    1
    81   115   116    1
    82   115   118    1
    83   130   131    1
    84   117   116    2
    85    70    71    2
    86   143   144    2
    87     8     7    1
    88   132   131    1
    89   132   133    2
    90   119   118    1
    91   119   121    1
    92   118   120    1
    93   131   134    1
    94    23    21    1
    95    36    33    1
    96     7     6    1
    97    35    34    2
    98     6     5    1
    99    40    39    2
   100   134   135    1
   101    34    33    1
   102    21    18    1
   103    21    22    1
   104    39    38    1
   105    33    32    1
   106   136   135   ar
   107   136   138   ar
   108    91    89    1
   109    84    85    1
   110    18    17    1
   111    18    19    1
   112     5     2    1
   113    88    89    1
   114    88    85    1
   115   135   137   ar
   116    20    19    2
   117    15    14    1
   118    41    38    1
   119    41    42    1
   120   138   140   ar
   121    17    11   am
   122    89    90    1
   123    85    86    1
   124    38    37    1
   125    86    87    2
   126    44    43   ar
   127     4     3    2
   128    12    11    2
   129    32    26   am
   130    13    14    1
   131    13    10    1
   132     2     3    1
   133     2     1    1
   134    11    10    1
   135   137   139   ar
   136    43    42    1
   137    43    45   ar
   138   111   113   ar
   139   111   109   ar
   140    14    16    1
   141   113   112   ar
   142   140   139   ar
   143    10     9    1
   144    26    27    2
   145    26    25    1
   146   109   108   ar
   147   101   100    1
   148   102   100    1
   149   112   110   ar
   150    92    93    1
   151    24    25    1
   152   100    99    2
   153    25    28    1
   154    29    31    1
   155    29    28    1
   156    29    30    1
   157   108   110   ar
   158   108   107    1
   159    93    96    1
   160    93    94    1
   161    99    98    1
   162    97    96    1
   163    97    98    1
   164    94    95    2
   165   107   104    1
   166   104   103    1
   167   104   105    1
   168   106   105    2
