@<TRIPOS>MOLECULE
tmp/2yjeB01.pdb
 163 151 0 0 0
SMALL
GASTEIGER

@<TRIPOS>ATOM
      1  N         -2.0230  -40.1970  -45.8970 N.3    10  GLY10      -0.1210
      2  CA        -0.9910  -39.1720  -45.9210 C.3    10  GLY10       0.1956
      3  C          0.2950  -39.5600  -45.2150 C.2    10  GLY10       0.2611
      4  O          1.3850  -39.1370  -45.6030 O.2    10  GLY10      -0.2717
      5  N          0.1580  -40.3610  -44.1640 N.am   11  LEU11      -0.1979
      6  CA         1.3000  -40.8230  -43.3880 C.3    11  LEU11       0.1596
      7  C          1.1670  -42.2970  -43.0400 C.2    11  LEU11       0.2287
      8  O          0.0920  -42.7820  -42.6950 O.2    11  LEU11      -0.2864
      9  CB         1.4630  -39.9910  -42.1050 C.3    11  LEU11       0.0297
     10  CG         1.7780  -38.5000  -42.2930 C.3    11  LEU11       0.0022
     11  CD1        1.4730  -37.7290  -41.0370 C.3    11  LEU11       0.0001
     12  CD2        3.2230  -38.2580  -42.7420 C.3    11  LEU11       0.0001
     13  N          5.6330  -40.0040  -45.1600 N.3    27  PRO27      -0.2102
     14  CA         4.6050  -39.7350  -46.1790 C.3    27  PRO27       0.1504
     15  C          4.1780  -40.9790  -46.9480 C.2    27  PRO27       0.2576
     16  O          5.0210  -41.7780  -47.3360 O.2    27  PRO27      -0.2718
     17  CB         5.2850  -38.7220  -47.1160 C.3    27  PRO27       0.0282
     18  CG         6.7370  -38.6930  -46.7080 C.3    27  PRO27       0.0208
     19  CD         6.7600  -39.0640  -45.2650 C.3    27  PRO27       0.0893
     20  N          2.8760  -41.1460  -47.1560 N.am   28  SER28      -0.1938
     21  CA         2.3730  -42.2750  -47.9380 C.3    28  SER28       0.2055
     22  C          2.4050  -41.9710  -49.4370 C.2    28  SER28       0.2642
     23  O          1.3670  -41.8900  -50.0890 O.2    28  SER28      -0.2714
     24  CB         0.9590  -42.6480  -47.5040 C.3    28  SER28       0.2130
     25  OG         0.9200  -42.9500  -46.1270 O.3    28  SER28      -0.2179
     26  N          3.6120  -41.8080  -49.9690 N.am   29  ILE29      -0.1977
     27  CA         3.7960  -41.4470  -51.3630 C.3    29  ILE29       0.1596
     28  C          4.8840  -42.3130  -52.0000 C.2    29  ILE29       0.2287
     29  O          5.8380  -42.7210  -51.3310 O.2    29  ILE29      -0.2864
     30  CB         4.2340  -39.9870  -51.4880 C.3    29  ILE29       0.0276
     31  CG1        5.5200  -39.7750  -50.7010 C.3    29  ILE29       0.0022
     32  CG2        3.1400  -39.0520  -51.0020 C.3    29  ILE29       0.0022
     33  CD1        6.0060  -38.3620  -50.7460 C.3    29  ILE29       0.0001
     34  N         10.5330  -39.9730  -47.4360 N.3    36  ASP36      -0.1239
     35  CA        11.3770  -38.7900  -47.4210 C.3    36  ASP36       0.1674
     36  C         12.4530  -38.9120  -48.4780 C.2    36  ASP36       0.2266
     37  O         12.9970  -37.9070  -48.9410 O.2    36  ASP36      -0.2867
     38  CB        11.9950  -38.5850  -46.0390 C.3    36  ASP36       0.1410
     39  CG        10.9670  -38.1920  -44.9990 C.2    36  ASP36       0.3668
     40  OD1       10.1180  -37.3170  -45.2900 O.co2  36  ASP36      -0.2456
     41  OD2       11.0010  -38.7730  -43.8960 O.co2  36  ASP36      -0.2456
     42  N         10.7620  -37.2170  -50.8520 N.3    39  GLN39      -0.1245
     43  CA        10.5840  -35.8300  -50.4420 C.3    39  GLN39       0.1566
     44  C         11.7950  -34.9830  -50.8310 C.2    39  GLN39       0.2260
     45  O         11.6440  -33.8630  -51.3240 O.2    39  GLN39      -0.2867
     46  CB        10.3220  -35.7420  -48.9380 C.3    39  GLN39       0.0367
     47  CG         9.8930  -34.3640  -48.5140 C.3    39  GLN39       0.0905
     48  CD         8.5080  -34.0230  -49.0200 C.2    39  GLN39       0.2608
     49  OE1        7.5240  -34.7850  -48.8910 O.2    39  GLN39      -0.2717
     50  NE2        8.3830  -32.8550  -49.6480 N.am   39  GLN39      -0.0878
     51  N         12.6010  -34.2600  -54.8430 N.3    42  ARG42      -0.1245
     52  CA        11.4040  -33.7090  -55.4880 C.3    42  ARG42       0.1563
     53  C         11.5400  -33.3030  -56.9680 C.2    42  ARG42       0.2260
     54  O         10.6740  -33.6170  -57.7850 O.2    42  ARG42      -0.2867
     55  CB        10.8720  -32.5260  -54.6750 C.3    42  ARG42       0.0307
     56  CG         9.4080  -32.1360  -54.9940 C.3    42  ARG42       0.0489
     57  CD         8.8640  -31.0150  -54.0860 C.3    42  ARG42       0.2205
     58  NE         9.4900  -29.7030  -54.3050 N.pl3  42  ARG42      -0.0865
     59  CZ         9.2290  -28.8840  -55.3300 C.cat  42  ARG42       0.5346
     60  NH1        8.3450  -29.2310  -56.2660 N.pl3  42  ARG42       0.1354
     61  NH2        9.8330  -27.6940  -55.4100 N.pl3  42  ARG42       0.1354
     62  N          5.3370  -37.2950  -57.6290 N.3    47  LEU47      -0.1245
     63  CA         4.7150  -37.8540  -56.4430 C.3    47  LEU47       0.1561
     64  C          3.3260  -38.4140  -56.7100 C.2    47  LEU47       0.2260
     65  O          2.5020  -37.7690  -57.3510 O.2    47  LEU47      -0.2867
     66  CB         4.6420  -36.7850  -55.3620 C.3    47  LEU47       0.0270
     67  CG         5.9870  -36.0970  -55.1480 C.3    47  LEU47       0.0019
     68  CD1        5.9640  -35.2150  -53.9080 C.3    47  LEU47       0.0001
     69  CD2        7.0750  -37.1480  -55.0350 C.3    47  LEU47       0.0001
     70  N          0.0350  -40.6790  -54.6100 N.3    49  TYR49      -0.1241
     71  CA        -0.5050  -41.1790  -53.3460 C.3    49  TYR49       0.1605
     72  C         -1.2950  -42.4650  -53.5780 C.2    49  TYR49       0.2264
     73  O         -2.4170  -42.4260  -54.0930 O.2    49  TYR49      -0.2867
     74  CB        -1.4500  -40.1620  -52.7000 C.3    49  TYR49       0.0534
     75  CG        -0.8700  -38.8190  -52.2990 C.ar   49  TYR49      -0.0201
     76  CD1       -0.6780  -37.8110  -53.2420 C.ar   49  TYR49      -0.0009
     77  CD2       -0.5800  -38.5330  -50.9640 C.ar   49  TYR49      -0.0009
     78  CE1       -0.1780  -36.5700  -52.8740 C.ar   49  TYR49       0.0417
     79  CE2       -0.0740  -37.2900  -50.5850 C.ar   49  TYR49       0.0417
     80  CZ         0.1210  -36.3150  -51.5470 C.ar   49  TYR49       0.1957
     81  OH         0.6170  -35.0820  -51.1980 O.3    49  TYR49      -0.2866
     82  N         -5.8060  -37.2510  -42.9840 N.3   137  ASP137     -0.1239
     83  CA        -5.4320  -36.3610  -44.0790 C.3   137  ASP137      0.1674
     84  C         -6.4120  -36.4020  -45.2660 C.2   137  ASP137      0.2266
     85  O         -6.5830  -35.4080  -45.9760 O.2   137  ASP137     -0.2867
     86  CB        -4.0040  -36.6600  -44.5410 C.3   137  ASP137      0.1410
     87  CG        -3.5710  -35.7950  -45.7160 C.2   137  ASP137      0.3668
     88  OD1       -3.1040  -34.6590  -45.4950 O.co2 137  ASP137     -0.2456
     89  OD2       -3.6930  -36.2540  -46.8700 O.co2 137  ASP137     -0.2456
     90  N         -6.1510  -32.6150  -45.9600 N.3   163  ARG163     -0.1245
     91  CA        -5.6960  -32.0880  -47.2380 C.3   163  ARG163      0.1563
     92  C         -6.6540  -31.0100  -47.7110 C.2   163  ARG163      0.2260
     93  O         -6.2330  -29.9540  -48.1860 O.2   163  ARG163     -0.2867
     94  CB        -5.5890  -33.2150  -48.2640 C.3   163  ARG163      0.0307
     95  CG        -4.6120  -32.9380  -49.3930 C.3   163  ARG163      0.0489
     96  CD        -4.4530  -34.1550  -50.2830 C.3   163  ARG163      0.2205
     97  NE        -4.2200  -35.3660  -49.5010 N.pl3 163  ARG163     -0.0865
     98  CZ        -3.5850  -36.4380  -49.9600 C.cat 163  ARG163      0.5346
     99  NH1       -3.1090  -36.4520  -51.2000 N.pl3 163  ARG163      0.1354
    100  NH2       -3.4250  -37.4970  -49.1800 N.pl3 163  ARG163      0.1354
    101  N         -6.2000  -27.8370  -45.8710 N.3   166  THR166     -0.1218
    102  CA        -4.9980  -27.1890  -46.3900 C.3   166  THR166      0.1862
    103  C         -5.2990  -26.4240  -47.6790 C.2   166  THR166      0.2287
    104  O         -4.9650  -25.2430  -47.8170 O.2   166  THR166     -0.2866
    105  CB        -3.8660  -28.1930  -46.6800 C.3   166  THR166      0.1770
    106  OG1       -3.6300  -29.0250  -45.5320 O.3   166  THR166     -0.2211
    107  CG2       -2.5820  -27.4540  -47.0340 C.3   166  THR166      0.0375
    108  N          2.5700  -27.1280  -55.6200 N.3   183  THR183     -0.1218
    109  CA         2.7120  -28.2380  -54.6640 C.3   183  THR183      0.1862
    110  C          3.5580  -27.9350  -53.3950 C.2   183  THR183      0.2287
    111  O          3.1330  -28.2020  -52.2500 O.2   183  THR183     -0.2866
    112  CB         3.2590  -29.5050  -55.3810 C.3   183  THR183      0.1770
    113  OG1        2.1710  -30.1870  -56.0150 O.3   183  THR183     -0.2211
    114  CG2        3.9230  -30.4590  -54.3980 C.3   183  THR183      0.0375
    115  N          1.9020  -25.6160  -51.3040 N.3   186  ARG186     -0.1231
    116  CA         0.9030  -26.3610  -50.5480 C.3   186  ARG186      0.1694
    117  C          1.4930  -26.9530  -49.2560 C.2   186  ARG186      0.2591
    118  O          0.8690  -26.8650  -48.1880 O.2   186  ARG186     -0.2718
    119  CB         0.2220  -27.4400  -51.4040 C.3   186  ARG186      0.0321
    120  CG        -0.5500  -28.4550  -50.5830 C.3   186  ARG186      0.0489
    121  CD        -1.8110  -28.9660  -51.2500 C.3   186  ARG186      0.2205
    122  NE        -1.6210  -30.3060  -51.7980 N.pl3 186  ARG186     -0.0865
    123  CZ        -2.6140  -31.1360  -52.1240 C.cat 186  ARG186      0.5346
    124  NH1       -3.8840  -30.7770  -51.9430 N.pl3 186  ARG186      0.1354
    125  NH2       -2.3350  -32.3320  -52.6360 N.pl3 186  ARG186      0.1354
    126  N          2.6870  -27.5460  -49.3350 N.am  187  GLU187     -0.1979
    127  CA         3.3160  -28.0570  -48.1050 C.3   187  GLU187      0.1602
    128  C          3.5370  -26.9420  -47.0590 C.2   187  GLU187      0.2287
    129  O          3.2000  -27.0960  -45.8710 O.2   187  GLU187     -0.2864
    130  CB         4.6160  -28.8030  -48.4050 C.3   187  GLU187      0.0415
    131  CG         4.4010  -30.1640  -49.0500 C.3   187  GLU187      0.1163
    132  CD         3.7190  -31.1640  -48.1280 C.2   187  GLU187      0.3649
    133  OE1        4.2200  -31.3780  -47.0060 O.co2 187  GLU187     -0.2457
    134  OE2        2.6880  -31.7450  -48.5290 O.co2 187  GLU187     -0.2457
    135  N          0.4410  -26.1430  -45.3900 N.3   190  ARG190     -0.1245
    136  CA         0.0610  -27.1790  -44.4350 C.3   190  ARG190      0.1563
    137  C          0.7600  -26.9250  -43.1030 C.2   190  ARG190      0.2260
    138  O          0.1620  -27.0640  -42.0260 O.2   190  ARG190     -0.2867
    139  CB         0.4120  -28.5740  -44.9660 C.3   190  ARG190      0.0307
    140  CG         0.0900  -29.7130  -43.9990 C.3   190  ARG190      0.0489
    141  CD         0.7720  -31.0000  -44.4160 C.3   190  ARG190      0.2205
    142  NE         2.1690  -30.7720  -44.7700 N.pl3 190  ARG190     -0.0865
    143  CZ         3.1720  -30.7190  -43.8940 C.cat 190  ARG190      0.5346
    144  NH1        2.9440  -30.8800  -42.5930 N.pl3 190  ARG190      0.1354
    145  NH2        4.4100  -30.5050  -44.3200 N.pl3 190  ARG190      0.1354
    146  N         -0.9410  -24.2380  -41.3370 N.3   193  LYS193     -0.1231
    147  CA        -2.1850  -24.7540  -40.7910 C.3   193  LYS193      0.1693
    148  C         -1.9600  -25.3780  -39.4420 C.2   193  LYS193      0.2591
    149  O         -2.5850  -24.9860  -38.4630 O.2   193  LYS193     -0.2718
    150  CB        -2.7820  -25.8180  -41.7100 C.3   193  LYS193      0.0285
    151  CG        -3.8800  -26.6290  -41.0290 C.3   193  LYS193      0.0035
    152  CD        -4.4530  -27.7100  -41.9310 C.3   193  LYS193      0.0206
    153  CE        -3.4630  -28.8180  -42.1620 C.3   193  LYS193      0.1093
    154  NZ        -4.1210  -29.9540  -42.8520 N.3   193  LYS193     -0.1314
    155  N         -1.0720  -26.3660  -39.4090 N.am  194  GLU194     -0.1979
    156  CA        -0.8200  -27.1160  -38.1910 C.3   194  GLU194      0.1602
    157  C         -0.3560  -26.1930  -37.0670 C.2   194  GLU194      0.2287
    158  O         -0.7170  -26.3850  -35.8970 O.2   194  GLU194     -0.2864
    159  CB         0.2020  -28.2210  -38.4520 C.3   194  GLU194      0.0415
    160  CG        -0.2760  -29.2520  -39.4560 C.3   194  GLU194      0.1163
    161  CD         0.8020  -30.2410  -39.8500 C.2   194  GLU194      0.3649
    162  OE1        1.8330  -30.3010  -39.1460 O.co2 194  GLU194     -0.2457
    163  OE2        0.6180  -30.9590  -40.8610 O.co2 194  GLU194     -0.2457
@<TRIPOS>BOND
     1    54    53    2
     2    62    63    1
     3    65    64    2
     4    53    52    1
     5    64    63    1
     6    63    66    1
     7    60    59    1
     8   113   112    1
     9   108   109    1
    10    52    51    1
    11    52    55    1
    12    61    59    1
    13   112   109    1
    14   112   114    1
    15    66    67    1
    16    59    58    2
    17    67    69    1
    18    67    68    1
    19    56    55    1
    20    56    57    1
    21   109   110    1
    22    70    71    1
    23    58    57    1
    24    73    72    2
    25    72    71    1
    26   110   111    2
    27    71    74    1
    28    76    78   ar
    29    76    75   ar
    30    78    80   ar
    31    74    75    1
    32   125   123    1
    33    75    77   ar
    34   123   124    1
    35   123   122    2
    36    28    27    1
    37    28    29    2
    38   122   121    1
    39    80    81    1
    40    80    79   ar
    41    30    27    1
    42    30    32    1
    43    30    31    1
    44   119   120    1
    45   119   116    1
    46    27    26    1
    47    45    44    2
    48   115   116    1
    49   121   120    1
    50    99    98    1
    51    77    79   ar
    52    42    43    1
    53    44    43    1
    54    33    31    1
    55   116   117    1
    56    43    46    1
    57    96    97    1
    58    96    95    1
    59    23    22    2
    60    26    22   am
    61    98    97    2
    62    98   100    1
    63    50    48   am
    64    22    21    1
    65    95    94    1
    66   126   117   am
    67   126   127    1
    68   117   118    2
    69   131   130    1
    70   131   132    1
    71    48    49    2
    72    48    47    1
    73    37    36    2
    74    46    47    1
    75   134   132   ar
    76    36    35    1
    77   130   127    1
    78    94    91    1
    79    93    92    2
    80   132   133   ar
    81   127   128    1
    82    21    24    1
    83    21    20    1
    84   104   103    2
    85    92    91    1
    86   103   102    1
    87    24    25    1
    88    34    35    1
    89    35    38    1
    90    16    15    2
    91    91    90    1
    92    20    15   am
    93    17    18    1
    94    17    14    1
    95   128   129    2
    96   107   105    1
    97    15    14    1
    98    89    87   ar
    99    18    19    1
   100   105   102    1
   101   105   106    1
   102   102   101    1
   103    14    13    1
   104    38    39    1
   105    85    84    2
   106     2     1    1
   107     2     3    1
   108    87    88   ar
   109    87    86    1
   110     4     3    2
   111   135   136    1
   112    40    39   ar
   113    84    83    1
   114    19    13    1
   115     3     5   am
   116    39    41   ar
   117   139   136    1
   118   139   140    1
   119   142   141    1
   120   142   143    2
   121    86    83    1
   122   136   137    1
   123   141   140    1
   124   145   143    1
   125     5     6    1
   126    83    82    1
   127   143   144    1
   128     6     7    1
   129     6     9    1
   130   137   138    2
   131     7     8    2
   132   154   153    1
   133    12    10    1
   134    10     9    1
   135    10    11    1
   136   153   152    1
   137   152   151    1
   138   150   151    1
   139   150   147    1
   140   146   147    1
   141   163   161   ar
   142   147   148    1
   143   161   160    1
   144   161   162   ar
   145   160   159    1
   146   148   155   am
   147   148   149    2
   148   155   156    1
   149   159   156    1
   150   156   157    1
   151   157   158    2
