@<TRIPOS>MOLECULE
tmp/2yjpA00.pdb
 105 97 0 0 0
SMALL
GASTEIGER

@<TRIPOS>ATOM
      1  N         12.7580    7.8990   27.2120 N.3    18  PHE18      -0.1241
      2  CA        13.8510    8.1080   28.1630 C.3    18  PHE18       0.1605
      3  C         15.1900    7.5460   27.7130 C.2    18  PHE18       0.2264
      4  O         15.2520    6.4790   27.0800 O.2    18  PHE18      -0.2867
      5  CB        13.4960    7.5320   29.5340 C.3    18  PHE18       0.0534
      6  CG        12.5610    8.3940   30.2950 C.ar   18  PHE18      -0.0203
      7  CD1       12.9700    9.6690   30.7110 C.ar   18  PHE18      -0.0042
      8  CD2       11.2780    7.9620   30.5970 C.ar   18  PHE18      -0.0042
      9  CE1       12.1300   10.4980   31.4040 C.ar   18  PHE18      -0.0003
     10  CE2       10.3960    8.8040   31.3160 C.ar   18  PHE18      -0.0003
     11  CZ        10.8290   10.0820   31.6980 C.ar   18  PHE18      -0.0000
     12  N         16.1710    5.7470   32.0870 N.3    21  LYS21      -0.1245
     13  CA        15.1940    5.1860   32.9800 C.3    21  LYS21       0.1561
     14  C         15.0800    3.6550   32.7710 C.2    21  LYS21       0.2260
     15  O         13.9830    3.1100   32.5280 O.2    21  LYS21      -0.2867
     16  CB        13.8290    5.8880   32.8120 C.3    21  LYS21       0.0271
     17  CG        12.9080    5.6830   34.0180 C.3    21  LYS21       0.0035
     18  CD        11.4350    6.0950   33.7240 C.3    21  LYS21       0.0206
     19  CE        10.5970    5.8820   34.9310 C.3    21  LYS21       0.1093
     20  NZ         9.1490    6.1900   34.8220 N.3    21  LYS21      -0.1314
     21  N          8.4560   16.4290   28.1330 N.3    65  ARG65      -0.1245
     22  CA         7.5620   15.5310   27.4080 C.3    65  ARG65       0.1563
     23  C          6.3810   16.2560   26.7720 C.2    65  ARG65       0.2260
     24  O          6.1250   16.0370   25.6130 O.2    65  ARG65      -0.2867
     25  CB         7.0780   14.3760   28.2640 C.3    65  ARG65       0.0307
     26  CG         8.1970   13.3700   28.5770 C.3    65  ARG65       0.0489
     27  CD         7.6880   12.3120   29.5490 C.3    65  ARG65       0.2205
     28  NE         7.4380   12.9190   30.8510 N.pl3  65  ARG65      -0.0865
     29  CZ         7.2490   12.2120   31.9470 C.cat  65  ARG65       0.5346
     30  NH1        7.2690   10.9050   31.8500 N.pl3  65  ARG65       0.1354
     31  NH2        7.0500   12.8090   33.1060 N.pl3  65  ARG65       0.1354
     32  N          7.7820    6.7020   29.3080 N.3    80  ASN80      -0.1240
     33  CA         7.1110    6.1590   30.5050 C.3    80  ASN80       0.1653
     34  C          6.1900    7.1520   31.2480 C.2    80  ASN80       0.2266
     35  O          6.4030    7.4530   32.4400 O.2    80  ASN80      -0.2867
     36  CB         8.1830    5.5330   31.4470 C.3    80  ASN80       0.1155
     37  CG         7.6500    4.3500   32.2300 C.2    80  ASN80       0.2627
     38  OD1        7.7260    4.3110   33.4720 O.2    80  ASN80      -0.2716
     39  ND2        7.1030    3.3530   31.5010 N.am   80  ASN80      -0.0877
     40  N          3.0290    8.9760   32.8670 N.3    82  THR82      -0.1218
     41  CA         1.8650    8.7170   33.6760 C.3    82  THR82       0.1862
     42  C          0.7650    9.6800   33.2340 C.2    82  THR82       0.2287
     43  O          0.9840   10.8850   33.1090 O.2    82  THR82      -0.2866
     44  CB         2.1530    8.9330   35.1640 C.3    82  THR82       0.1770
     45  OG1        3.2060    8.0410   35.5970 O.3    82  THR82      -0.2211
     46  CG2        0.8560    8.6930   36.0130 C.3    82  THR82       0.0375
     47  N         -2.1970   16.7090   33.0740 N.3    87  ARG87      -0.1245
     48  CA        -1.4630   16.4760   31.8380 C.3    87  ARG87       0.1563
     49  C         -2.4450   16.3620   30.6370 C.2    87  ARG87       0.2260
     50  O         -2.1660   16.8180   29.5260 O.2    87  ARG87      -0.2867
     51  CB        -0.5930   15.2180   31.9780 C.3    87  ARG87       0.0307
     52  CG         0.7050   15.4950   32.7550 C.3    87  ARG87       0.0489
     53  CD         1.3190   14.2560   33.3160 C.3    87  ARG87       0.2205
     54  NE         2.5510   14.5290   34.0840 N.pl3  87  ARG87      -0.0865
     55  CZ         3.4680   13.6050   34.3800 C.cat  87  ARG87       0.5346
     56  NH1        3.2500   12.3540   33.9900 N.pl3  87  ARG87       0.1354
     57  NH2        4.5680   13.9180   35.0880 N.pl3  87  ARG87       0.1354
     58  N         13.2380   13.8390   40.3900 N.3   126  ASN126     -0.1240
     59  CA        13.4990   14.1800   39.0020 C.3   126  ASN126      0.1653
     60  C         12.4760   15.2550   38.6390 C.2   126  ASN126      0.2266
     61  O         11.2650   15.0400   38.8330 O.2   126  ASN126     -0.2867
     62  CB        13.4360   12.9260   38.1450 C.3   126  ASN126      0.1155
     63  CG        13.5980   13.1760   36.6380 C.2   126  ASN126      0.2627
     64  OD1       13.0250   12.5660   35.8820 O.2   126  ASN126     -0.2716
     65  ND2       14.4360   13.9900   36.2470 N.am  126  ASN126     -0.0877
     66  N          8.3470   15.1320   37.1880 N.3   129  THR129     -0.1203
     67  CA         7.7380   13.8430   37.3600 C.3   129  THR129      0.1994
     68  C          6.4870   13.9250   38.2460 C.2   129  THR129      0.2618
     69  O          6.2050   14.9430   38.8960 O.2   129  THR129     -0.2717
     70  CB         8.7230   12.7960   37.9830 C.3   129  THR129      0.1784
     71  OG1        9.2190   13.2480   39.2470 O.3   129  THR129     -0.2211
     72  CG2        9.8950   12.4710   37.0240 C.3   129  THR129      0.0376
     73  N          5.7340   12.8310   38.2710 N.am  130  THR130     -0.1952
     74  CA         4.5710   12.7340   39.1690 C.3   130  THR130      0.1897
     75  C          5.0480   12.7800   40.6140 C.2   130  THR130      0.2313
     76  O          4.3600   13.3610   41.4380 O.2   130  THR130     -0.2863
     77  CB         3.7720   11.4710   38.9480 C.3   130  THR130      0.1794
     78  OG1        4.6940   10.3890   38.8180 O.3   130  THR130     -0.2208
     79  CG2        2.8590   11.5820   37.6370 C.3   130  THR130      0.0378
     80  N         10.0630    8.5960   43.4560 N.3   167  HIS167     -0.1226
     81  CA         9.8680    8.3050   42.0110 C.3   167  HIS167      0.1752
     82  C          8.8750    7.1420   41.8660 C.2   167  HIS167      0.2596
     83  O          8.3710    6.6190   42.8770 O.2   167  HIS167     -0.2718
     84  CB        11.2170    7.8570   41.3710 C.3   167  HIS167      0.0759
     85  CG        11.4310    8.3700   39.9810 C.ar  167  HIS167      0.0818
     86  ND1       10.4660    8.2860   38.9990 N.ar  167  HIS167     -0.2268
     87  CD2       12.5020    8.9640   39.4060 C.ar  167  HIS167      0.1154
     88  CE1       10.9320    8.8060   37.8790 C.ar  167  HIS167      0.1986
     89  NE2       12.1670    9.2220   38.0990 N.ar  167  HIS167     -0.2212
     90  N          8.6370    6.7110   40.6170 N.am  168  ASP168     -0.1974
     91  CA         7.8210    5.5410   40.3110 C.3   168  ASP168      0.1709
     92  C          8.4100    4.3860   41.1070 C.2   168  ASP168      0.2293
     93  O          9.6140    4.1660   41.0530 O.2   168  ASP168     -0.2864
     94  CB         7.8650    5.2090   38.7710 C.3   168  ASP168      0.1436
     95  CG         7.0270    6.1730   37.9260 C.2   168  ASP168      0.3671
     96  OD1        6.3350    7.0320   38.5310 O.co2 168  ASP168     -0.2456
     97  OD2        7.0450    6.0860   36.6250 O.co2 168  ASP168     -0.2456
     98  N          0.1360    4.4280   32.9590 N.3   195  ILE195     -0.1245
     99  CA         1.1310    4.9350   32.0400 C.3   195  ILE195      0.1561
    100  C          0.6450    4.6650   30.5880 C.2   195  ILE195      0.2260
    101  O          0.1690    3.5840   30.2630 O.2   195  ILE195     -0.2867
    102  CB         2.4950    4.2630   32.3060 C.3   195  ILE195      0.0252
    103  CG1        3.1090    4.9360   33.5350 C.3   195  ILE195      0.0019
    104  CG2        3.3970    4.3900   31.0950 C.3   195  ILE195      0.0019
    105  CD1        4.3280    4.2270   34.0610 C.3   195  ILE195      0.0001
@<TRIPOS>BOND
     1    24    23    2
     2    23    22    1
     3     4     3    2
     4     1     2    1
     5    22    21    1
     6    22    25    1
     7     3     2    1
     8     2     5    1
     9    25    26    1
    10    26    27    1
    11    32    33    1
    12    50    49    2
    13     5     6    1
    14    27    28    1
    15   101   100    2
    16     6     8   ar
    17     6     7   ar
    18    33    34    1
    19    33    36    1
    20   100    99    1
    21     8    10   ar
    22    49    48    1
    23     7     9   ar
    24    28    29    2
    25   104   102    1
    26    34    35    2
    27    10    11   ar
    28     9    11   ar
    29    36    37    1
    30    39    37   am
    31    48    51    1
    32    48    47    1
    33    30    29    1
    34    29    31    1
    35    51    52    1
    36    99   102    1
    37    99    98    1
    38    12    13    1
    39    37    38    2
    40   102   103    1
    41    15    14    2
    42    52    53    1
    43    14    13    1
    44    16    13    1
    45    16    17    1
    46    40    41    1
    47    43    42    2
    48    42    41    1
    49    53    54    1
    50   103   105    1
    51    41    44    1
    52    18    17    1
    53    18    19    1
    54    56    55    1
    55    54    55    2
    56    55    57    1
    57    20    19    1
    58    44    45    1
    59    44    46    1
    60    64    63    2
    61    65    63   am
    62    97    95   ar
    63    63    62    1
    64    72    70    1
    65    66    67    1
    66    67    70    1
    67    67    68    1
    68    79    77    1
    69    88    89   ar
    70    88    86   ar
    71    95    96   ar
    72    95    94    1
    73    70    71    1
    74    89    87   ar
    75    62    59    1
    76    68    73   am
    77    68    69    2
    78    73    74    1
    79    60    61    2
    80    60    59    1
    81    94    91    1
    82    78    77    1
    83    77    74    1
    84    86    85   ar
    85    59    58    1
    86    74    75    1
    87    87    85   ar
    88    85    84    1
    89    91    90    1
    90    91    92    1
    91    75    76    2
    92    90    82   am
    93    93    92    2
    94    84    81    1
    95    82    81    1
    96    82    83    2
    97    81    80    1
