@<TRIPOS>MOLECULE
tmp/2yjqA00.pdb
 87 83 0 0 0
SMALL
GASTEIGER

@<TRIPOS>ATOM
      1  N         17.5780  -31.5340    9.5260 N.3    41  GLY41      -0.1210
      2  CA        17.4950  -30.1250    9.9430 C.3    41  GLY41       0.1956
      3  C         18.6620  -29.2600    9.4470 C.2    41  GLY41       0.2611
      4  O         19.6360  -29.7440    8.8260 O.2    41  GLY41      -0.2717
      5  N         18.5560  -27.9610    9.7030 N.am   42  ASN42      -0.1974
      6  CA        19.5250  -26.9440    9.1930 C.3    42  ASN42       0.1688
      7  C         20.9870  -27.3060    9.3750 C.2    42  ASN42       0.2292
      8  O         21.7930  -27.1860    8.4650 O.2    42  ASN42      -0.2864
      9  CB        19.1940  -25.6050    9.8330 C.3    42  ASN42       0.1181
     10  CG        17.8560  -25.0600    9.3320 C.2    42  ASN42       0.2629
     11  OD1       17.3400  -25.5270    8.3020 O.2    42  ASN42      -0.2716
     12  ND2       17.2940  -24.0850   10.0320 N.am   42  ASN42      -0.0877
     13  N         20.7330  -19.5440   11.7980 N.3    59  ASP59      -0.1239
     14  CA        20.3350  -19.8080   13.1740 C.3    59  ASP59       0.1674
     15  C         21.3010  -19.2810   14.2950 C.2    59  ASP59       0.2266
     16  O         20.8560  -18.9350   15.3570 O.2    59  ASP59      -0.2867
     17  CB        20.1050  -21.2870   13.3530 C.3    59  ASP59       0.1410
     18  CG        18.9860  -21.8250   12.4530 C.2    59  ASP59       0.3668
     19  OD1       17.9960  -21.1290   12.2890 O.co2  59  ASP59      -0.2456
     20  OD2       19.1050  -22.9350   11.8990 O.co2  59  ASP59      -0.2456
     21  N         18.5130  -30.7010    3.0380 N.3   180  ASN180     -0.1225
     22  CA        17.4660  -30.2220    3.9190 C.3   180  ASN180      0.1785
     23  C         17.0510  -28.8700    3.4300 C.2   180  ASN180      0.2597
     24  O         17.9070  -28.0230    3.1900 O.2   180  ASN180     -0.2718
     25  CB        17.9920  -30.0840    5.3690 C.3   180  ASN180      0.1169
     26  CG        16.9490  -29.5200    6.3380 C.2   180  ASN180      0.2627
     27  OD1       16.8680  -28.2860    6.5660 O.2   180  ASN180     -0.2716
     28  ND2       16.1580  -30.3960    6.9160 N.am  180  ASN180     -0.0877
     29  N         15.7510  -28.6540    3.3260 N.am  181  GLU181     -0.1979
     30  CA        15.1830  -27.3660    2.8560 C.3   181  GLU181      0.1602
     31  C         15.9780  -26.5750    1.8030 C.2   181  GLU181      0.2287
     32  O         16.3380  -25.3990    1.9770 O.2   181  GLU181     -0.2864
     33  CB        14.7540  -26.4960    4.0290 C.3   181  GLU181      0.0415
     34  CG        14.0620  -27.3440    5.1210 C.3   181  GLU181      0.1163
     35  CD        13.5510  -26.5480    6.2820 C.2   181  GLU181      0.3649
     36  OE1       14.0710  -25.4270    6.4770 O.co2 181  GLU181     -0.2457
     37  OE2       12.6520  -27.0510    6.9900 O.co2 181  GLU181     -0.2457
     38  N          8.3720  -30.9520    4.9930 N.3   278  HIS278     -0.1241
     39  CA         8.1750  -30.4680    6.3420 C.3   278  HIS278      0.1621
     40  C          6.9210  -29.6390    6.3330 C.2   278  HIS278      0.2264
     41  O          6.5680  -29.0250    5.3180 O.2   278  HIS278     -0.2867
     42  CB         9.3470  -29.6290    6.7910 C.3   278  HIS278      0.0745
     43  CG        10.6500  -30.3720    6.7900 C.ar  278  HIS278      0.0817
     44  ND1       11.8700  -29.7350    6.9230 N.ar  278  HIS278     -0.2268
     45  CD2       10.9220  -31.6980    6.6800 C.ar  278  HIS278      0.1154
     46  CE1       12.8400  -30.6300    6.8650 C.ar  278  HIS278      0.1986
     47  NE2       12.2920  -31.8340    6.7230 N.ar  278  HIS278     -0.2212
     48  N          5.1420  -27.0640    9.0620 N.3   280  TYR280     -0.1241
     49  CA         4.9190  -26.2800   10.2810 C.3   280  TYR280      0.1605
     50  C          3.6980  -25.4570    9.9970 C.2   280  TYR280      0.2264
     51  O          3.7690  -24.6200    9.1160 O.2   280  TYR280     -0.2867
     52  CB         6.0970  -25.3530   10.5140 C.3   280  TYR280      0.0534
     53  CG         7.4090  -26.1080   10.6750 C.ar  280  TYR280     -0.0201
     54  CD1        7.6880  -26.8320   11.8480 C.ar  280  TYR280     -0.0009
     55  CD2        8.3380  -26.1160    9.6450 C.ar  280  TYR280     -0.0009
     56  CE1        8.8960  -27.5430   11.9870 C.ar  280  TYR280      0.0417
     57  CE2        9.5510  -26.8120    9.7690 C.ar  280  TYR280      0.0417
     58  CZ         9.8340  -27.5010   10.9440 C.ar  280  TYR280      0.1957
     59  OH        11.0370  -28.2010   11.0160 O.3   280  TYR280     -0.2866
     60  N          9.6020  -33.4460    9.2840 N.3   352  SER352     -0.1217
     61  CA         9.8560  -32.5110   10.3470 C.3   352  SER352      0.1889
     62  C          8.5890  -31.6810   10.4590 C.2   352  SER352      0.2288
     63  O          8.2370  -31.0140    9.4950 O.2   352  SER352     -0.2866
     64  CB        11.0770  -31.6440    9.9550 C.3   352  SER352      0.2089
     65  OG        11.5440  -30.9320   11.0820 O.3   352  SER352     -0.2183
     66  N          9.3900  -32.5260   15.2370 N.3   385  TRP385     -0.1241
     67  CA        10.5130  -31.6180   15.4230 C.3   385  TRP385      0.1605
     68  C         10.3000  -30.7010   16.6500 C.2   385  TRP385      0.2264
     69  O          9.2350  -30.0870   16.7880 O.2   385  TRP385     -0.2867
     70  CB        10.7960  -30.8000   14.1460 C.3   385  TRP385      0.0550
     71  CG        11.9040  -29.8540   14.3820 C.ar  385  TRP385      0.0003
     72  CD1       11.7930  -28.6140   14.9030 C.ar  385  TRP385      0.0946
     73  CD2       13.3040  -30.0880   14.1790 C.ar  385  TRP385      0.0152
     74  NE1       13.0250  -28.0250   15.0070 N.ar  385  TRP385     -0.2442
     75  CE2       13.9780  -28.9110   14.5870 C.ar  385  TRP385      0.0810
     76  CE3       14.0550  -31.1630   13.6520 C.ar  385  TRP385      0.0012
     77  CZ2       15.3790  -28.7710   14.5100 C.ar  385  TRP385      0.0191
     78  CZ3       15.4370  -31.0520   13.6020 C.ar  385  TRP385      0.0001
     79  CH2       16.0970  -29.8600   14.0080 C.ar  385  TRP385      0.0015
     80  N         10.4330  -27.4680   18.4710 N.3   387  LEU387     -0.1245
     81  CA        10.5910  -26.0260   18.2740 C.3   387  LEU387      0.1561
     82  C         10.9230  -25.3660   19.6000 C.2   387  LEU387      0.2260
     83  O         11.3400  -24.2320   19.6320 O.2   387  LEU387     -0.2867
     84  CB         9.3320  -25.3620   17.6650 C.3   387  LEU387      0.0270
     85  CG         8.8770  -25.8110   16.2650 C.3   387  LEU387      0.0019
     86  CD1        7.4590  -25.3280   16.0200 C.3   387  LEU387      0.0001
     87  CD2        9.8260  -25.4900   15.0520 C.3   387  LEU387      0.0001
@<TRIPOS>BOND
     1    31    32    2
     2    31    30    1
     3    30    29    1
     4    30    33    1
     5    21    22    1
     6    24    23    2
     7    29    23   am
     8    23    22    1
     9    22    25    1
    10    33    34    1
    11    38    39    1
    12    34    35    1
    13    41    40    2
    14    25    26    1
    15    35    36   ar
    16    35    37   ar
    17    40    39    1
    18    26    27    2
    19    26    28   am
    20    39    42    1
    21    45    47   ar
    22    45    43   ar
    23    47    46   ar
    24    43    42    1
    25    43    44   ar
    26    46    44   ar
    27    11    10    2
    28     8     7    2
    29     4     3    2
    30    48    49    1
    31    51    50    2
    32     6     7    1
    33     6     5    1
    34     6     9    1
    35    60    61    1
    36    10     9    1
    37    10    12   am
    38     3     5   am
    39     3     2    1
    40    63    62    2
    41     1     2    1
    42    55    57   ar
    43    55    53   ar
    44    57    58   ar
    45    64    61    1
    46    64    65    1
    47    50    49    1
    48    49    52    1
    49    61    62    1
    50    52    53    1
    51    53    54   ar
    52    58    59    1
    53    58    56   ar
    54    13    14    1
    55    54    56   ar
    56    20    18   ar
    57    19    18   ar
    58    18    17    1
    59    14    17    1
    60    14    15    1
    61    78    76   ar
    62    78    79   ar
    63    76    73   ar
    64    79    77   ar
    65    70    71    1
    66    70    67    1
    67    73    71   ar
    68    73    75   ar
    69    15    16    2
    70    71    72   ar
    71    77    75   ar
    72    75    74   ar
    73    72    74   ar
    74    87    85    1
    75    66    67    1
    76    67    68    1
    77    86    85    1
    78    85    84    1
    79    68    69    2
    80    84    81    1
    81    81    80    1
    82    81    82    1
    83    82    83    2
