@<TRIPOS>MOLECULE
tmp/2yjqA01.pdb
 105 104 0 0 0
SMALL
GASTEIGER

@<TRIPOS>ATOM
      1  N         18.6410  -34.7300   10.7680 N.3    40  GLY40      -0.1210
      2  CA        18.3610  -33.8400    9.6550 C.3    40  GLY40       0.1956
      3  C         18.2160  -32.4470   10.2430 C.2    40  GLY40       0.2612
      4  O         18.6350  -32.2060   11.3750 O.2    40  GLY40      -0.2717
      5  N         17.5780  -31.5340    9.5260 N.am   41  GLY41      -0.1942
      6  CA        17.4950  -30.1250    9.9430 C.3    41  GLY41       0.2014
      7  C         18.6620  -29.2600    9.4470 C.2    41  GLY41       0.2639
      8  O         19.6360  -29.7440    8.8260 O.2    41  GLY41      -0.2714
      9  N         18.5560  -27.9610    9.7030 N.am   42  ASN42      -0.1958
     10  CA        19.5250  -26.9440    9.1930 C.3    42  ASN42       0.1819
     11  C         20.9870  -27.3060    9.3750 C.2    42  ASN42       0.2621
     12  O         21.7930  -27.1860    8.4650 O.2    42  ASN42      -0.2715
     13  CB        19.1940  -25.6050    9.8330 C.3    42  ASN42       0.1195
     14  CG        17.8560  -25.0600    9.3320 C.2    42  ASN42       0.2630
     15  OD1       17.3400  -25.5270    8.3020 O.2    42  ASN42      -0.2716
     16  ND2       17.2940  -24.0850   10.0320 N.am   42  ASN42      -0.0877
     17  N         21.3240  -27.8440   10.5320 N.am   43  ARG43      -0.1977
     18  CA        22.7150  -28.1690   10.8200 C.3    43  ARG43       0.1597
     19  C         23.3560  -29.2300    9.9450 C.2    43  ARG43       0.2287
     20  O         24.6230  -29.2380    9.7810 O.2    43  ARG43      -0.2864
     21  CB        22.8360  -28.5750   12.2970 C.3    43  ARG43       0.0334
     22  CG        22.9880  -27.4130   13.2580 C.3    43  ARG43       0.0492
     23  CD        24.4710  -26.9700   13.3040 C.3    43  ARG43       0.2205
     24  NE        24.7990  -25.8580   14.2090 N.pl3  43  ARG43      -0.0865
     25  CZ        26.0760  -25.5120   14.4520 C.cat  43  ARG43       0.5346
     26  NH1       27.0840  -26.1700   13.9000 N.pl3  43  ARG43       0.1354
     27  NH2       26.3580  -24.5390   15.2800 N.pl3  43  ARG43       0.1354
     28  N         26.0080  -23.3480   11.5620 N.3    56  ALA56      -0.1245
     29  CA        24.6660  -22.9400   11.9830 C.3    56  ALA56       0.1562
     30  C         23.8770  -22.1460   10.9880 C.2    56  ALA56       0.2260
     31  O         22.6510  -21.9800   11.1890 O.2    56  ALA56      -0.2867
     32  CB        24.7550  -22.1460   13.2730 C.3    56  ALA56       0.0290
     33  N         20.7330  -19.5440   11.7980 N.3    59  ASP59      -0.1225
     34  CA        20.3350  -19.8080   13.1740 C.3    59  ASP59       0.1805
     35  C         21.3010  -19.2810   14.2950 C.2    59  ASP59       0.2597
     36  O         20.8560  -18.9350   15.3570 O.2    59  ASP59      -0.2718
     37  CB        20.1050  -21.2870   13.3530 C.3    59  ASP59       0.1424
     38  CG        18.9860  -21.8250   12.4530 C.2    59  ASP59       0.3668
     39  OD1       17.9960  -21.1290   12.2890 O.co2  59  ASP59      -0.2456
     40  OD2       19.1050  -22.9350   11.8990 O.co2  59  ASP59      -0.2456
     41  N         22.6070  -19.2520   14.0750 N.am   60  TRP60      -0.1976
     42  CA        23.5730  -18.7450   15.0670 C.3    60  TRP60       0.1640
     43  C         24.8020  -18.2530   14.3400 C.2    60  TRP60       0.2290
     44  O         25.7920  -19.0080   14.2320 O.2    60  TRP60      -0.2864
     45  CB        24.0010  -19.8350   16.0770 C.3    60  TRP60       0.0576
     46  CG        24.8820  -19.3130   17.2380 C.ar   60  TRP60       0.0006
     47  CD1       24.6250  -18.2230   18.0170 C.ar   60  TRP60       0.0946
     48  CD2       26.1210  -19.8700   17.7340 C.ar   60  TRP60       0.0152
     49  NE1       25.6260  -18.0550   18.9730 N.ar   60  TRP60      -0.2442
     50  CE2       26.5590  -19.0410   18.8160 C.ar   60  TRP60       0.0810
     51  CE3       26.9030  -20.9810   17.3820 C.ar   60  TRP60       0.0012
     52  CZ2       27.7650  -19.2810   19.5420 C.ar   60  TRP60       0.0191
     53  CZ3       28.1250  -21.2290   18.1190 C.ar   60  TRP60       0.0001
     54  CH2       28.5280  -20.3680   19.1870 C.ar   60  TRP60       0.0015
     55  N         29.0900  -28.0930   17.4660 N.3    67  TYR67      -0.1241
     56  CA        27.7520  -28.2150   18.0310 C.3    67  TYR67       0.1605
     57  C         27.1400  -29.6370   17.8890 C.2    67  TYR67       0.2264
     58  O         26.5280  -30.1170   18.8250 O.2    67  TYR67      -0.2867
     59  CB        26.8050  -27.1780   17.4330 C.3    67  TYR67       0.0534
     60  CG        25.3570  -27.3470   17.8440 C.ar   67  TYR67      -0.0201
     61  CD1       24.8880  -26.8680   19.0940 C.ar   67  TYR67      -0.0009
     62  CD2       24.4630  -28.0110   17.0190 C.ar   67  TYR67      -0.0009
     63  CE1       23.5210  -26.9950   19.4640 C.ar   67  TYR67       0.0417
     64  CE2       23.1160  -28.1550   17.3690 C.ar   67  TYR67       0.0417
     65  CZ        22.6650  -27.6540   18.5750 C.ar   67  TYR67       0.1957
     66  OH        21.3490  -27.8310   18.8770 O.3    67  TYR67      -0.2866
     67  N          9.3900  -32.5260   15.2370 N.3   385  TRP385     -0.1227
     68  CA        10.5130  -31.6180   15.4230 C.3   385  TRP385      0.1737
     69  C         10.3000  -30.7010   16.6500 C.2   385  TRP385      0.2595
     70  O          9.2350  -30.0870   16.7880 O.2   385  TRP385     -0.2718
     71  CB        10.7960  -30.8000   14.1460 C.3   385  TRP385      0.0564
     72  CG        11.9040  -29.8540   14.3820 C.ar  385  TRP385      0.0003
     73  CD1       11.7930  -28.6140   14.9030 C.ar  385  TRP385      0.0946
     74  CD2       13.3040  -30.0880   14.1790 C.ar  385  TRP385      0.0152
     75  NE1       13.0250  -28.0250   15.0070 N.ar  385  TRP385     -0.2442
     76  CE2       13.9780  -28.9110   14.5870 C.ar  385  TRP385      0.0810
     77  CE3       14.0550  -31.1630   13.6520 C.ar  385  TRP385      0.0012
     78  CZ2       15.3790  -28.7710   14.5100 C.ar  385  TRP385      0.0191
     79  CZ3       15.4370  -31.0520   13.6020 C.ar  385  TRP385      0.0001
     80  CH2       16.0970  -29.8600   14.0080 C.ar  385  TRP385      0.0015
     81  N         11.2940  -30.6330   17.5370 N.am  386  LYS386     -0.1966
     82  CA        11.2040  -29.7780   18.7160 C.3   386  LYS386      0.1728
     83  C         11.4710  -28.3020   18.3890 C.2   386  LYS386      0.2616
     84  O         12.5980  -27.9350   18.0770 O.2   386  LYS386     -0.2715
     85  CB        12.1430  -30.2810   19.8570 C.3   386  LYS386      0.0311
     86  CG        11.8060  -31.6630   20.4590 C.3   386  LYS386      0.0038
     87  CD        12.8860  -32.1050   21.4290 C.3   386  LYS386      0.0206
     88  CE        12.6900  -31.4290   22.7740 C.3   386  LYS386      0.1093
     89  NZ        13.9040  -31.6550   23.6510 N.3   386  LYS386     -0.1314
     90  N         10.4330  -27.4680   18.4710 N.am  387  LEU387     -0.1977
     91  CA        10.5910  -26.0260   18.2740 C.3   387  LEU387      0.1596
     92  C         10.9230  -25.3660   19.6000 C.2   387  LEU387      0.2287
     93  O         11.3400  -24.2320   19.6320 O.2   387  LEU387     -0.2864
     94  CB         9.3320  -25.3620   17.6650 C.3   387  LEU387      0.0297
     95  CG         8.8770  -25.8110   16.2650 C.3   387  LEU387      0.0022
     96  CD1        7.4590  -25.3280   16.0200 C.3   387  LEU387      0.0001
     97  CD2        9.8260  -25.4900   15.0520 C.3   387  LEU387      0.0001
     98  N         13.1290  -26.1210   23.2390 N.3   389  ASP389     -0.1239
     99  CA        14.0700  -26.8420   24.0820 C.3   389  ASP389      0.1674
    100  C         13.4390  -27.3170   25.3930 C.2   389  ASP389      0.2266
    101  O         12.3900  -26.8190   25.8060 O.2   389  ASP389     -0.2867
    102  CB        15.2780  -25.9690   24.3690 C.3   389  ASP389      0.1410
    103  CG        16.1090  -25.7060   23.1400 C.2   389  ASP389      0.3668
    104  OD1       15.9530  -26.4480   22.1440 O.co2 389  ASP389     -0.2456
    105  OD2       16.9320  -24.7760   23.1730 O.co2 389  ASP389     -0.2456
@<TRIPOS>BOND
     1    15    14    2
     2    12    11    2
     3     8     7    2
     4    10    11    1
     5    10     9    1
     6    10    13    1
     7    14    13    1
     8    14    16   am
     9    11    17   am
    10     7     9   am
    11     7     6    1
    12     5     6    1
    13     5     3   am
    14     2     3    1
    15     2     1    1
    16    20    19    2
    17    19    18    1
    18     3     4    2
    19    17    18    1
    20    18    21    1
    21    30    31    2
    22    30    29    1
    23    28    29    1
    24    33    34    1
    25    40    38   ar
    26    29    32    1
    27    39    38   ar
    28    21    22    1
    29    38    37    1
    30    34    37    1
    31    34    35    1
    32    22    23    1
    33    23    24    1
    34    79    77   ar
    35    79    80   ar
    36    77    74   ar
    37    26    25    1
    38    80    78   ar
    39    41    35   am
    40    41    42    1
    41    71    72    1
    42    71    68    1
    43    74    72   ar
    44    74    76   ar
    45    24    25    2
    46    44    43    2
    47    35    36    2
    48    43    42    1
    49    72    73   ar
    50    25    27    1
    51    78    76   ar
    52    76    75   ar
    53    73    75   ar
    54    97    95    1
    55    42    45    1
    56    67    68    1
    57    68    69    1
    58    96    95    1
    59    45    46    1
    60    95    94    1
    61    69    70    2
    62    69    81   am
    63    62    64   ar
    64    62    60   ar
    65    46    48   ar
    66    46    47   ar
    67    64    65   ar
    68    51    48   ar
    69    51    53   ar
    70    59    60    1
    71    59    56    1
    72    55    56    1
    73    81    82    1
    74    94    91    1
    75    48    50   ar
    76    60    61   ar
    77    57    56    1
    78    57    58    2
    79    47    49   ar
    80    84    83    2
    81    53    54   ar
    82    91    90    1
    83    91    92    1
    84    83    90   am
    85    83    82    1
    86    65    66    1
    87    65    63   ar
    88    82    85    1
    89    50    49   ar
    90    50    52   ar
    91    61    63   ar
    92    54    52   ar
    93    92    93    2
    94    85    86    1
    95    86    87    1
    96    87    88    1
    97   104   103   ar
    98    88    89    1
    99   103   105   ar
   100   103   102    1
   101    98    99    1
   102    99   102    1
   103    99   100    1
   104   100   101    2
