@<TRIPOS>MOLECULE
tmp/2yjxA00.pdb
 156 150 0 0 0
SMALL
GASTEIGER

@<TRIPOS>ATOM
      1  N         16.7910   20.8230  -20.2660 N.3     5  ALA5       -0.1231
      2  CA        17.5030   20.6400  -21.5280 C.3     5  ALA5        0.1694
      3  C         17.1840   19.3020  -22.1240 C.2     5  ALA5        0.2592
      4  O         17.3210   18.2930  -21.4440 O.2     5  ALA5       -0.2718
      5  CB        19.0110   20.7320  -21.3110 C.3     5  ALA5        0.0304
      6  N         16.8700   19.2700  -23.4220 N.am    6  PHE6       -0.1962
      7  CA        16.7160   17.9970  -24.1170 C.3     6  PHE6        0.1771
      8  C         18.0900   17.3690  -24.2550 C.2     6  PHE6        0.2619
      9  O         19.0760   18.0880  -24.5270 O.2     6  PHE6       -0.2715
     10  CB        16.1780   18.2180  -25.5400 C.3     6  PHE6        0.0574
     11  CG        14.7030   18.5110  -25.6400 C.ar    6  PHE6       -0.0200
     12  CD1       13.7590   17.5170  -25.3740 C.ar    6  PHE6       -0.0042
     13  CD2       14.2540   19.7450  -26.1020 C.ar    6  PHE6       -0.0042
     14  CE1       12.3920   17.7780  -25.5100 C.ar    6  PHE6       -0.0003
     15  CE2       12.8840   20.0050  -26.2330 C.ar    6  PHE6       -0.0003
     16  CZ        11.9660   19.0160  -25.9500 C.ar    6  PHE6       -0.0000
     17  N         18.1430   16.0160  -24.1460 N.am    7  GLN7       -0.1977
     18  CA        19.3590   15.2330  -24.4010 C.3     7  GLN7        0.1601
     19  C         19.6570   15.2910  -25.9110 C.2     7  GLN7        0.2287
     20  O         18.7920   15.6700  -26.7000 O.2     7  GLN7       -0.2864
     21  CB        19.1860   13.8000  -23.9220 C.3     7  GLN7        0.0394
     22  CG        19.2950   13.6800  -22.4060 C.3     7  GLN7        0.0908
     23  CD        19.2030   12.2280  -21.9990 C.2     7  GLN7        0.2608
     24  OE1       20.0950   11.4200  -22.2700 O.2     7  GLN7       -0.2717
     25  NE2       18.0930   11.8530  -21.3870 N.am    7  GLN7       -0.0878
     26  N         17.2290   13.2250  -28.8400 N.3    10  ILE10      -0.1245
     27  CA        15.9190   13.8510  -29.0540 C.3    10  ILE10       0.1561
     28  C         16.0480   15.2450  -29.6690 C.2    10  ILE10       0.2260
     29  O         15.2820   15.5860  -30.5810 O.2    10  ILE10      -0.2867
     30  CB        14.9580   13.7810  -27.8270 C.3    10  ILE10       0.0252
     31  CG1       13.5080   14.2980  -28.1750 C.3    10  ILE10       0.0019
     32  CG2       15.5410   14.4850  -26.5670 C.3    10  ILE10       0.0019
     33  CD1       12.8210   13.5730  -29.3740 C.3    10  ILE10       0.0001
     34  N         -1.8550    7.9440  -30.2190 N.3    35  ASN35      -0.1240
     35  CA        -1.3880    8.1770  -28.8330 C.3    35  ASN35       0.1653
     36  C         -2.5890    8.3240  -27.9080 C.2    35  ASN35       0.2266
     37  O         -2.5840    7.7360  -26.8350 O.2    35  ASN35      -0.2867
     38  CB        -0.5190    9.4480  -28.7320 C.3    35  ASN35       0.1155
     39  CG         0.8470    9.2820  -29.3570 C.2    35  ASN35       0.2627
     40  OD1        1.2530    8.1800  -29.7850 O.2    35  ASN35      -0.2716
     41  ND2        1.5810   10.3750  -29.4430 N.am   35  ASN35      -0.0877
     42  N         -0.5530   12.0040  -17.7130 N.3    82  MET82      -0.1245
     43  CA         0.8630   11.8840  -17.4090 C.3    82  MET82       0.1570
     44  C          1.1710   12.6040  -16.1120 C.2    82  MET82       0.2261
     45  O          0.6600   13.6930  -15.8640 O.2    82  MET82      -0.2867
     46  CB         1.6850   12.4890  -18.5490 C.3    82  MET82       0.0387
     47  CG         1.6030   11.6820  -19.8550 C.3    82  MET82       0.0595
     48  SD         2.3150   12.5910  -21.2620 S.3    82  MET82      -0.1393
     49  CE         1.1460   13.7740  -21.5010 C.3    82  MET82       0.0692
     50  N          6.4420   13.2370  -17.5040 N.3    87  LEU87      -0.1231
     51  CA         6.8100   14.3650  -18.3360 C.3    87  LEU87       0.1693
     52  C          8.2950   14.6430  -18.3660 C.2    87  LEU87       0.2591
     53  O          8.8240   14.9360  -19.4290 O.2    87  LEU87      -0.2718
     54  CB         6.0490   15.6360  -17.8910 C.3    87  LEU87       0.0284
     55  CG         4.5690   15.7030  -18.1930 C.3    87  LEU87       0.0019
     56  CD1        3.9810   16.9940  -17.6190 C.3    87  LEU87       0.0001
     57  CD2        4.2860   15.6250  -19.7010 C.3    87  LEU87       0.0001
     58  N          8.9580   14.6000  -17.1990 N.am   88  ILE88      -0.1980
     59  CA        10.3730   14.9350  -17.0970 C.3    88  ILE88       0.1595
     60  C         11.3050   13.7700  -17.2780 C.2    88  ILE88       0.2287
     61  O         12.3240   13.9080  -17.9700 O.2    88  ILE88      -0.2864
     62  CB        10.6260   15.6330  -15.7310 C.3    88  ILE88       0.0276
     63  CG1        9.8150   16.9420  -15.6340 C.3    88  ILE88       0.0022
     64  CG2       12.1470   15.8880  -15.4910 C.3    88  ILE88       0.0022
     65  CD1        9.7100   17.4710  -14.1990 C.3    88  ILE88       0.0001
     66  N          9.3720    9.7840  -19.8780 N.3    91  LEU91      -0.1231
     67  CA         9.2930   10.0180  -21.3210 C.3    91  LEU91       0.1693
     68  C         10.5930   10.4860  -21.9300 C.2    91  LEU91       0.2592
     69  O         10.7570   10.3870  -23.1430 O.2    91  LEU91      -0.2718
     70  CB         8.1230   10.9070  -21.7130 C.3    91  LEU91       0.0284
     71  CG         6.7320   10.3080  -21.4560 C.3    91  LEU91       0.0019
     72  CD1        5.7060   11.4020  -21.4280 C.3    91  LEU91       0.0001
     73  CD2        6.3710    9.2580  -22.5160 C.3    91  LEU91       0.0001
     74  N         11.5110   10.9850  -21.0980 N.am   92  GLY92      -0.1957
     75  CA        12.8510   11.3360  -21.5630 C.3    92  GLY92       0.1869
     76  C         13.5990   10.0680  -21.9420 C.2    92  GLY92       0.2309
     77  O         14.3190   10.0280  -22.9540 O.2    92  GLY92      -0.2863
     78  N         12.2140    7.2030  -22.8860 N.3    94  ILE94      -0.1231
     79  CA        11.5540    6.7280  -24.1090 C.3    94  ILE94       0.1692
     80  C         11.9700    7.5580  -25.3270 C.2    94  ILE94       0.2591
     81  O         12.2440    6.9760  -26.3810 O.2    94  ILE94      -0.2718
     82  CB        10.0130    6.6440  -23.9050 C.3    94  ILE94       0.0266
     83  CG1        9.6270    5.6200  -22.7930 C.3    94  ILE94       0.0019
     84  CG2        9.2600    6.3530  -25.2230 C.3    94  ILE94       0.0020
     85  CD1       10.1430    4.1540  -22.9620 C.3    94  ILE94       0.0001
     86  N         12.0300    8.9090  -25.1980 N.am   95  ALA95      -0.1980
     87  CA        12.4710    9.7590  -26.3080 C.3    95  ALA95       0.1597
     88  C         13.8830    9.3410  -26.7830 C.2    95  ALA95       0.2287
     89  O         14.1430    9.3320  -27.9890 O.2    95  ALA95      -0.2864
     90  CB        12.4910   11.2380  -25.8830 C.3    95  ALA95       0.0319
     91  N          7.7190    4.6100  -31.0510 N.3   119  GLY119     -0.1210
     92  CA         7.1750    5.1420  -29.8020 C.3   119  GLY119      0.1956
     93  C          7.3950    6.6310  -29.5840 C.2   119  GLY119      0.2611
     94  O          7.2200    7.1260  -28.4720 O.2   119  GLY119     -0.2717
     95  N          7.7820    7.3620  -30.6410 N.am  120  VAL120     -0.1979
     96  CA         8.0400    8.7980  -30.5760 C.3   120  VAL120      0.1595
     97  C          7.1890    9.5930  -31.5670 C.2   120  VAL120      0.2287
     98  O          7.5330   10.7300  -31.8980 O.2   120  VAL120     -0.2864
     99  CB         9.5570    9.1250  -30.6750 C.3   120  VAL120      0.0276
    100  CG1       10.3010    8.6580  -29.4300 C.3   120  VAL120      0.0022
    101  CG2       10.1830    8.5240  -31.9480 C.3   120  VAL120      0.0022
    102  N          4.6440   11.2560  -31.1050 N.3   122  PHE122     -0.1227
    103  CA         4.2870   12.5630  -30.5360 C.3   122  PHE122      0.1736
    104  C          5.0910   13.6680  -31.2160 C.2   122  PHE122      0.2595
    105  O          4.5520   14.7360  -31.5100 O.2   122  PHE122     -0.2718
    106  CB         4.5500   12.5650  -28.9930 C.3   122  PHE122      0.0547
    107  CG         4.5420   13.9540  -28.3820 C.ar  122  PHE122     -0.0202
    108  CD1        3.3450   14.6280  -28.1590 C.ar  122  PHE122     -0.0042
    109  CD2        5.7430   14.6000  -28.0570 C.ar  122  PHE122     -0.0042
    110  CE1        3.3460   15.9320  -27.6480 C.ar  122  PHE122     -0.0003
    111  CE2        5.7360   15.8930  -27.5170 C.ar  122  PHE122     -0.0003
    112  CZ         4.5400   16.5420  -27.3130 C.ar  122  PHE122     -0.0000
    113  N          6.3890   13.4100  -31.4930 N.am  123  TYR123     -0.1976
    114  CA         7.2670   14.4120  -32.1110 C.3   123  TYR123      0.1639
    115  C          6.9420   14.7810  -33.5520 C.2   123  TYR123      0.2290
    116  O          7.4200   15.8130  -34.0330 O.2   123  TYR123     -0.2864
    117  CB         8.7520   14.0690  -31.8630 C.3   123  TYR123      0.0560
    118  CG         9.1290   14.4180  -30.4410 C.ar  123  TYR123     -0.0198
    119  CD1        9.4110   15.7310  -30.0810 C.ar  123  TYR123     -0.0009
    120  CD2        9.0960   13.4570  -29.4340 C.ar  123  TYR123     -0.0009
    121  CE1        9.6630   16.0820  -28.7610 C.ar  123  TYR123      0.0417
    122  CE2        9.3310   13.7990  -28.0980 C.ar  123  TYR123      0.0417
    123  CZ         9.6310   15.1130  -27.7750 C.ar  123  TYR123      0.1957
    124  OH         9.9530   15.4860  -26.5010 O.3   123  TYR123     -0.2866
    125  N          1.5150   20.6700  -23.9350 N.3   134  VAL134     -0.1245
    126  CA         0.8290   19.4710  -23.4750 C.3   134  VAL134      0.1561
    127  C          0.2640   19.7470  -22.1000 C.2   134  VAL134      0.2260
    128  O          1.0430   19.9640  -21.1750 O.2   134  VAL134     -0.2867
    129  CB         1.7850   18.2490  -23.4520 C.3   134  VAL134      0.0252
    130  CG1        1.0800   17.0350  -22.8770 C.3   134  VAL134      0.0019
    131  CG2        2.3310   17.9430  -24.8440 C.3   134  VAL134      0.0019
    132  N          3.4870   20.9800  -20.0550 N.3   146  TRP146     -0.1241
    133  CA         4.8150   20.7600  -20.6450 C.3   146  TRP146      0.1605
    134  C          4.7780   21.5960  -21.9140 C.2   146  TRP146      0.2264
    135  O          3.7650   21.6100  -22.6140 O.2   146  TRP146     -0.2867
    136  CB         5.0100   19.2630  -21.0080 C.3   146  TRP146      0.0550
    137  CG         6.3020   18.9190  -21.7130 C.ar  146  TRP146      0.0003
    138  CD1        7.4080   18.3510  -21.1490 C.ar  146  TRP146      0.0946
    139  CD2        6.5590   18.9780  -23.1270 C.ar  146  TRP146      0.0152
    140  NE1        8.3360   18.0450  -22.1230 N.ar  146  TRP146     -0.2442
    141  CE2        7.8540   18.4480  -23.3410 C.ar  146  TRP146      0.0810
    142  CE3        5.8140   19.4170  -24.2420 C.ar  146  TRP146      0.0012
    143  CZ2        8.4280   18.3600  -24.6150 C.ar  146  TRP146      0.0191
    144  CZ3        6.3910   19.3410  -25.5020 C.ar  146  TRP146      0.0001
    145  CH2        7.6840   18.8240  -25.6790 C.ar  146  TRP146      0.0015
    146  N         12.7210   22.5550  -22.9490 N.3   154  PHE154     -0.1241
    147  CA        11.2920   22.4540  -22.7250 C.3   154  PHE154      0.1605
    148  C         11.0080   22.9830  -21.3270 C.2   154  PHE154      0.2264
    149  O         11.9140   23.0520  -20.4890 O.2   154  PHE154     -0.2867
    150  CB        10.7720   21.0140  -22.8990 C.3   154  PHE154      0.0534
    151  CG        11.2940   19.9560  -21.9540 C.ar  154  PHE154     -0.0203
    152  CD1       10.6600   19.7090  -20.7380 C.ar  154  PHE154     -0.0042
    153  CD2       12.4500   19.2380  -22.2570 C.ar  154  PHE154     -0.0042
    154  CE1       11.1120   18.6910  -19.8830 C.ar  154  PHE154     -0.0003
    155  CE2       12.9160   18.2370  -21.3930 C.ar  154  PHE154     -0.0003
    156  CZ        12.2330   17.9600  -20.2170 C.ar  154  PHE154     -0.0000
@<TRIPOS>BOND
     1   116   115    2
     2   115   114    1
     3   114   117    1
     4   114   113    1
     5   101    99    1
     6    98    97    2
     7   117   118    1
     8    97    96    1
     9   105   104    2
    10   113   104   am
    11   104   103    1
    12   102   103    1
    13    91    92    1
    14    99    96    1
    15    99   100    1
    16    95    96    1
    17    95    93   am
    18    29    28    2
    19   103   106    1
    20   118   119   ar
    21   118   120   ar
    22    34    35    1
    23   119   121   ar
    24    92    93    1
    25    40    39    2
    26    28    27    1
    27    93    94    2
    28    41    39   am
    29   120   122   ar
    30    33    31    1
    31    39    38    1
    32    27    26    1
    33    27    30    1
    34   106   107    1
    35    35    38    1
    36    35    36    1
    37   121   123   ar
    38   107   108   ar
    39   107   109   ar
    40    31    30    1
    41   108   110   ar
    42   122   123   ar
    43   109   111   ar
    44    89    88    2
    45    36    37    2
    46    30    32    1
    47   123   124    1
    48   110   112   ar
    49   111   112   ar
    50    88    87    1
    51    20    19    2
    52    81    80    2
    53    87    90    1
    54    87    86    1
    55    15    13   ar
    56    15    16   ar
    57    13    11   ar
    58    16    14   ar
    59    19    18    1
    60   145   144   ar
    61   145   143   ar
    62    11    10    1
    63    11    12   ar
    64    10     7    1
    65    14    12   ar
    66   144   142   ar
    67    80    86   am
    68    80    79    1
    69    84    82    1
    70   131   129    1
    71   143   141   ar
    72     9     8    2
    73    18    17    1
    74    18    21    1
    75     8    17   am
    76     8     7    1
    77   142   139   ar
    78     7     6    1
    79    79    82    1
    80    79    78    1
    81   125   126    1
    82    21    22    1
    83    82    83    1
    84   126   129    1
    85   126   127    1
    86   129   130    1
    87     6     3   am
    88   141   139   ar
    89   141   140   ar
    90    69    68    2
    91   139   137   ar
    92    85    83    1
    93    77    76    2
    94   146   147    1
    95   150   147    1
    96   150   151    1
    97   147   148    1
    98   135   134    2
    99    73    71    1
   100    22    23    1
   101    24    23    2
   102   153   151   ar
   103   153   155   ar
   104     3     2    1
   105     3     4    2
   106   140   138   ar
   107   127   128    2
   108    23    25   am
   109   151   152   ar
   110    76    75    1
   111    68    67    1
   112    68    74   am
   113   134   133    1
   114   137   138   ar
   115   137   136    1
   116    70    71    1
   117    70    67    1
   118    75    74    1
   119     2     5    1
   120     2     1    1
   121    49    48    1
   122    71    72    1
   123   155   156   ar
   124   148   149    2
   125    67    66    1
   126    48    47    1
   127   136   133    1
   128   152   154   ar
   129   133   132    1
   130   156   154   ar
   131    47    46    1
   132    57    55    1
   133    53    52    2
   134    46    43    1
   135    52    51    1
   136    52    58   am
   137    51    54    1
   138    51    50    1
   139    55    54    1
   140    55    56    1
   141    61    60    2
   142    42    43    1
   143    43    44    1
   144    60    59    1
   145    58    59    1
   146    59    62    1
   147    44    45    2
   148    62    63    1
   149    62    64    1
   150    63    65    1
