@<TRIPOS>MOLECULE
tmp/2yk1A00.pdb
 110 110 0 0 0
SMALL
GASTEIGER

@<TRIPOS>ATOM
      1  N        -23.5310    8.5920    4.4520 N.3    27  ILE27      -0.1231
      2  CA       -22.5340    8.5030    3.3860 C.3    27  ILE27       0.1692
      3  C        -23.2840    8.5770    2.0590 C.2    27  ILE27       0.2592
      4  O        -24.3040    7.9100    1.8710 O.2    27  ILE27      -0.2718
      5  CB       -21.7140    7.1640    3.3930 C.3    27  ILE27       0.0266
      6  CG1      -21.4280    6.6630    4.8220 C.3    27  ILE27       0.0019
      7  CG2      -20.4370    7.3170    2.5680 C.3    27  ILE27       0.0020
      8  CD1      -20.8830    5.2130    4.9000 C.3    27  ILE27       0.0001
      9  N        -22.8030    9.4210    1.1570 N.am   28  TRP28      -0.1962
     10  CA       -23.4160    9.5480   -0.1550 C.3    28  TRP28       0.1771
     11  C        -22.3570    9.2720   -1.1910 C.2    28  TRP28       0.2620
     12  O        -21.2480    9.7800   -1.0970 O.2    28  TRP28      -0.2715
     13  CB       -23.9820   10.9520   -0.3390 C.3    28  TRP28       0.0590
     14  CG       -24.9620   11.3140    0.7150 C.ar   28  TRP28       0.0006
     15  CD1      -26.3160   11.1410    0.6650 C.ar   28  TRP28       0.0946
     16  CD2      -24.6740   11.8920    1.9990 C.ar   28  TRP28       0.0152
     17  NE1      -26.8900   11.5860    1.8390 N.ar   28  TRP28      -0.2442
     18  CE2      -25.9060   12.0400    2.6750 C.ar   28  TRP28       0.0810
     19  CE3      -23.4900   12.2760    2.6520 C.ar   28  TRP28       0.0012
     20  CZ2      -25.9970   12.5870    3.9620 C.ar   28  TRP28       0.0191
     21  CZ3      -23.5710   12.8180    3.9340 C.ar   28  TRP28       0.0001
     22  CH2      -24.8300   12.9700    4.5760 C.ar   28  TRP28       0.0015
     23  N        -22.6850    8.4660   -2.1840 N.am   29  GLY29      -0.1954
     24  CA       -21.6380    8.0450   -3.0990 C.3    29  GLY29       0.1869
     25  C        -22.1290    7.6300   -4.4530 C.2    29  GLY29       0.2309
     26  O        -23.3340    7.5970   -4.7110 O.2    29  GLY29      -0.2863
     27  N        -21.3810    4.9380   -7.8830 N.3    31  ILE31      -0.1245
     28  CA       -20.8390    3.6800   -8.3850 C.3    31  ILE31       0.1561
     29  C        -21.2680    3.5670   -9.8480 C.2    31  ILE31       0.2260
     30  O        -22.3830    3.9880  -10.2110 O.2    31  ILE31      -0.2867
     31  CB       -21.3530    2.4930   -7.4700 C.3    31  ILE31       0.0252
     32  CG1      -20.5400    2.4760   -6.1480 C.3    31  ILE31       0.0019
     33  CG2      -21.2250    1.1480   -8.1570 C.3    31  ILE31       0.0019
     34  CD1      -21.3050    2.0670   -4.9270 C.3    31  ILE31       0.0001
     35  N        -16.4970    1.5380   -7.9390 N.3    41  TRP41      -0.1241
     36  CA       -16.7040    2.6610   -7.0300 C.3    41  TRP41       0.1605
     37  C        -16.0830    3.9510   -7.5620 C.2    41  TRP41       0.2264
     38  O        -14.9400    3.9540   -7.9850 O.2    41  TRP41      -0.2867
     39  CB       -16.1030    2.3270   -5.6740 C.3    41  TRP41       0.0550
     40  CG       -16.1200    3.4780   -4.6760 C.ar   41  TRP41       0.0003
     41  CD1      -17.2150    4.0180   -4.0540 C.ar   41  TRP41       0.0946
     42  CD2      -14.9810    4.1850   -4.1750 C.ar   41  TRP41       0.0152
     43  NE1      -16.8220    5.0310   -3.1920 N.ar   41  TRP41      -0.2442
     44  CE2      -15.4570    5.1480   -3.2450 C.ar   41  TRP41       0.0810
     45  CE3      -13.5990    4.1040   -4.4230 C.ar   41  TRP41       0.0012
     46  CZ2      -14.6020    6.0260   -2.5750 C.ar   41  TRP41       0.0191
     47  CZ3      -12.7500    4.9710   -3.7540 C.ar   41  TRP41       0.0001
     48  CH2      -13.2600    5.9190   -2.8310 C.ar   41  TRP41       0.0015
     49  N        -17.1140    8.7130   -2.4890 N.3    44  SER44      -0.1217
     50  CA       -18.0170    8.8020   -1.3410 C.3    44  SER44       0.1889
     51  C        -17.7260   10.0630   -0.5510 C.2    44  SER44       0.2288
     52  O        -16.5700   10.4630   -0.3900 O.2    44  SER44      -0.2866
     53  CB       -17.8510    7.5980   -0.3930 C.3    44  SER44       0.2089
     54  OG       -18.2130    6.3780   -1.0140 O.3    44  SER44      -0.2183
     55  N        -18.8510   11.6150    3.3190 N.3    46  TYR46      -0.1241
     56  CA       -19.3550   11.2160    4.6160 C.3    46  TYR46       0.1605
     57  C        -20.0010   12.4290    5.2630 C.2    46  TYR46       0.2264
     58  O        -19.7590   13.5670    4.8320 O.2    46  TYR46      -0.2867
     59  CB       -18.1940   10.6760    5.4730 C.3    46  TYR46       0.0534
     60  CG       -17.7940    9.2790    5.0610 C.ar   46  TYR46      -0.0201
     61  CD1      -17.1420    9.0420    3.8540 C.ar   46  TYR46      -0.0009
     62  CD2      -18.1450    8.1820    5.8490 C.ar   46  TYR46      -0.0009
     63  CE1      -16.8060    7.7350    3.4530 C.ar   46  TYR46       0.0417
     64  CE2      -17.8130    6.8880    5.4700 C.ar   46  TYR46       0.0417
     65  CZ       -17.1430    6.6690    4.2760 C.ar   46  TYR46       0.1957
     66  OH       -16.8390    5.3650    3.9340 O.3    46  TYR46      -0.2866
     67  N        -25.8150    6.2300   -4.4050 N.3    90  VAL90      -0.1245
     68  CA       -26.0520    5.3330   -3.2540 C.3    90  VAL90       0.1561
     69  C        -26.0290    6.1980   -1.9860 C.2    90  VAL90       0.2260
     70  O        -25.1750    7.0620   -1.8450 O.2    90  VAL90      -0.2867
     71  CB       -24.9260    4.2700   -3.1520 C.3    90  VAL90       0.0252
     72  CG1      -25.2580    3.2190   -2.0900 C.3    90  VAL90       0.0019
     73  CG2      -24.7160    3.5870   -4.4740 C.3    90  VAL90       0.0019
     74  N        -26.0850    5.6500    2.2280 N.3    92  TRP92      -0.1241
     75  CA       -26.0660    4.7480    3.3850 C.3    92  TRP92       0.1605
     76  C        -26.7240    5.4280    4.5750 C.2    92  TRP92       0.2264
     77  O        -26.3490    6.5450    4.9410 O.2    92  TRP92      -0.2867
     78  CB       -24.6160    4.3530    3.7250 C.3    92  TRP92       0.0550
     79  CG       -24.5260    3.5690    5.0100 C.ar   92  TRP92       0.0003
     80  CD1      -24.1500    4.0390    6.2300 C.ar   92  TRP92       0.0946
     81  CD2      -24.8630    2.1870    5.1920 C.ar   92  TRP92       0.0152
     82  NE1      -24.2260    3.0270    7.1720 N.ar   92  TRP92      -0.2442
     83  CE2      -24.6520    1.8790    6.5550 C.ar   92  TRP92       0.0810
     84  CE3      -25.3100    1.1770    4.3300 C.ar   92  TRP92       0.0012
     85  CZ2      -24.8740    0.5950    7.0820 C.ar   92  TRP92       0.0191
     86  CZ3      -25.5620   -0.1090    4.8710 C.ar   92  TRP92       0.0001
     87  CH2      -25.3340   -0.3790    6.2230 C.ar   92  TRP92       0.0015
     88  N        -29.8950    1.0610    2.9220 N.3   103  GLU103     -0.1245
     89  CA       -29.0710    1.6680    1.8810 C.3   103  GLU103      0.1567
     90  C        -29.9470    1.8210    0.6620 C.2   103  GLU103      0.2260
     91  O        -30.5680    0.8520    0.1940 O.2   103  GLU103     -0.2867
     92  CB       -27.8450    0.8010    1.5480 C.3   103  GLU103      0.0388
     93  CG       -26.8690    1.4940    0.5890 C.3   103  GLU103      0.1160
     94  CD       -25.6140    0.7000    0.3630 C.2   103  GLU103      0.3649
     95  OE1      -25.6730   -0.2880   -0.4030 O.co2 103  GLU103     -0.2457
     96  OE2      -24.5680    1.0700    0.9510 O.co2 103  GLU103     -0.2457
     97  N        -30.5110    3.1210   -3.3380 N.3   105  TRP105     -0.1241
     98  CA       -29.8190    3.2720   -4.6090 C.3   105  TRP105      0.1605
     99  C        -30.6790    4.0370   -5.5950 C.2   105  TRP105      0.2264
    100  O        -31.9070    3.8660   -5.6120 O.2   105  TRP105     -0.2867
    101  CB       -29.4630    1.8980   -5.1660 C.3   105  TRP105      0.0550
    102  CG       -28.3190    1.2450   -4.4700 C.ar  105  TRP105      0.0003
    103  CD1      -28.2810    0.7900   -3.1740 C.ar  105  TRP105      0.0946
    104  CD2      -27.0440    0.9490   -5.0370 C.ar  105  TRP105      0.0152
    105  NE1      -27.0460    0.2380   -2.9060 N.ar  105  TRP105     -0.2442
    106  CE2      -26.2710    0.3210   -4.0320 C.ar  105  TRP105      0.0810
    107  CE3      -26.4790    1.1480   -6.3040 C.ar  105  TRP105      0.0012
    108  CZ2      -24.9480   -0.1040   -4.2510 C.ar  105  TRP105      0.0191
    109  CZ3      -25.1660    0.7240   -6.5300 C.ar  105  TRP105      0.0001
    110  CH2      -24.4170    0.1030   -5.5040 C.ar  105  TRP105      0.0015
@<TRIPOS>BOND
     1    30    29    2
     2    29    28    1
     3    28    27    1
     4    28    31    1
     5    33    31    1
     6    38    37    2
     7    35    36    1
     8    37    36    1
     9    31    32    1
    10    36    39    1
    11   109   107   ar
    12   109   110   ar
    13   107   104   ar
    14    32    34    1
    15    39    40    1
    16   100    99    2
    17    99    98    1
    18   110   108   ar
    19   101    98    1
    20   101   102    1
    21   104   102   ar
    22   104   106   ar
    23    26    25    2
    24    40    42   ar
    25    40    41   ar
    26    98    97    1
    27    73    71    1
    28   102   103   ar
    29    25    24    1
    30    45    42   ar
    31    45    47   ar
    32    67    68    1
    33   108   106   ar
    34    42    44   ar
    35    41    43   ar
    36   106   105   ar
    37    47    48   ar
    38    68    71    1
    39    68    69    1
    40    44    43   ar
    41    44    46   ar
    42   103   105   ar
    43    71    72    1
    44    24    23    1
    45    48    46   ar
    46    49    50    1
    47    23    11   am
    48    69    70    2
    49    50    51    1
    50    50    53    1
    51    11    12    2
    52    11    10    1
    53    54    53    1
    54    51    52    2
    55    95    94   ar
    56    13    10    1
    57    13    14    1
    58    10     9    1
    59    91    90    2
    60    94    93    1
    61    94    96   ar
    62    93    92    1
    63    90    89    1
    64    15    14   ar
    65    15    17   ar
    66    14    16   ar
    67     9     3   am
    68    92    89    1
    69    17    18   ar
    70     4     3    2
    71    89    88    1
    72    16    19   ar
    73    16    18   ar
    74     3     2    1
    75    74    75    1
    76     7     5    1
    77    19    21   ar
    78    18    20   ar
    79    55    56    1
    80    75    78    1
    81    75    76    1
    82     2     5    1
    83     2     1    1
    84     5     6    1
    85    63    61   ar
    86    63    65   ar
    87    78    79    1
    88    61    60   ar
    89    66    65    1
    90    21    22   ar
    91    20    22   ar
    92    65    64   ar
    93    84    86   ar
    94    84    81   ar
    95    76    77    2
    96    56    57    1
    97    56    59    1
    98     6     8    1
    99    58    57    2
   100    86    87   ar
   101    79    81   ar
   102    79    80   ar
   103    60    59    1
   104    60    62   ar
   105    81    83   ar
   106    64    62   ar
   107    87    85   ar
   108    80    82   ar
   109    83    85   ar
   110    83    82   ar
