@<TRIPOS>MOLECULE
tmp/2yk2A00.pdb
 140 126 0 0 0
SMALL
GASTEIGER

@<TRIPOS>ATOM
      1  N          0.7800  -16.3380  -11.6590 N.3    32  LEU32      -0.1245
      2  CA         1.3320  -17.5740  -12.2390 C.3    32  LEU32       0.1561
      3  C          2.6250  -17.9970  -11.5320 C.2    32  LEU32       0.2260
      4  O          2.7960  -19.1750  -11.2500 O.2    32  LEU32      -0.2867
      5  CB         1.5280  -17.4460  -13.7520 C.3    32  LEU32       0.0270
      6  CG         0.1860  -17.2170  -14.5380 C.3    32  LEU32       0.0019
      7  CD1        0.4810  -16.9820  -15.9740 C.3    32  LEU32       0.0001
      8  CD2       -0.8050  -18.4130  -14.3830 C.3    32  LEU32       0.0001
      9  N          1.5460  -19.5780   -8.2670 N.3    35  ASN35      -0.1225
     10  CA         1.1300  -20.9760   -8.4320 C.3    35  ASN35       0.1785
     11  C          2.3620  -21.8730   -8.5690 C.2    35  ASN35       0.2597
     12  O          2.4270  -22.9150   -7.9230 O.2    35  ASN35      -0.2718
     13  CB         0.2020  -21.1300   -9.6500 C.3    35  ASN35       0.1169
     14  CG        -1.2390  -20.8160   -9.3370 C.2    35  ASN35       0.2627
     15  OD1       -1.5380  -20.0160   -8.4430 O.2    35  ASN35      -0.2716
     16  ND2       -2.1690  -21.5150  -10.0040 N.am   35  ASN35      -0.0877
     17  N          3.3320  -21.4500   -9.3850 N.am   36  SER36      -0.1952
     18  CA         4.5860  -22.1950   -9.5950 C.3    36  SER36       0.1924
     19  C          5.2810  -22.3860   -8.2340 C.2    36  SER36       0.2314
     20  O          5.6300  -23.5130   -7.8630 O.2    36  SER36      -0.2863
     21  CB         5.4970  -21.4420  -10.5600 C.3    36  SER36       0.2116
     22  OG         5.0160  -21.5210  -11.8930 O.3    36  SER36      -0.2180
     23  N          3.9360  -22.3030   -5.2070 N.3    38  ASP38      -0.1225
     24  CA         3.1370  -23.2180   -4.3800 C.3    38  ASP38       0.1805
     25  C          3.3650  -24.6690   -4.7940 C.2    38  ASP38       0.2597
     26  O          3.4920  -25.5420   -3.9390 O.2    38  ASP38      -0.2718
     27  CB         1.6640  -22.8530   -4.4890 C.3    38  ASP38       0.1424
     28  CG         1.2670  -21.5520   -3.8080 C.2    38  ASP38       0.3668
     29  OD1        2.1300  -20.9480   -3.0970 O.co2  38  ASP38      -0.2456
     30  OD2        0.1110  -21.1520   -3.9540 O.co2  38  ASP38      -0.2456
     31  N          3.4620  -24.9210   -6.1190 N.am   39  ALA39      -0.1979
     32  CA         3.7130  -26.2730   -6.6380 C.3    39  ALA39       0.1597
     33  C          5.1070  -26.7920   -6.2500 C.2    39  ALA39       0.2287
     34  O          5.2780  -27.9830   -5.9700 O.2    39  ALA39      -0.2864
     35  CB         3.5500  -26.2780   -8.1510 C.3    39  ALA39       0.0319
     36  N          5.1730  -27.7210   -2.6230 N.3    42  LYS42      -0.1245
     37  CA         4.5250  -29.0170   -2.4650 C.3    42  LYS42       0.1561
     38  C          5.4690  -30.1850   -2.7150 C.2    42  LYS42       0.2260
     39  O          5.5600  -31.0720   -1.8650 O.2    42  LYS42      -0.2867
     40  CB         3.2510  -29.1230   -3.3110 C.3    42  LYS42       0.0271
     41  CG         2.2700  -30.1430   -2.7200 C.3    42  LYS42       0.0035
     42  CD         0.8860  -30.0510   -3.3730 C.3    42  LYS42       0.0206
     43  CE        -0.1150  -30.9460   -2.6720 C.3    42  LYS42       0.1093
     44  NZ        -1.4590  -30.8910   -3.3230 N.3    42  LYS42      -0.1314
     45  N          5.8770  -20.0130  -18.9450 N.3    75  ILE75      -0.1245
     46  CA         6.3690  -20.0840  -17.5540 C.3    75  ILE75       0.1561
     47  C          6.5600  -21.5740  -17.2530 C.2    75  ILE75       0.2260
     48  O          5.5980  -22.3340  -17.3040 O.2    75  ILE75      -0.2867
     49  CB         5.4280  -19.4180  -16.5080 C.3    75  ILE75       0.0252
     50  CG1        5.1450  -17.9130  -16.8230 C.3    75  ILE75       0.0019
     51  CG2        6.0360  -19.5750  -15.0830 C.3    75  ILE75       0.0019
     52  CD1        3.8620  -17.6490  -17.5790 C.3    75  ILE75       0.0001
     53  N          7.9510  -24.4590  -14.4830 N.3    77  ASP77      -0.1239
     54  CA         8.4140  -24.7790  -13.1420 C.3    77  ASP77       0.1674
     55  C          8.6190  -26.2780  -13.0160 C.2    77  ASP77       0.2266
     56  O          8.0260  -27.0580  -13.7730 O.2    77  ASP77      -0.2867
     57  CB         7.4760  -24.2380  -12.0540 C.3    77  ASP77       0.1410
     58  CG         6.1130  -24.8910  -12.0090 C.2    77  ASP77       0.3668
     59  OD1        6.0430  -26.1020  -11.6860 O.co2  77  ASP77      -0.2456
     60  OD2        5.1250  -24.2090  -12.3390 O.co2  77  ASP77      -0.2456
     61  N          5.3480  -29.8520   -8.2620 N.3    80  ILE80      -0.1231
     62  CA         4.7070  -31.1620   -8.1150 C.3    80  ILE80       0.1692
     63  C          3.9630  -31.6350   -9.3820 C.2    80  ILE80       0.2593
     64  O          3.8330  -32.8370   -9.6050 O.2    80  ILE80      -0.2718
     65  CB         3.7920  -31.1940   -6.8640 C.3    80  ILE80       0.0266
     66  CG1        3.4060  -32.6580   -6.5020 C.3    80  ILE80       0.0019
     67  CG2        2.5380  -30.2770   -7.0610 C.3    80  ILE80       0.0020
     68  CD1        2.8490  -32.8770   -5.0860 C.3    80  ILE80       0.0001
     69  N          3.4490  -30.6910  -10.1510 N.am   81  GLY81      -0.1942
     70  CA         2.6850  -31.0240  -11.3510 C.3    81  GLY81       0.2014
     71  C          1.2720  -31.4410  -10.9990 C.2    81  GLY81       0.2638
     72  O          0.9190  -31.5510   -9.8200 O.2    81  GLY81      -0.2714
     73  N          0.4490  -31.6430  -12.0270 N.am   82  MET82      -0.1976
     74  CA        -0.9540  -31.9930  -11.8900 C.3    82  MET82       0.1605
     75  C         -1.2850  -33.2980  -12.6120 C.2    82  MET82       0.2287
     76  O         -0.8490  -33.5030  -13.7450 O.2    82  MET82      -0.2864
     77  CB        -1.8310  -30.8530  -12.4230 C.3    82  MET82       0.0413
     78  CG        -1.7870  -29.6130  -11.5020 C.3    82  MET82       0.0598
     79  SD        -2.3590  -28.0880  -12.3150 S.3    82  MET82      -0.1393
     80  CE        -0.9390  -27.7650  -13.3680 C.3    82  MET82       0.0692
     81  N         -6.4750  -34.1250  -11.2120 N.3    86  ASP86      -0.1239
     82  CA        -6.3160  -32.7330  -10.7970 C.3    86  ASP86       0.1674
     83  C         -6.8560  -31.7850  -11.8740 C.2    86  ASP86       0.2266
     84  O         -7.6540  -30.9000  -11.5730 O.2    86  ASP86      -0.2867
     85  CB        -4.8350  -32.4180  -10.5410 C.3    86  ASP86       0.1410
     86  CG        -4.2400  -33.0450   -9.2950 C.2    86  ASP86       0.3668
     87  OD1       -4.9810  -33.2270   -8.3130 O.co2  86  ASP86      -0.2456
     88  OD2       -3.0170  -33.3210   -9.2930 O.co2  86  ASP86      -0.2456
     89  N         -9.3470  -29.6190   -9.5780 N.3    91  LEU91      -0.1245
     90  CA        -9.2480  -28.1870   -9.8270 C.3    91  LEU91       0.1561
     91  C        -10.5530  -27.5920  -10.2980 C.2    91  LEU91       0.2260
     92  O        -10.7430  -26.4080  -10.0960 O.2    91  LEU91      -0.2867
     93  CB        -8.0630  -27.8150  -10.7180 C.3    91  LEU91       0.0270
     94  CG        -6.6850  -28.1200  -10.0770 C.3    91  LEU91       0.0019
     95  CD1       -5.5970  -27.9910  -11.1060 C.3    91  LEU91       0.0001
     96  CD2       -6.3990  -27.1910   -8.8530 C.3    91  LEU91       0.0001
     97  N        -12.2090  -26.6740   -7.0340 N.3    94  ILE94      -0.1245
     98  CA       -11.5210  -25.4780   -6.5500 C.3    94  ILE94       0.1561
     99  C        -11.9460  -24.2550   -7.3610 C.2    94  ILE94       0.2260
    100  O        -12.2220  -23.2180   -6.7510 O.2    94  ILE94      -0.2867
    101  CB        -9.9860  -25.6730   -6.5280 C.3    94  ILE94       0.0252
    102  CG1       -9.5700  -26.8590   -5.5960 C.3    94  ILE94       0.0019
    103  CG2       -9.2560  -24.3570   -6.1640 C.3    94  ILE94       0.0019
    104  CD1       -9.9570  -26.7860   -4.0510 C.3    94  ILE94       0.0001
    105  N         -7.6060  -18.3650   -4.5610 N.3   119  GLY119     -0.1225
    106  CA        -7.0520  -19.5910   -5.1360 C.3   119  GLY119      0.1811
    107  C         -7.2190  -19.7590   -6.6410 C.2   119  GLY119      0.2280
    108  O         -6.7680  -20.7660   -7.1980 O.2   119  GLY119     -0.2866
    109  N         -4.6830  -18.2570  -11.2480 N.3   122  PHE122     -0.1241
    110  CA        -4.3320  -18.8020  -12.5720 C.3   122  PHE122      0.1605
    111  C         -5.1500  -18.1000  -13.6830 C.2   122  PHE122      0.2264
    112  O         -4.6180  -17.7920  -14.7440 O.2   122  PHE122     -0.2867
    113  CB        -4.6270  -20.3150  -12.6000 C.3   122  PHE122      0.0534
    114  CG        -4.5710  -20.9250  -13.9840 C.ar  122  PHE122     -0.0203
    115  CD1       -3.3520  -21.1320  -14.6230 C.ar  122  PHE122     -0.0042
    116  CD2       -5.7460  -21.2740  -14.6590 C.ar  122  PHE122     -0.0042
    117  CE1       -3.3030  -21.6880  -15.9120 C.ar  122  PHE122     -0.0003
    118  CE2       -5.6990  -21.8320  -15.9460 C.ar  122  PHE122     -0.0003
    119  CZ        -4.4810  -22.0330  -16.5650 C.ar  122  PHE122     -0.0000
    120  N         -1.5710  -25.5820  -20.6850 N.3   134  VAL134     -0.1245
    121  CA        -0.8970  -26.0350  -19.4680 C.3   134  VAL134      0.1561
    122  C         -0.3840  -27.4440  -19.7420 C.2   134  VAL134      0.2260
    123  O         -1.1950  -28.3650  -19.8810 O.2   134  VAL134     -0.2867
    124  CB        -1.8870  -25.9910  -18.2730 C.3   134  VAL134      0.0252
    125  CG1       -1.2400  -26.5620  -17.0030 C.3   134  VAL134      0.0019
    126  CG2       -2.3930  -24.5650  -18.0400 C.3   134  VAL134      0.0019
    127  N          5.2840  -28.1110  -14.4460 N.3   168  THR168     -0.1218
    128  CA         4.2610  -27.4780  -15.2760 C.3   168  THR168      0.1862
    129  C          4.8410  -26.3930  -16.1540 C.2   168  THR168      0.2287
    130  O          5.6630  -25.5970  -15.7030 O.2   168  THR168     -0.2866
    131  CB         3.1530  -26.9080  -14.3640 C.3   168  THR168      0.1770
    132  OG1        2.6460  -27.9500  -13.5190 O.3   168  THR168     -0.2211
    133  CG2        1.9920  -26.2150  -15.1650 C.3   168  THR168      0.0375
    134  N          3.2800  -23.3580  -18.5320 N.3   170  VAL170     -0.1245
    135  CA         2.0800  -22.6120  -18.9030 C.3   170  VAL170      0.1561
    136  C          2.4740  -21.7550  -20.0890 C.2   170  VAL170      0.2260
    137  O          3.4040  -20.9450  -19.9790 O.2   170  VAL170     -0.2867
    138  CB         1.5640  -21.7570  -17.7260 C.3   170  VAL170      0.0252
    139  CG1        0.3770  -20.8830  -18.1630 C.3   170  VAL170      0.0019
    140  CG2        1.2070  -22.6540  -16.5330 C.3   170  VAL170      0.0019
@<TRIPOS>BOND
     1   120   121    1
     2   136   137    2
     3   136   135    1
     4   123   122    2
     5   122   121    1
     6   121   124    1
     7    45    46    1
     8   135   134    1
     9   135   138    1
    10   124   126    1
    11   124   125    1
    12   139   138    1
    13   138   140    1
    14    52    50    1
    15    46    47    1
    16    46    49    1
    17    48    47    2
    18    50    49    1
    19   119   118   ar
    20   119   117   ar
    21    49    51    1
    22   129   130    2
    23   129   128    1
    24     7     6    1
    25   118   116   ar
    26   117   115   ar
    27   128   127    1
    28   128   131    1
    29   133   131    1
    30   112   111    2
    31   116   114   ar
    32   115   114   ar
    33     6     8    1
    34     6     5    1
    35    53    54    1
    36   131   132    1
    37   114   113    1
    38    56    55    2
    39     5     2    1
    40    76    75    2
    41   111   110    1
    42    80    79    1
    43    54    55    1
    44    54    57    1
    45    75    74    1
    46   113   110    1
    47   110   109    1
    48    77    74    1
    49    77    78    1
    50    60    58   ar
    51    79    78    1
    52     2     1    1
    53     2     3    1
    54    57    58    1
    55    73    74    1
    56    73    71   am
    57    58    59   ar
    58    22    21    1
    59    83    84    2
    60    83    82    1
    61     3     4    2
    62    70    71    1
    63    70    69    1
    64    81    82    1
    65    95    94    1
    66    71    72    2
    67    82    85    1
    68    93    94    1
    69    93    90    1
    70    21    18    1
    71    85    86    1
    72    91    92    2
    73    91    90    1
    74    69    63   am
    75    94    96    1
    76    16    14   am
    77    90    89    1
    78    13    14    1
    79    13    10    1
    80    64    63    2
    81    18    17    1
    82    18    19    1
    83    17    11   am
    84    63    62    1
    85    14    15    2
    86    86    88   ar
    87    86    87   ar
    88    11    10    1
    89    11    12    2
    90    10     9    1
    91    61    62    1
    92    19    20    2
    93    35    32    1
    94    62    65    1
    95    99   100    2
    96    99    98    1
    97   108   107    2
    98    67    65    1
    99    97    98    1
   100    65    66    1
   101   107   106    1
   102    32    33    1
   103    32    31    1
   104    98   101    1
   105   101   103    1
   106   101   102    1
   107    66    68    1
   108    33    34    2
   109    31    25   am
   110   102   104    1
   111    23    24    1
   112   106   105    1
   113    25    24    1
   114    25    26    2
   115    27    24    1
   116    27    28    1
   117    30    28   ar
   118    28    29   ar
   119    42    41    1
   120    42    43    1
   121    44    43    1
   122    40    41    1
   123    40    37    1
   124    38    37    1
   125    38    39    2
   126    36    37    1
