@<TRIPOS>MOLECULE
tmp/2yk4A00.pdb
 156 154 0 0 0
SMALL
GASTEIGER

@<TRIPOS>ATOM
      1  N         41.4130   74.8460    2.1850 N.3     9  TYR9       -0.1241
      2  CA        40.3400   74.1610    1.4510 C.3     9  TYR9        0.1605
      3  C         39.2820   75.0810    0.8160 C.2     9  TYR9        0.2264
      4  O         38.2500   74.6020    0.3640 O.2     9  TYR9       -0.2867
      5  CB        39.6780   73.0730    2.2970 C.3     9  TYR9        0.0534
      6  CG        38.8450   73.5060    3.4930 C.ar    9  TYR9       -0.0201
      7  CD1       39.4360   73.8290    4.7110 C.ar    9  TYR9       -0.0009
      8  CD2       37.4330   73.5570    3.4020 C.ar    9  TYR9       -0.0009
      9  CE1       38.6550   74.1810    5.8130 C.ar    9  TYR9        0.0417
     10  CE2       36.6520   73.9330    4.4790 C.ar    9  TYR9        0.0417
     11  CZ        37.2460   74.2440    5.6780 C.ar    9  TYR9        0.1957
     12  OH        36.4460   74.5780    6.7700 O.3     9  TYR9       -0.2866
     13  N         45.0420   68.5120   -3.9030 N.3    56  PHE56      -0.1241
     14  CA        44.7950   67.2040   -3.3870 C.3    56  PHE56       0.1605
     15  C         43.2780   67.0680   -3.4660 C.2    56  PHE56       0.2264
     16  O         42.5450   67.6520   -2.6780 O.2    56  PHE56      -0.2867
     17  CB        45.4150   67.1470   -1.9850 C.3    56  PHE56       0.0534
     18  CG        45.2040   65.8520   -1.2380 C.ar   56  PHE56      -0.0203
     19  CD1       44.8430   64.6680   -1.8950 C.ar   56  PHE56      -0.0042
     20  CD2       45.4210   65.8190    0.1480 C.ar   56  PHE56      -0.0042
     21  CE1       44.6690   63.4710   -1.1740 C.ar   56  PHE56      -0.0003
     22  CE2       45.2350   64.6270    0.8850 C.ar   56  PHE56      -0.0003
     23  CZ        44.8680   63.4440    0.2080 C.ar   56  PHE56      -0.0000
     24  N         39.6020   65.6380   -3.1900 N.3    58  LEU58      -0.1231
     25  CA        38.9290   64.8370   -2.1780 C.3    58  LEU58       0.1678
     26  C         37.5930   64.3790   -2.7200 C.2    58  LEU58       0.2434
     27  O         36.9650   65.1000   -3.4940 O.2    58  LEU58      -0.2733
     28  CB        38.7710   65.6140   -0.8690 C.3    58  LEU58       0.0284
     29  CG        40.0620   66.0810   -0.1870 C.3    58  LEU58       0.0019
     30  CD1       39.7370   67.0180    0.9580 C.3    58  LEU58       0.0001
     31  CD2       40.9000   64.9140    0.3160 C.3    58  LEU58       0.0001
     32  N         37.1660   63.1570   -2.3380 N.am   59  PRO59      -0.2718
     33  CA        35.8330   62.6620   -2.6980 C.3    59  PRO59       0.1535
     34  C         34.7340   63.5610   -2.1740 C.2    59  PRO59       0.2599
     35  O         34.7760   63.9900   -0.9990 O.2    59  PRO59      -0.2715
     36  CB        35.7400   61.3060   -1.9780 C.3    59  PRO59       0.0310
     37  CG        36.8490   61.3120   -0.9590 C.3    59  PRO59       0.0237
     38  CD        37.9290   62.1570   -1.5660 C.3    59  PRO59       0.0939
     39  N         33.7580   63.8270   -3.0370 N.am   60  TYR60      -0.1960
     40  CA        32.5710   64.5840   -2.6550 C.3    60  TYR60       0.1771
     41  C         31.8820   63.9710   -1.4450 C.2    60  TYR60       0.2620
     42  O         31.7060   62.7500   -1.3600 O.2    60  TYR60      -0.2715
     43  CB        31.6010   64.7130   -3.8300 C.3    60  TYR60       0.0574
     44  CG        30.2710   65.3290   -3.4630 C.ar   60  TYR60      -0.0198
     45  CD1       30.1410   66.7160   -3.2550 C.ar   60  TYR60      -0.0009
     46  CD2       29.1300   64.5210   -3.3230 C.ar   60  TYR60      -0.0009
     47  CE1       28.9030   67.2800   -2.9190 C.ar   60  TYR60       0.0417
     48  CE2       27.8910   65.0670   -2.9880 C.ar   60  TYR60       0.0417
     49  CZ        27.7760   66.4460   -2.7850 C.ar   60  TYR60       0.1957
     50  OH        26.5300   66.9630   -2.4350 O.3    60  TYR60      -0.2866
     51  N         31.5040   64.8360   -0.5080 N.am   61  GLY61      -0.1940
     52  CA        30.8620   64.4060    0.7130 C.3    61  GLY61       0.2014
     53  C         31.7640   63.9440    1.8440 C.2    61  GLY61       0.2639
     54  O         31.2650   63.5880    2.9100 O.2    61  GLY61      -0.2714
     55  N         33.0850   63.9640    1.6650 N.am   62  LEU62      -0.1963
     56  CA        33.9740   63.5890    2.7760 C.3    62  LEU62       0.1728
     57  C         33.8100   64.4940    4.0270 C.2    62  LEU62       0.2616
     58  O         33.7580   64.0060    5.1590 O.2    62  LEU62      -0.2715
     59  CB        35.4280   63.5270    2.3030 C.3    62  LEU62       0.0311
     60  CG        36.5050   63.2610    3.3700 C.3    62  LEU62       0.0022
     61  CD1       36.2000   61.9840    4.2230 C.3    62  LEU62       0.0001
     62  CD2       37.8490   63.1600    2.7240 C.3    62  LEU62       0.0001
     63  N         33.7150   65.8060    3.7990 N.am   63  ASN63      -0.1958
     64  CA        33.5990   66.8000    4.8680 C.3    63  ASN63       0.1819
     65  C         32.1240   66.9540    5.2700 C.2    63  ASN63       0.2621
     66  O         31.3140   67.3530    4.4450 O.2    63  ASN63      -0.2715
     67  CB        34.1470   68.1470    4.3630 C.3    63  ASN63       0.1195
     68  CG        34.1580   69.2350    5.4500 C.2    63  ASN63       0.2630
     69  OD1       33.9320   68.9450    6.6540 O.2    63  ASN63      -0.2716
     70  ND2       34.4100   70.4990    5.0310 N.am   63  ASN63      -0.0877
     71  N         31.7940   66.6300    6.5190 N.am   64  LYS64      -0.1963
     72  CA        30.4350   66.8100    7.0670 C.3    64  LYS64       0.1728
     73  C         30.2130   68.2260    7.6270 C.2    64  LYS64       0.2616
     74  O         29.0940   68.5930    8.0220 O.2    64  LYS64      -0.2715
     75  CB        30.2240   65.8580    8.2300 C.3    64  LYS64       0.0311
     76  CG        30.1070   64.4010    7.9060 C.3    64  LYS64       0.0038
     77  CD        30.2380   63.6270    9.2390 C.3    64  LYS64       0.0206
     78  CE        29.3360   64.1770   10.3380 C.3    64  LYS64       0.1093
     79  NZ        30.1050   64.3160   11.6490 N.3    64  LYS64      -0.1314
     80  N         31.2830   69.0140    7.6900 N.am   65  SER65      -0.1950
     81  CA        31.1600   70.3880    8.1880 C.3    65  SER65       0.1924
     82  C         31.1200   71.4140    7.0480 C.2    65  SER65       0.2314
     83  O         31.1410   71.0690    5.8490 O.2    65  SER65      -0.2863
     84  CB        32.2730   70.6970    9.1900 C.3    65  SER65       0.2116
     85  OG        33.4650   70.9940    8.5080 O.3    65  SER65      -0.2180
     86  N         22.9670   62.5640    2.5270 N.3    79  LEU79      -0.1245
     87  CA        23.9960   61.9600    1.7110 C.3    79  LEU79       0.1561
     88  C         24.6990   60.9420    2.6040 C.2    79  LEU79       0.2260
     89  O         25.1190   59.8830    2.1300 O.2    79  LEU79      -0.2867
     90  CB        24.9710   63.0150    1.1580 C.3    79  LEU79       0.0270
     91  CG        26.4830   63.0460    1.4260 C.3    79  LEU79       0.0019
     92  CD1       27.2320   62.0090    0.5520 C.3    79  LEU79       0.0001
     93  CD2       27.0580   64.4550    1.2020 C.3    79  LEU79       0.0001
     94  N         25.9190   58.0350    4.4210 N.3    81  PRO81      -0.2116
     95  CA        25.6440   56.6020    4.5960 C.3    81  PRO81       0.1372
     96  C         25.5720   56.3080    6.0920 C.2    81  PRO81       0.2244
     97  O         26.3290   56.9140    6.8710 O.2    81  PRO81      -0.2868
     98  CB        26.8730   55.9280    3.9680 C.3    81  PRO81       0.0268
     99  CG        27.9890   56.9750    4.0550 C.3    81  PRO81       0.0207
    100  CD        27.2680   58.2880    3.8590 C.3    81  PRO81       0.0892
    101  N         26.4560   53.9570    9.0700 N.3    83  VAL83      -0.1245
    102  CA        27.6330   53.0270    9.0780 C.3    83  VAL83       0.1561
    103  C         27.6000   52.1550   10.3120 C.2    83  VAL83       0.2260
    104  O         27.7410   52.6410   11.4310 O.2    83  VAL83      -0.2867
    105  CB        28.9850   53.7950    9.0210 C.3    83  VAL83       0.0252
    106  CG1       30.2070   52.8390    9.2790 C.3    83  VAL83       0.0019
    107  CG2       29.1270   54.5390    7.6880 C.3    83  VAL83       0.0019
    108  N         46.2260   56.7980   11.1680 N.3    95  SER95      -0.1202
    109  CA        46.1240   57.6980   10.0320 C.3    95  SER95       0.2020
    110  C         44.7110   58.2210    9.7050 C.2    95  SER95       0.2618
    111  O         44.5740   59.3550    9.2110 O.2    95  SER95      -0.2717
    112  CB        46.7660   57.1130    8.7750 C.3    95  SER95       0.2103
    113  OG        46.1470   55.8960    8.3890 O.3    95  SER95      -0.2182
    114  N         43.6690   57.4200    9.9340 N.am   96  ILE96      -0.1979
    115  CA        42.3190   57.9510    9.6710 C.3    96  ILE96       0.1595
    116  C         41.4860   58.0940   10.9330 C.2    96  ILE96       0.2287
    117  O         40.2490   58.0200   10.9060 O.2    96  ILE96      -0.2864
    118  CB        41.5670   57.1880    8.5390 C.3    96  ILE96       0.0276
    119  CG1       41.1420   55.7940    9.0000 C.3    96  ILE96       0.0022
    120  CG2       42.4030   57.2010    7.2070 C.3    96  ILE96       0.0022
    121  CD1       40.1430   55.0980    8.0300 C.3    96  ILE96       0.0001
    122  N         40.7010   60.6930   12.6390 N.3    98  ALA98      -0.1231
    123  CA        39.7260   61.8020   12.6600 C.3    98  ALA98       0.1694
    124  C         38.4150   61.3770   11.9800 C.2    98  ALA98       0.2592
    125  O         37.3240   61.7060   12.4490 O.2    98  ALA98      -0.2718
    126  CB        40.3060   63.0420   12.0060 C.3    98  ALA98       0.0304
    127  N         38.5140   60.6190   10.8860 N.am   99  PHE99      -0.1976
    128  CA        37.3080   60.0710   10.2530 C.3    99  PHE99       0.1639
    129  C         36.5680   59.0480   11.1330 C.2    99  PHE99       0.2290
    130  O         35.3440   59.0950   11.2380 O.2    99  PHE99      -0.2864
    131  CB        37.6020   59.4870    8.8630 C.3    99  PHE99       0.0560
    132  CG        36.4180   58.8230    8.2440 C.ar   99  PHE99      -0.0200
    133  CD1       35.4680   59.5790    7.5380 C.ar   99  PHE99      -0.0042
    134  CD2       36.2150   57.4540    8.4090 C.ar   99  PHE99      -0.0042
    135  CE1       34.3310   58.9660    6.9820 C.ar   99  PHE99      -0.0003
    136  CE2       35.0990   56.8290    7.8470 C.ar   99  PHE99      -0.0003
    137  CZ        34.1580   57.5910    7.1130 C.ar   99  PHE99      -0.0000
    138  N         34.2440   60.4330   13.7130 N.3   102  THR102     -0.1203
    139  CA        32.9430   60.9110   13.2610 C.3   102  THR102      0.1994
    140  C         31.8920   59.7810   13.2070 C.2   102  THR102      0.2617
    141  O         30.7300   60.0380   12.8670 O.2   102  THR102     -0.2717
    142  CB        32.9630   61.5710   11.8610 C.3   102  THR102      0.1784
    143  OG1       33.1590   60.5750   10.8540 O.3   102  THR102     -0.2211
    144  CG2       34.0170   62.7100   11.7190 C.3   102  THR102      0.0376
    145  N         32.2920   58.5460   13.5170 N.am  103  TYR103     -0.1975
    146  CA        31.3250   57.4320   13.5930 C.3   103  TYR103      0.1639
    147  C         31.4710   56.7290   14.9170 C.2   103  TYR103      0.2290
    148  O         31.8040   55.5530   14.9680 O.2   103  TYR103     -0.2864
    149  CB        31.4620   56.4640   12.3890 C.3   103  TYR103      0.0560
    150  CG        30.8680   57.0250   11.1130 C.ar  103  TYR103     -0.0198
    151  CD1       29.4770   57.0890   10.9520 C.ar  103  TYR103     -0.0009
    152  CD2       31.6830   57.5290   10.0740 C.ar  103  TYR103     -0.0009
    153  CE1       28.9030   57.6170    9.7910 C.ar  103  TYR103      0.0417
    154  CE2       31.1110   58.0640    8.8920 C.ar  103  TYR103      0.0417
    155  CZ        29.7140   58.0910    8.7640 C.ar  103  TYR103      0.1957
    156  OH        29.0940   58.6040    7.6350 O.3   103  TYR103     -0.2866
@<TRIPOS>BOND
     1    13    14    1
     2    43    44    1
     3    43    40    1
     4    27    26    2
     5    15    14    1
     6    15    16    2
     7    44    46   ar
     8    44    45   ar
     9    14    17    1
    10    46    48   ar
    11    45    47   ar
    12    24    25    1
    13    39    40    1
    14    39    34   am
    15    48    49   ar
    16    47    49   ar
    17    49    50    1
    18    26    32   am
    19    26    25    1
    20    33    32    1
    21    33    34    1
    22    33    36    1
    23    40    41    1
    24    32    38    1
    25    25    28    1
    26    34    35    2
    27    17    18    1
    28    36    37    1
    29    19    18   ar
    30    19    21   ar
    31    38    37    1
    32    41    42    2
    33    41    51   am
    34    18    20   ar
    35    21    23   ar
    36    28    29    1
    37    51    52    1
    38    29    31    1
    39    29    30    1
    40    20    22   ar
    41    23    22   ar
    42     4     3    2
    43    92    91    1
    44    52    53    1
    45     3     2    1
    46    90    91    1
    47    90    87    1
    48    93    91    1
    49     2     1    1
    50     2     5    1
    51    55    53   am
    52    55    56    1
    53    87    86    1
    54    87    88    1
    55    53    54    2
    56    89    88    2
    57     5     6    1
    58    59    56    1
    59    59    60    1
    60    62    60    1
    61    56    57    1
    62    60    61    1
    63     8     6   ar
    64     8    10   ar
    65     6     7   ar
    66    63    57   am
    67    63    64    1
    68   100    99    1
    69   100    94    1
    70    98    99    1
    71    98    95    1
    72    57    58    2
    73    67    64    1
    74    67    68    1
    75    94    95    1
    76    66    65    2
    77    10    11   ar
    78    95    96    1
    79     7     9   ar
    80    64    65    1
    81    70    68   am
    82    65    71   am
    83    68    69    2
    84    11     9   ar
    85    11    12    1
    86    83    82    2
    87    96    97    2
    88    71    72    1
    89   135   137   ar
    90   135   133   ar
    91    82    81    1
    92    72    73    1
    93    72    75    1
    94   137   136   ar
    95   120   118    1
    96   133   132   ar
    97    73    80   am
    98    73    74    2
    99   156   155    1
   100   107   105    1
   101    80    81    1
   102   136   134   ar
   103    76    75    1
   104    76    77    1
   105   121   119    1
   106    81    84    1
   107   132   134   ar
   108   132   131    1
   109   113   112    1
   110    85    84    1
   111   118   119    1
   112   118   115    1
   113   155   154   ar
   114   155   153   ar
   115   112   109    1
   116   131   128    1
   117   154   152   ar
   118   105   102    1
   119   105   106    1
   120   101   102    1
   121   102   103    1
   122   111   110    2
   123    77    78    1
   124   115   114    1
   125   115   116    1
   126   110   114   am
   127   110   109    1
   128   153   151   ar
   129   109   108    1
   130   152   150   ar
   131   128   127    1
   132   128   129    1
   133   103   104    2
   134    78    79    1
   135   143   142    1
   136   127   124   am
   137   117   116    2
   138   151   150   ar
   139   150   149    1
   140   129   130    2
   141   144   142    1
   142   142   139    1
   143   124   125    2
   144   124   123    1
   145   126   123    1
   146   149   146    1
   147   122   123    1
   148   141   140    2
   149   140   139    1
   150   140   145   am
   151   139   138    1
   152   145   146    1
   153   146   147    1
   154   147   148    2
