@<TRIPOS>MOLECULE
tmp/2yk5A00.pdb
 116 113 0 0 0
SMALL
GASTEIGER

@<TRIPOS>ATOM
      1  N         52.8870   42.1140    7.7130 N.3   114  THR114     -0.1218
      2  CA        53.7920   41.4430    8.6930 C.3   114  THR114      0.1862
      3  C         54.2350   42.3590    9.8410 C.2   114  THR114      0.2287
      4  O         54.7690   41.8640   10.8460 O.2   114  THR114     -0.2866
      5  CB        55.0900   40.9720    8.0270 C.3   114  THR114      0.1770
      6  OG1       55.7090   42.0910    7.3780 O.3   114  THR114     -0.2211
      7  CG2       54.7880   39.9060    6.9890 C.3   114  THR114      0.0375
      8  N         44.0330   32.0670    1.8420 N.3   178  PHE178     -0.1241
      9  CA        44.3140   31.2320    0.6980 C.3   178  PHE178      0.1605
     10  C         43.7660   29.8270    0.8270 C.2   178  PHE178      0.2264
     11  O         44.0470   29.1390    1.7980 O.2   178  PHE178     -0.2867
     12  CB        45.8280   31.2460    0.4310 C.3   178  PHE178      0.0534
     13  CG        46.3290   32.6090    0.0540 C.ar  178  PHE178     -0.0203
     14  CD1       45.8660   33.2140   -1.1140 C.ar  178  PHE178     -0.0042
     15  CD2       47.1780   33.3270    0.9090 C.ar  178  PHE178     -0.0042
     16  CE1       46.2530   34.5060   -1.4650 C.ar  178  PHE178     -0.0003
     17  CE2       47.5800   34.6320    0.5740 C.ar  178  PHE178     -0.0003
     18  CZ        47.1160   35.2290   -0.6200 C.ar  178  PHE178     -0.0000
     19  N         61.2660   35.8010   -5.7080 N.3   197  LEU197     -0.1231
     20  CA        60.3950   36.9120   -5.3980 C.3   197  LEU197      0.1693
     21  C         61.1280   38.2280   -5.5800 C.2   197  LEU197      0.2592
     22  O         62.0810   38.5300   -4.8370 O.2   197  LEU197     -0.2718
     23  CB        59.8040   36.8190   -3.9890 C.3   197  LEU197      0.0284
     24  CG        58.9900   35.5530   -3.7740 C.3   197  LEU197      0.0019
     25  CD1       58.2730   35.7010   -2.4160 C.3   197  LEU197      0.0001
     26  CD2       57.9890   35.3370   -4.9400 C.3   197  LEU197      0.0001
     27  N         60.6990   39.0130   -6.5750 N.am  198  GLY198     -0.1957
     28  CA        61.3270   40.3320   -6.7730 C.3   198  GLY198      0.1869
     29  C         61.2630   41.1870   -5.5090 C.2   198  GLY198      0.2309
     30  O         60.3030   41.1130   -4.7340 O.2   198  GLY198     -0.2863
     31  N         59.0760   36.6380   -9.9560 N.3   220  ALA220     -0.1231
     32  CA        57.7350   37.2140   -9.7400 C.3   220  ALA220      0.1679
     33  C         57.9820   38.5740   -9.1650 C.2   220  ALA220      0.2434
     34  O         58.4770   38.6670   -8.0450 O.2   220  ALA220     -0.2733
     35  CB        56.9010   36.3750   -8.7620 C.3   220  ALA220      0.0304
     36  N         57.6660   39.6380   -9.9290 N.am  221  PRO221     -0.2718
     37  CA        58.0490   40.9680   -9.4940 C.3   221  PRO221      0.1535
     38  C         57.1380   41.4170   -8.3300 C.2   221  PRO221      0.2599
     39  O         55.9490   41.0460   -8.2720 O.2   221  PRO221     -0.2715
     40  CB        57.8450   41.8380  -10.7790 C.3   221  PRO221      0.0310
     41  CG        56.8140   41.0770  -11.6220 C.3   221  PRO221      0.0237
     42  CD        57.0580   39.6180  -11.2830 C.3   221  PRO221      0.0939
     43  N         57.6870   42.1890   -7.4000 N.am  222  HIS222     -0.1960
     44  CA        56.8770   42.7200   -6.3210 C.3   222  HIS222      0.1772
     45  C         55.8120   43.6950   -6.9010 C.2   222  HIS222      0.2462
     46  O         56.1100   44.4380   -7.8290 O.2   222  HIS222     -0.2730
     47  CB        57.7580   43.4040   -5.2850 C.3   222  HIS222      0.0785
     48  CG        57.0090   43.8300   -4.0630 C.ar  222  HIS222      0.0821
     49  ND1       57.0420   43.1160   -2.8750 N.ar  222  HIS222     -0.2267
     50  CD2       56.1860   44.8900   -3.8470 C.ar  222  HIS222      0.1154
     51  CE1       56.2780   43.7260   -1.9790 C.ar  222  HIS222      0.1986
     52  NE2       55.7410   44.7970   -2.5450 N.ar  222  HIS222     -0.2212
     53  N         54.5650   43.6680   -6.3650 N.am  223  PRO223     -0.2716
     54  CA        53.5810   44.6430   -6.8410 C.3   223  PRO223      0.1536
     55  C         54.0730   46.1130   -6.8950 C.2   223  PRO223      0.2598
     56  O         53.6500   46.8500   -7.7960 O.2   223  PRO223     -0.2715
     57  CB        52.4350   44.4750   -5.8760 C.3   223  PRO223      0.0310
     58  CG        52.5130   42.9720   -5.4970 C.3   223  PRO223      0.0237
     59  CD        53.9840   42.7110   -5.3950 C.3   223  PRO223      0.0939
     60  N         54.9840   46.5190   -6.0020 N.am  224  ARG224     -0.1978
     61  CA        55.4960   47.9100   -6.0040 C.3   224  ARG224      0.1597
     62  C         56.8000   48.0170   -6.7780 C.2   224  ARG224      0.2287
     63  O         57.4240   49.0680   -6.7910 O.2   224  ARG224     -0.2864
     64  CB        55.6920   48.4650   -4.5740 C.3   224  ARG224      0.0334
     65  CG        54.3810   48.5630   -3.7550 C.3   224  ARG224      0.0492
     66  CD        54.5560   49.1340   -2.3330 C.3   224  ARG224      0.2205
     67  NE        55.1960   48.2360   -1.3610 N.pl3 224  ARG224     -0.0865
     68  CZ        56.4690   48.3380   -0.9620 C.cat 224  ARG224      0.5346
     69  NH1       57.2750   49.2640   -1.4750 N.pl3 224  ARG224      0.1354
     70  NH2       56.9610   47.4850   -0.0630 N.pl3 224  ARG224      0.1354
     71  N         48.9240   38.4220   -7.3960 N.3   240  VAL240     -0.1231
     72  CA        50.0700   38.3160   -6.4700 C.3   240  VAL240      0.1692
     73  C         50.5210   36.8730   -6.4480 C.2   240  VAL240      0.2592
     74  O         49.7660   35.9720   -6.8650 O.2   240  VAL240     -0.2718
     75  CB        49.7650   38.8090   -5.0170 C.3   240  VAL240      0.0266
     76  CG1       49.5800   40.3150   -5.0440 C.3   240  VAL240      0.0020
     77  CG2       48.5240   38.0730   -4.4250 C.3   240  VAL240      0.0020
     78  N         51.7210   36.6500   -5.9190 N.am  241  ILE241     -0.1966
     79  CA        52.3680   35.3570   -6.0740 C.3   241  ILE241      0.1727
     80  C         51.5540   34.2510   -5.4870 C.2   241  ILE241      0.2616
     81  O         51.4880   33.1910   -6.0840 O.2   241  ILE241     -0.2715
     82  CB        53.8770   35.3210   -5.5610 C.3   241  ILE241      0.0290
     83  CG1       54.5000   33.9680   -5.9170 C.3   241  ILE241      0.0022
     84  CG2       54.0140   35.6300   -4.0690 C.3   241  ILE241      0.0023
     85  CD1       54.7540   33.8470   -7.4390 C.3   241  ILE241      0.0001
     86  N         50.9050   34.4670   -4.3360 N.am  242  GLU242     -0.1977
     87  CA        50.1170   33.3460   -3.7550 C.3   242  GLU242      0.1602
     88  C         49.0110   32.8500   -4.6990 C.2   242  GLU242      0.2287
     89  O         48.8290   31.6180   -4.8630 O.2   242  GLU242     -0.2864
     90  CB        49.5170   33.6550   -2.3600 C.3   242  GLU242      0.0415
     91  CG        50.5270   34.0720   -1.2570 C.3   242  GLU242      0.1163
     92  CD        50.7440   35.5790   -1.1930 C.2   242  GLU242      0.3649
     93  OE1       50.5530   36.2820   -2.2070 O.co2 242  GLU242     -0.2457
     94  OE2       51.0970   36.1040   -0.1190 O.co2 242  GLU242     -0.2457
     95  N         60.5120   38.0190    2.1120 N.3   264  SER264     -0.1202
     96  CA        59.1750   38.5320    1.8250 C.3   264  SER264      0.2020
     97  C         58.1260   37.9190    2.7410 C.2   264  SER264      0.2619
     98  O         58.1740   36.7160    3.0210 O.2   264  SER264     -0.2717
     99  CB        58.8180   38.3060    0.3550 C.3   264  SER264      0.2103
    100  OG        57.4350   38.4600    0.1070 O.3   264  SER264     -0.2182
    101  N         57.1510   38.7340    3.1800 N.am  265  GLY265     -0.1942
    102  CA        55.9960   38.1910    3.9080 C.3   265  GLY265      0.2014
    103  C         55.2760   37.0260    3.2320 C.2   265  GLY265      0.2638
    104  O         54.6170   36.2330    3.9340 O.2   265  GLY265     -0.2714
    105  N         55.3970   36.9190    1.8860 N.am  266  ALA266     -0.1977
    106  CA        54.8830   35.7540    1.1120 C.3   266  ALA266      0.1597
    107  C         55.4530   34.3900    1.5380 C.2   266  ALA266      0.2287
    108  O         54.8170   33.3570    1.3690 O.2   266  ALA266     -0.2864
    109  CB        55.0380   35.9670   -0.4470 C.3   266  ALA266      0.0319
    110  N         52.7860   33.3880    4.2440 N.3   269  THR269     -0.1218
    111  CA        51.4940   32.9570    3.7500 C.3   269  THR269      0.1862
    112  C         51.5390   31.6920    2.9460 C.2   269  THR269      0.2287
    113  O         50.5250   31.0300    2.8450 O.2   269  THR269     -0.2866
    114  CB        50.8360   34.0210    2.8690 C.3   269  THR269      0.1770
    115  OG1       51.7560   34.3990    1.8480 O.3   269  THR269     -0.2211
    116  CG2       50.4870   35.2300    3.7120 C.3   269  THR269      0.0375
@<TRIPOS>BOND
     1    41    42    1
     2    41    40    1
     3    42    36    1
     4    40    37    1
     5    31    32    1
     6    36    37    1
     7    36    33   am
     8    32    33    1
     9    32    35    1
    10    37    38    1
    11    33    34    2
    12    38    39    2
    13    38    43   am
    14    46    45    2
    15    56    55    2
    16    85    83    1
    17    43    44    1
    18    71    72    1
    19    45    53   am
    20    45    44    1
    21    55    54    1
    22    55    60   am
    23    74    73    2
    24    54    53    1
    25    54    57    1
    26    63    62    2
    27    62    61    1
    28    28    27    1
    29    28    29    1
    30    27    21   am
    31    72    73    1
    32    72    75    1
    33    73    78   am
    34    53    59    1
    35    44    47    1
    36    81    80    2
    37    79    78    1
    38    79    82    1
    39    79    80    1
    40    61    60    1
    41    61    64    1
    42    83    82    1
    43    57    58    1
    44    19    20    1
    45    21    20    1
    46    21    22    2
    47    82    84    1
    48    29    30    2
    49    58    59    1
    50    80    86   am
    51    20    23    1
    52    47    48    1
    53    76    75    1
    54    75    77    1
    55    26    24    1
    56    89    88    2
    57    88    87    1
    58    64    65    1
    59    86    87    1
    60    48    50   ar
    61    48    49   ar
    62    23    24    1
    63    50    52   ar
    64    24    25    1
    65    65    66    1
    66    87    90    1
    67    49    51   ar
    68    52    51   ar
    69    90    91    1
    70    66    67    1
    71    93    92   ar
    72    69    68    1
    73    16    14   ar
    74    16    18   ar
    75    67    68    2
    76    91    92    1
    77    92    94   ar
    78    14    13   ar
    79    68    70    1
    80    18    17   ar
    81   109   106    1
    82    13    12    1
    83    13    15   ar
    84   100    99    1
    85    99    96    1
    86    12     9    1
    87    17    15   ar
    88     9    10    1
    89     9     8    1
    90    10    11    2
    91   106   107    1
    92   106   105    1
    93   108   107    2
    94    96    95    1
    95    96    97    1
    96   115   114    1
    97   105   103   am
    98    97    98    2
    99    97   101   am
   100   113   112    2
   101   114   116    1
   102   114   111    1
   103   112   111    1
   104   101   102    1
   105   103   102    1
   106   103   104    2
   107   111   110    1
   108     7     5    1
   109     6     5    1
   110     1     2    1
   111     5     2    1
   112     2     3    1
   113     3     4    2
