@<TRIPOS>MOLECULE
tmp/2yk6A01.pdb
 82 78 0 0 0
SMALL
GASTEIGER

@<TRIPOS>ATOM
      1  N         41.0970   74.0320    2.2670 N.3     8  TYR8       -0.1241
      2  CA        39.9810   73.4020    1.6330 C.3     8  TYR8        0.1605
      3  C         38.9410   74.3780    1.0460 C.2     8  TYR8        0.2264
      4  O         37.8160   73.9740    0.7240 O.2     8  TYR8       -0.2867
      5  CB        39.3720   72.3500    2.5550 C.3     8  TYR8        0.0534
      6  CG        38.6230   72.8360    3.7880 C.ar    8  TYR8       -0.0201
      7  CD1       39.3170   73.2040    4.9780 C.ar    8  TYR8       -0.0009
      8  CD2       37.2110   72.8570    3.8080 C.ar    8  TYR8       -0.0009
      9  CE1       38.6140   73.5960    6.1290 C.ar    8  TYR8        0.0417
     10  CE2       36.5210   73.2460    4.9340 C.ar    8  TYR8        0.0417
     11  CZ        37.2210   73.6170    6.0810 C.ar    8  TYR8        0.1957
     12  OH        36.5180   73.9920    7.1890 O.3     8  TYR8       -0.2866
     13  N         42.6210   70.5950   -0.4270 N.3    33  MET33      -0.1245
     14  CA        41.8010   69.3930   -0.4750 C.3    33  MET33       0.1570
     15  C         40.3710   69.8370   -0.6220 C.2    33  MET33       0.2261
     16  O         39.8670   70.4460    0.2850 O.2    33  MET33      -0.2867
     17  CB        41.9570   68.6120    0.8090 C.3    33  MET33       0.0387
     18  CG        43.3990   68.2620    1.1590 C.3    33  MET33       0.0595
     19  SD        43.7110   68.0280    2.9530 S.3    33  MET33      -0.1393
     20  CE        43.1720   69.6230    3.5930 C.3    33  MET33       0.0692
     21  N         38.8630   65.3560   -3.7070 N.3    60  LEU60      -0.1245
     22  CA        38.1260   64.3970   -2.9120 C.3    60  LEU60       0.1561
     23  C         36.7410   64.0860   -3.4750 C.2    60  LEU60       0.2260
     24  O         36.1140   64.9490   -4.1400 O.2    60  LEU60      -0.2867
     25  CB        37.9130   64.9300   -1.4930 C.3    60  LEU60       0.0270
     26  CG        39.0210   65.5470   -0.6430 C.3    60  LEU60       0.0019
     27  CD1       38.4220   66.0350    0.6670 C.3    60  LEU60       0.0001
     28  CD2       40.1730   64.5740   -0.4040 C.3    60  LEU60       0.0001
     29  N         32.5760   63.7410    1.6850 N.3    64  LEU64      -0.1231
     30  CA        33.4870   63.1310    2.6540 C.3    64  LEU64       0.1693
     31  C         33.5610   63.9630    3.9630 C.2    64  LEU64       0.2592
     32  O         33.8410   63.4400    5.0680 O.2    64  LEU64      -0.2718
     33  CB        34.8790   62.9570    2.0400 C.3    64  LEU64       0.0284
     34  CG        35.7460   61.8730    2.6810 C.3    64  LEU64       0.0019
     35  CD1       35.2230   60.4680    2.3160 C.3    64  LEU64       0.0001
     36  CD2       37.2170   62.0570    2.2920 C.3    64  LEU64       0.0001
     37  N         33.3140   65.2630    3.8110 N.am   65  ASN65      -0.1960
     38  CA        33.3380   66.2190    4.9070 C.3    65  ASN65       0.1819
     39  C         31.9080   66.3080    5.4600 C.2    65  ASN65       0.2621
     40  O         31.0050   66.7290    4.7320 O.2    65  ASN65      -0.2715
     41  CB        33.8350   67.5810    4.3510 C.3    65  ASN65       0.1195
     42  CG        33.8320   68.7000    5.3890 C.2    65  ASN65       0.2630
     43  OD1       33.9840   68.4510    6.5860 O.2    65  ASN65      -0.2716
     44  ND2       33.6640   69.9430    4.9280 N.am   65  ASN65      -0.0877
     45  N         31.6820   65.9140    6.7170 N.am   66  LYS66      -0.1963
     46  CA        30.3590   66.1580    7.3370 C.3    66  LYS66       0.1728
     47  C         30.2020   67.4970    8.1090 C.2    66  LYS66       0.2616
     48  O         29.1230   67.8050    8.6090 O.2    66  LYS66      -0.2715
     49  CB        29.8400   64.9250    8.1010 C.3    66  LYS66       0.0311
     50  CG        30.2710   64.7560    9.5440 C.3    66  LYS66       0.0038
     51  CD        29.8580   63.3370   10.0560 C.3    66  LYS66       0.0206
     52  CE        28.4880   63.2960   10.8270 C.3    66  LYS66       0.1093
     53  NZ        28.6000   63.6630   12.2870 N.3    66  LYS66      -0.1314
     54  N         31.2620   68.3080    8.1530 N.am   67  SER67      -0.1950
     55  CA        31.1410   69.6680    8.6690 C.3    67  SER67       0.1924
     56  C         31.1450   70.7700    7.5930 C.2    67  SER67       0.2314
     57  O         31.1580   70.5110    6.3960 O.2    67  SER67      -0.2863
     58  CB        32.1490   69.9400    9.8000 C.3    67  SER67       0.2116
     59  OG        33.4000   70.4250    9.3570 O.3    67  SER67      -0.2180
     60  N         40.3870   60.0130   12.7530 N.3   102  ALA102     -0.1231
     61  CA        39.4880   61.1680   12.8200 C.3   102  ALA102      0.1694
     62  C         38.1560   60.8870   12.1310 C.2   102  ALA102      0.2592
     63  O         37.1280   61.4500   12.5160 O.2   102  ALA102     -0.2718
     64  CB        40.1470   62.4350   12.2580 C.3   102  ALA102      0.0304
     65  N         38.1780   60.0230   11.1190 N.am  103  PHE103     -0.1976
     66  CA        36.9620   59.5710   10.4600 C.3   103  PHE103      0.1639
     67  C         36.2400   58.5940   11.3970 C.2   103  PHE103      0.2290
     68  O         35.0220   58.6730   11.5780 O.2   103  PHE103     -0.2864
     69  CB        37.2930   58.9380    9.0960 C.3   103  PHE103      0.0560
     70  CG        36.0850   58.4510    8.3220 C.ar  103  PHE103     -0.0200
     71  CD1       35.5470   57.1760    8.5540 C.ar  103  PHE103     -0.0042
     72  CD2       35.5070   59.2430    7.3360 C.ar  103  PHE103     -0.0042
     73  CE1       34.4340   56.6980    7.8430 C.ar  103  PHE103     -0.0003
     74  CE2       34.3670   58.7790    6.5970 C.ar  103  PHE103     -0.0003
     75  CZ        33.8390   57.5020    6.8560 C.ar  103  PHE103     -0.0000
     76  N         33.9840   60.1800   13.8630 N.3   106  THR106     -0.1218
     77  CA        32.7380   60.7080   13.3290 C.3   106  THR106      0.1862
     78  C         31.7030   59.6020   13.1140 C.2   106  THR106      0.2287
     79  O         30.6180   59.8470   12.5850 O.2   106  THR106     -0.2866
     80  CB        32.9340   61.5060   12.0220 C.3   106  THR106      0.1770
     81  OG1       33.0030   60.6150   10.9000 O.3   106  THR106     -0.2211
     82  CG2       34.1840   62.3880   12.0880 C.3   106  THR106      0.0375
@<TRIPOS>BOND
     1    24    23    2
     2    21    22    1
     3    23    22    1
     4    22    25    1
     5    25    26    1
     6    26    28    1
     7    26    27    1
     8    15    14    1
     9    15    16    2
    10    14    13    1
    11    14    17    1
    12     4     3    2
    13    17    18    1
    14     3     2    1
    15    18    19    1
    16     2     1    1
    17     2     5    1
    18    29    30    1
    19    33    30    1
    20    33    34    1
    21    36    34    1
    22    35    34    1
    23     5     6    1
    24    30    31    1
    25    19    20    1
    26     6     8   ar
    27     6     7   ar
    28     8    10   ar
    29    37    31   am
    30    37    38    1
    31    31    32    2
    32    41    38    1
    33    41    42    1
    34    40    39    2
    35    38    39    1
    36    44    42   am
    37    10    11   ar
    38     7     9   ar
    39    42    43    2
    40    39    45   am
    41    11     9   ar
    42    11    12    1
    43    57    56    2
    44    74    75   ar
    45    74    72   ar
    46    45    46    1
    47    75    73   ar
    48    72    70   ar
    49    46    49    1
    50    46    47    1
    51    56    55    1
    52    73    71   ar
    53    49    50    1
    54    47    54   am
    55    47    48    2
    56    54    55    1
    57    70    71   ar
    58    70    69    1
    59    55    58    1
    60    69    66    1
    61    59    58    1
    62    50    51    1
    63    51    52    1
    64    66    65    1
    65    66    67    1
    66    52    53    1
    67    81    80    1
    68    65    62   am
    69    67    68    2
    70    80    82    1
    71    80    77    1
    72    62    63    2
    73    62    61    1
    74    64    61    1
    75    79    78    2
    76    60    61    1
    77    78    77    1
    78    77    76    1
