@<TRIPOS>MOLECULE
tmp/2yk6A00.pdb
 127 125 0 0 0
SMALL
GASTEIGER

@<TRIPOS>ATOM
      1  N         50.1500   43.6580    7.8920 N.3   118  GLY118     -0.1210
      2  CA        51.0470   42.7660    7.1960 C.3   118  GLY118      0.1956
      3  C         51.9960   42.1570    8.2100 C.2   118  GLY118      0.2612
      4  O         51.6840   42.0910    9.3900 O.2   118  GLY118     -0.2717
      5  N         53.1650   41.7280    7.7550 N.am  119  THR119     -0.1952
      6  CA        54.1640   41.1220    8.6320 C.3   119  THR119      0.1897
      7  C         54.5420   42.0040    9.8290 C.2   119  THR119      0.2313
      8  O         54.9500   41.4790   10.8650 O.2   119  THR119     -0.2863
      9  CB        55.4330   40.8200    7.8730 C.3   119  THR119      0.1794
     10  OG1       55.8600   42.0020    7.2100 O.3   119  THR119     -0.2208
     11  CG2       55.1840   39.7870    6.8390 C.3   119  THR119      0.0378
     12  N         61.8240   35.6330   -5.7630 N.3   206  LEU206     -0.1231
     13  CA        60.9540   36.7710   -5.5120 C.3   206  LEU206      0.1693
     14  C         61.7870   38.0260   -5.6340 C.2   206  LEU206      0.2592
     15  O         62.8730   38.1430   -5.0400 O.2   206  LEU206     -0.2718
     16  CB        60.3210   36.6870   -4.1380 C.3   206  LEU206      0.0284
     17  CG        59.5300   35.4020   -3.9060 C.3   206  LEU206      0.0019
     18  CD1       58.7800   35.4650   -2.5700 C.3   206  LEU206      0.0001
     19  CD2       58.5640   35.1070   -5.0730 C.3   206  LEU206      0.0001
     20  N         61.3070   38.9550   -6.4510 N.am  207  GLY207     -0.1957
     21  CA        61.9980   40.2290   -6.6380 C.3   207  GLY207      0.1869
     22  C         61.9380   41.0960   -5.3930 C.2   207  GLY207      0.2309
     23  O         60.9850   41.0200   -4.6150 O.2   207  GLY207     -0.2863
     24  N         61.8340   45.0260   -3.8650 N.3   209  PRO209     -0.2116
     25  CA        61.5180   46.3850   -4.3020 C.3   209  PRO209      0.1372
     26  C         62.7310   47.3150   -4.2570 C.2   209  PRO209      0.2244
     27  O         62.7270   48.3050   -4.9710 O.2   209  PRO209     -0.2868
     28  CB        60.4440   46.8520   -3.3180 C.3   209  PRO209      0.0268
     29  CG        60.0980   45.6790   -2.4620 C.3   209  PRO209      0.0207
     30  CD        61.2290   44.7080   -2.5610 C.3   209  PRO209      0.0892
     31  N         59.8000   36.4580   -9.9570 N.3   230  ALA230     -0.1231
     32  CA        58.4660   37.0420   -9.6970 C.3   230  ALA230      0.1679
     33  C         58.6900   38.4260   -9.1410 C.2   230  ALA230      0.2434
     34  O         59.1950   38.5650   -8.0290 O.2   230  ALA230     -0.2733
     35  CB        57.6250   36.2000   -8.7110 C.3   230  ALA230      0.0304
     36  N         58.3410   39.4610   -9.9130 N.am  231  PRO231     -0.2718
     37  CA        58.6620   40.7980   -9.4250 C.3   231  PRO231      0.1535
     38  C         57.7480   41.2820   -8.2750 C.2   231  PRO231      0.2599
     39  O         56.5660   40.9040   -8.2210 O.2   231  PRO231     -0.2715
     40  CB        58.5510   41.6630  -10.6820 C.3   231  PRO231      0.0310
     41  CG        57.7650   40.8830  -11.6370 C.3   231  PRO231      0.0237
     42  CD        57.5990   39.4890  -11.1820 C.3   231  PRO231      0.0939
     43  N         58.3000   42.0650   -7.3470 N.am  232  HIS232     -0.1960
     44  CA        57.5050   42.6060   -6.2470 C.3   232  HIS232      0.1772
     45  C         56.4520   43.6070   -6.7710 C.2   232  HIS232      0.2462
     46  O         56.7080   44.2980   -7.7630 O.2   232  HIS232     -0.2730
     47  CB        58.3910   43.2560   -5.1920 C.3   232  HIS232      0.0785
     48  CG        57.6860   43.4980   -3.8940 C.ar  232  HIS232      0.0821
     49  ND1       57.8490   42.6800   -2.7910 N.ar  232  HIS232     -0.2267
     50  CD2       56.7990   44.4560   -3.5240 C.ar  232  HIS232      0.1154
     51  CE1       57.0970   43.1210   -1.7980 C.ar  232  HIS232      0.1986
     52  NE2       56.4560   44.2030   -2.2150 N.ar  232  HIS232     -0.2212
     53  N         55.2480   43.6690   -6.1360 N.am  233  PRO233     -0.2716
     54  CA        54.2980   44.6790   -6.6590 C.3   233  PRO233      0.1536
     55  C         54.7920   46.1060   -6.4440 C.2   233  PRO233      0.2598
     56  O         54.4540   46.9890   -7.2320 O.2   233  PRO233     -0.2715
     57  CB        52.9940   44.4100   -5.8800 C.3   233  PRO233      0.0310
     58  CG        53.1340   43.0080   -5.3850 C.3   233  PRO233      0.0237
     59  CD        54.6120   42.7750   -5.1430 C.3   233  PRO233      0.0939
     60  N         55.5980   46.3240   -5.3990 N.am  234  ARG234     -0.1978
     61  CA        56.2010   47.6490   -5.1730 C.3   234  ARG234      0.1597
     62  C         57.4490   47.8480   -6.0340 C.2   234  ARG234      0.2287
     63  O         58.0300   48.9230   -6.0120 O.2   234  ARG234     -0.2864
     64  CB        56.5120   47.8900   -3.6870 C.3   234  ARG234      0.0334
     65  CG        55.2400   47.9750   -2.8260 C.3   234  ARG234      0.0492
     66  CD        55.4750   48.4480   -1.3960 C.3   234  ARG234      0.2205
     67  NE        56.0880   47.4180   -0.5570 N.pl3 234  ARG234     -0.0865
     68  CZ        57.3810   47.4040   -0.2330 C.cat 234  ARG234      0.5346
     69  NH1       58.1700   48.3810   -0.6630 N.pl3 234  ARG234      0.1354
     70  NH2       57.8820   46.4300    0.5290 N.pl3 234  ARG234      0.1354
     71  N         49.4300   38.2700   -7.4470 N.3   250  VAL250     -0.1231
     72  CA        50.5120   38.2510   -6.4960 C.3   250  VAL250      0.1692
     73  C         51.0470   36.8190   -6.4680 C.2   250  VAL250      0.2592
     74  O         50.3670   35.8800   -6.9850 O.2   250  VAL250     -0.2718
     75  CB        50.1250   38.7840   -5.0970 C.3   250  VAL250      0.0266
     76  CG1       49.9770   40.3030   -5.1570 C.3   250  VAL250      0.0020
     77  CG2       48.8760   38.0810   -4.5450 C.3   250  VAL250      0.0020
     78  N         52.2480   36.6540   -5.9040 N.am  251  ILE251     -0.1966
     79  CA        52.9020   35.3810   -6.0050 C.3   251  ILE251      0.1727
     80  C         52.0740   34.2220   -5.4910 C.2   251  ILE251      0.2616
     81  O         51.9260   33.2430   -6.1970 O.2   251  ILE251     -0.2715
     82  CB        54.3320   35.3480   -5.4490 C.3   251  ILE251      0.0290
     83  CG1       54.9400   33.9910   -5.7890 C.3   251  ILE251      0.0022
     84  CG2       54.3990   35.6100   -3.9230 C.3   251  ILE251      0.0023
     85  CD1       55.0040   33.7180   -7.2950 C.3   251  ILE251      0.0001
     86  N         51.5030   34.3390   -4.2990 N.am  252  GLU252     -0.1977
     87  CA        50.7350   33.2330   -3.7340 C.3   252  GLU252      0.1602
     88  C         49.6400   32.7770   -4.7020 C.2   252  GLU252      0.2287
     89  O         49.4870   31.5660   -4.9580 O.2   252  GLU252     -0.2864
     90  CB        50.1070   33.5680   -2.3700 C.3   252  GLU252      0.0415
     91  CG        51.0410   34.0060   -1.3060 C.3   252  GLU252      0.1163
     92  CD        51.2190   35.5150   -1.2890 C.2   252  GLU252      0.3649
     93  OE1       51.0310   36.1670   -2.3490 O.co2 252  GLU252     -0.2457
     94  OE2       51.5840   36.0620   -0.2200 O.co2 252  GLU252     -0.2457
     95  N         63.8130   37.2480    2.3630 N.3   273  PHE273     -0.1227
     96  CA        63.0060   37.5290    3.5340 C.3   273  PHE273      0.1736
     97  C         61.7380   38.3290    3.2090 C.2   273  PHE273      0.2596
     98  O         61.3560   39.2350    3.9600 O.2   273  PHE273     -0.2718
     99  CB        63.8620   38.2160    4.6290 C.3   273  PHE273      0.0547
    100  CG        64.9630   37.3430    5.1750 C.ar  273  PHE273     -0.0202
    101  CD1       64.7140   36.4110    6.1710 C.ar  273  PHE273     -0.0042
    102  CD2       66.2540   37.4330    4.6830 C.ar  273  PHE273     -0.0042
    103  CE1       65.7490   35.5910    6.6930 C.ar  273  PHE273     -0.0003
    104  CE2       67.3050   36.6050    5.1920 C.ar  273  PHE273     -0.0003
    105  CZ        67.0360   35.6940    6.2100 C.ar  273  PHE273     -0.0000
    106  N         61.0700   38.0070    2.1030 N.am  274  SER274     -0.1938
    107  CA        59.7450   38.5780    1.8670 C.3   274  SER274      0.2055
    108  C         58.6440   37.8960    2.6570 C.2   274  SER274      0.2644
    109  O         58.6060   36.6590    2.7410 O.2   274  SER274     -0.2714
    110  CB        59.3680   38.5260    0.3900 C.3   274  SER274      0.2130
    111  OG        58.0010   38.8980    0.2160 O.3   274  SER274     -0.2179
    112  N         57.7140   38.7060    3.1720 N.am  275  GLY275     -0.1939
    113  CA        56.5180   38.2010    3.8450 C.3   275  GLY275      0.2014
    114  C         55.8450   36.9950    3.1900 C.2   275  GLY275      0.2638
    115  O         55.1830   36.1830    3.8610 O.2   275  GLY275     -0.2714
    116  N         56.0340   36.8730    1.8730 N.am  276  ALA276     -0.1977
    117  CA        55.4070   35.8260    1.0820 C.3   276  ALA276      0.1597
    118  C         55.8260   34.4450    1.5610 C.2   276  ALA276      0.2287
    119  O         55.0760   33.4800    1.4640 O.2   276  ALA276     -0.2864
    120  CB        55.7590   36.0070   -0.3670 C.3   276  ALA276      0.0319
    121  N         53.3660   33.4530    4.1500 N.3   279  THR279     -0.1218
    122  CA        52.0170   33.0540    3.7570 C.3   279  THR279      0.1862
    123  C         52.0220   31.7580    2.9650 C.2   279  THR279      0.2287
    124  O         50.9890   31.1090    2.8010 O.2   279  THR279     -0.2866
    125  CB        51.3960   34.1100    2.9390 C.3   279  THR279      0.1770
    126  OG1       52.3790   34.5800    2.0220 O.3   279  THR279     -0.2211
    127  CG2       50.9850   35.2470    3.8410 C.3   279  THR279      0.0375
@<TRIPOS>BOND
     1    41    42    1
     2    41    40    1
     3    42    36    1
     4    40    37    1
     5    31    32    1
     6    36    37    1
     7    36    33   am
     8    32    33    1
     9    32    35    1
    10    37    38    1
    11    33    34    2
    12    38    39    2
    13    38    43   am
    14    46    45    2
    15    71    72    1
    16    43    44    1
    17    85    83    1
    18    56    55    2
    19    74    73    2
    20    45    44    1
    21    45    53   am
    22    54    55    1
    23    54    53    1
    24    54    57    1
    25    21    20    1
    26    21    22    1
    27    72    73    1
    28    72    75    1
    29    73    78   am
    30    20    14   am
    31    55    60   am
    32    44    47    1
    33    81    80    2
    34    53    59    1
    35    62    63    2
    36    62    61    1
    37    79    78    1
    38    79    80    1
    39    79    82    1
    40    57    58    1
    41    83    82    1
    42    12    13    1
    43    14    13    1
    44    14    15    2
    45    13    16    1
    46    80    86   am
    47    82    84    1
    48    60    61    1
    49    22    23    2
    50    58    59    1
    51    47    48    1
    52    61    64    1
    53    76    75    1
    54    75    77    1
    55    19    17    1
    56    27    26    2
    57    89    88    2
    58    88    87    1
    59    25    26    1
    60    25    24    1
    61    25    28    1
    62    86    87    1
    63    16    17    1
    64    17    18    1
    65    48    50   ar
    66    48    49   ar
    67    24    30    1
    68    87    90    1
    69    64    65    1
    70    50    52   ar
    71    28    29    1
    72    65    66    1
    73    49    51   ar
    74    30    29    1
    75    90    91    1
    76    93    92   ar
    77    52    51   ar
    78    66    67    1
    79    91    92    1
    80    92    94   ar
    81    69    68    1
    82    67    68    2
    83   120   117    1
    84    68    70    1
    85   111   110    1
    86   110   107    1
    87   117   118    1
    88   117   116    1
    89   119   118    2
    90   107   106    1
    91   107   108    1
    92   116   114   am
    93   126   125    1
    94   106    97   am
    95    95    96    1
    96   108   109    2
    97   108   112   am
    98   124   123    2
    99   125   122    1
   100   125   127    1
   101   123   122    1
   102   112   113    1
   103   114   113    1
   104   114   115    2
   105    97    96    1
   106    97    98    2
   107    96    99    1
   108   122   121    1
   109    99   100    1
   110   102   100   ar
   111   102   104   ar
   112   100   101   ar
   113   104   105   ar
   114   101   103   ar
   115   105   103   ar
   116    11     9    1
   117     2     1    1
   118     2     3    1
   119    10     9    1
   120     5     3   am
   121     5     6    1
   122     9     6    1
   123     3     4    2
   124     6     7    1
   125     7     8    2
