@<TRIPOS>MOLECULE
tmp/2yk7A00.pdb
 135 133 0 0 0
SMALL
GASTEIGER

@<TRIPOS>ATOM
      1  N          2.5380    2.3430   17.4640 N.3   117  ASP117     -0.1225
      2  CA         1.6320    1.4030   16.8500 C.3   117  ASP117      0.1805
      3  C          0.6280    0.8960   17.8690 C.2   117  ASP117      0.2598
      4  O         -0.5600    0.7410   17.5610 O.2   117  ASP117     -0.2718
      5  CB         2.4240    0.2490   16.3220 C.3   117  ASP117      0.1424
      6  CG         3.2390    0.6340   15.1250 C.2   117  ASP117      0.3668
      7  OD1        2.7100    0.5550   14.0010 O.co2 117  ASP117     -0.2456
      8  OD2        4.3760    1.0630   15.3080 O.co2 117  ASP117     -0.2456
      9  N          1.1410    0.6230   19.0740 N.am  118  GLY118     -0.1942
     10  CA         0.3590    0.1680   20.2070 C.3   118  GLY118      0.2014
     11  C          1.3100   -0.4040   21.2630 C.2   118  GLY118      0.2639
     12  O          2.4400    0.0150   21.3350 O.2   118  GLY118     -0.2714
     13  N          0.8590   -1.4100   22.0180 N.am  119  THR119     -0.1950
     14  CA         1.6840   -2.0470   23.0310 C.3   119  THR119      0.1897
     15  C          2.8570   -2.8060   22.4310 C.2   119  THR119      0.2313
     16  O          3.7570   -3.1780   23.1630 O.2   119  THR119     -0.2863
     17  CB         0.8920   -3.0080   23.9250 C.3   119  THR119      0.1794
     18  OG1        0.3900   -4.0970   23.1310 O.3   119  THR119     -0.2208
     19  CG2       -0.2810   -2.2720   24.6200 C.3   119  THR119      0.0378
     20  N        -12.9590   -6.3200   31.4230 N.3   206  LEU206     -0.1231
     21  CA       -12.7540   -6.0520   29.9840 C.3   206  LEU206      0.1693
     22  C        -13.0410   -7.3210   29.2310 C.2   206  LEU206      0.2592
     23  O        -12.3530   -8.3360   29.4370 O.2   206  LEU206     -0.2718
     24  CB       -11.3390   -5.5930   29.6950 C.3   206  LEU206      0.0284
     25  CG       -10.9930   -4.2340   30.3170 C.3   206  LEU206      0.0019
     26  CD1       -9.6670   -3.7680   29.8200 C.3   206  LEU206      0.0001
     27  CD2      -12.0340   -3.1270   30.1160 C.3   206  LEU206      0.0001
     28  N        -14.0850   -7.3040   28.3900 N.am  207  GLY207     -0.1957
     29  CA       -14.4690   -8.5300   27.6580 C.3   207  GLY207      0.1869
     30  C        -13.3790   -8.9590   26.6740 C.2   207  GLY207      0.2309
     31  O        -12.5690   -8.1480   26.2560 O.2   207  GLY207     -0.2863
     32  N        -12.6220  -10.7570   22.8090 N.3   209  PRO209     -0.2116
     33  CA       -13.2430  -11.1390   21.5310 C.3   209  PRO209      0.1372
     34  C        -13.1200  -12.6480   21.2370 C.2   209  PRO209      0.2244
     35  O        -13.7710  -13.1370   20.3130 O.2   209  PRO209     -0.2868
     36  CB       -12.4530  -10.3320   20.5060 C.3   209  PRO209      0.0268
     37  CG       -11.0630  -10.2940   21.1250 C.3   209  PRO209      0.0207
     38  CD       -11.2920  -10.1450   22.6110 C.3   209  PRO209      0.0892
     39  N        -17.3160   -4.8100   29.8410 N.3   230  ALA230     -0.1231
     40  CA       -17.2000   -3.8770   28.7600 C.3   230  ALA230      0.1679
     41  C        -16.7340   -4.7500   27.6000 C.2   230  ALA230      0.2434
     42  O        -15.5650   -5.2000   27.5790 O.2   230  ALA230     -0.2733
     43  CB       -16.1590   -2.8100   29.0440 C.3   230  ALA230      0.0304
     44  N        -17.6360   -5.0260   26.6500 N.am  231  PRO231     -0.2718
     45  CA       -17.2120   -5.9730   25.5920 C.3   231  PRO231      0.1535
     46  C        -16.1720   -5.3500   24.7090 C.2   231  PRO231      0.2599
     47  O        -16.0860   -4.1140   24.5720 O.2   231  PRO231     -0.2715
     48  CB       -18.5170   -6.2780   24.7940 C.3   231  PRO231      0.0310
     49  CG       -19.5120   -5.2220   25.1890 C.3   231  PRO231      0.0237
     50  CD       -19.0590   -4.6440   26.5510 C.3   231  PRO231      0.0939
     51  N        -15.3240   -6.2130   24.1940 N.am  232  HIS232     -0.1960
     52  CA       -14.2830   -5.8510   23.2230 C.3   232  HIS232      0.1772
     53  C        -14.9400   -5.4480   21.8890 C.2   232  HIS232      0.2462
     54  O        -15.9200   -6.0390   21.4980 O.2   232  HIS232     -0.2730
     55  CB       -13.3960   -7.0860   22.9830 C.3   232  HIS232      0.0785
     56  CG       -12.1520   -6.7720   22.2250 C.ar  232  HIS232      0.0821
     57  ND1      -12.1370   -6.6500   20.8530 N.ar  232  HIS232     -0.2267
     58  CD2      -10.8920   -6.4950   22.6490 C.ar  232  HIS232      0.1154
     59  CE1      -10.9240   -6.2910   20.4630 C.ar  232  HIS232      0.1986
     60  NE2      -10.1450   -6.2000   21.5330 N.ar  232  HIS232     -0.2212
     61  N        -14.4020   -4.4270   21.1960 N.am  233  PRO233     -0.2716
     62  CA       -14.9850   -4.0050   19.9130 C.3   233  PRO233      0.1536
     63  C        -15.2720   -5.1530   18.9080 C.2   233  PRO233      0.2598
     64  O        -16.2040   -5.0350   18.1020 O.2   233  PRO233     -0.2715
     65  CB       -13.9510   -3.0120   19.3830 C.3   233  PRO233      0.0310
     66  CG       -13.4300   -2.3700   20.6410 C.3   233  PRO233      0.0237
     67  CD       -13.2980   -3.5400   21.6040 C.3   233  PRO233      0.0939
     68  N        -14.5440   -6.2720   18.9890 N.am  234  ARG234     -0.1978
     69  CA       -14.8180   -7.3870   18.0760 C.3   234  ARG234      0.1597
     70  C        -15.5320   -8.5240   18.7280 C.2   234  ARG234      0.2287
     71  O        -15.6260   -9.5980   18.1610 O.2   234  ARG234     -0.2864
     72  CB       -13.5250   -7.9290   17.4380 C.3   234  ARG234      0.0334
     73  CG       -12.6440   -6.8860   16.8290 C.3   234  ARG234      0.0492
     74  CD       -11.3970   -7.5610   16.1860 C.3   234  ARG234      0.2205
     75  NE       -10.3950   -8.1350   17.1110 N.pl3 234  ARG234     -0.0865
     76  CZ       -10.2420   -9.4480   17.3650 C.cat 234  ARG234      0.5346
     77  NH1      -11.0420  -10.3490   16.8270 N.pl3 234  ARG234      0.1354
     78  NH2       -9.2820   -9.8730   18.1900 N.pl3 234  ARG234      0.1354
     79  N        -14.7130    3.1070   22.9760 N.3   250  VAL250     -0.1231
     80  CA       -13.7940    2.0320   23.4690 C.3   250  VAL250      0.1692
     81  C        -13.5430    2.2850   24.9720 C.2   250  VAL250      0.2592
     82  O        -13.8140    3.3880   25.4270 O.2   250  VAL250     -0.2718
     83  CB       -12.4410    2.0170   22.6750 C.3   250  VAL250      0.0266
     84  CG1      -12.6670    1.4370   21.2880 C.3   250  VAL250      0.0020
     85  CG2      -11.8460    3.4160   22.5910 C.3   250  VAL250      0.0020
     86  N        -13.0330    1.3130   25.7360 N.am  251  ILE251     -0.1966
     87  CA       -12.8710    1.5170   27.2040 C.3   251  ILE251      0.1727
     88  C        -12.1680    2.8100   27.6660 C.2   251  ILE251      0.2616
     89  O        -12.5900    3.4420   28.6490 O.2   251  ILE251     -0.2715
     90  CB       -12.2840    0.2700   27.9350 C.3   251  ILE251      0.0290
     91  CG1      -12.4870    0.4200   29.4510 C.3   251  ILE251      0.0022
     92  CG2      -10.7960   -0.0240   27.5360 C.3   251  ILE251      0.0023
     93  CD1      -13.9960    0.2030   29.8770 C.3   251  ILE251      0.0001
     94  N        -11.1320    3.2440   26.9540 N.am  252  GLU252     -0.1977
     95  CA       -10.3680    4.3840   27.4470 C.3   252  GLU252      0.1602
     96  C        -11.2250    5.6420   27.3730 C.2   252  GLU252      0.2287
     97  O        -11.1720    6.4950   28.2570 O.2   252  GLU252     -0.2864
     98  CB        -9.0840    4.5980   26.6530 C.3   252  GLU252      0.0415
     99  CG        -8.0510    3.4600   26.8230 C.3   252  GLU252      0.1163
    100  CD        -8.2070    2.3910   25.7780 C.2   252  GLU252      0.3649
    101  OE1       -9.3060    2.3000   25.1700 O.co2 252  GLU252     -0.2457
    102  OE2       -7.2400    1.6440   25.5430 O.co2 252  GLU252     -0.2457
    103  N         -5.1980   -9.4620   30.6120 N.3   273  PHE273     -0.1227
    104  CA        -4.0230   -8.8300   29.9970 C.3   273  PHE273      0.1736
    105  C         -4.2920   -7.9910   28.7120 C.2   273  PHE273      0.2596
    106  O         -3.4360   -7.9170   27.8210 O.2   273  PHE273     -0.2718
    107  CB        -2.9320   -9.9020   29.7530 C.3   273  PHE273      0.0547
    108  CG        -2.3550  -10.5000   31.0540 C.ar  273  PHE273     -0.0202
    109  CD1       -1.3130   -9.8460   31.7430 C.ar  273  PHE273     -0.0042
    110  CD2       -2.8800  -11.6750   31.5960 C.ar  273  PHE273     -0.0042
    111  CE1       -0.7730  -10.3650   32.9290 C.ar  273  PHE273     -0.0003
    112  CE2       -2.3720  -12.1890   32.8050 C.ar  273  PHE273     -0.0003
    113  CZ        -1.3090  -11.5350   33.4570 C.ar  273  PHE273     -0.0000
    114  N         -5.4620   -7.3330   28.6160 N.am  274  SER274     -0.1938
    115  CA        -5.7110   -6.4290   27.4820 C.3   274  SER274      0.2055
    116  C         -4.6650   -5.3170   27.4970 C.2   274  SER274      0.2644
    117  O         -4.1590   -4.9540   28.5610 O.2   274  SER274     -0.2714
    118  CB        -7.1050   -5.8210   27.5530 C.3   274  SER274      0.2130
    119  OG        -7.2240   -4.7000   26.6790 O.3   274  SER274     -0.2179
    120  N         -4.3330   -4.7600   26.3230 N.am  275  GLY275     -0.1939
    121  CA        -3.3900   -3.6580   26.2980 C.3   275  GLY275      0.2014
    122  C         -3.9790   -2.4140   26.9270 C.2   275  GLY275      0.2638
    123  O         -3.2710   -1.4850   27.2710 O.2   275  GLY275     -0.2714
    124  N         -5.3000   -2.3820   27.0450 N.am  276  ALA276     -0.1977
    125  CA        -5.9880   -1.2960   27.6830 C.3   276  ALA276      0.1597
    126  C         -5.5060   -1.1380   29.1420 C.2   276  ALA276      0.2287
    127  O         -5.5030   -0.0370   29.6540 O.2   276  ALA276     -0.2864
    128  CB        -7.4970   -1.5160   27.6330 C.3   276  ALA276      0.0319
    129  N         -2.5310    1.0620   28.6760 N.3   279  THR279     -0.1218
    130  CA        -2.9570    2.3210   28.1020 C.3   279  THR279      0.1862
    131  C         -3.5960    3.2030   29.2010 C.2   279  THR279      0.2287
    132  O         -3.5280    4.4270   29.1420 O.2   279  THR279     -0.2866
    133  CB        -3.9840    2.0140   26.9450 C.3   279  THR279      0.1770
    134  OG1       -3.3080    1.3700   25.8210 O.3   279  THR279     -0.2211
    135  CG2       -4.5320    3.2320   26.4540 C.3   279  THR279      0.0375
@<TRIPOS>BOND
     1     7     6   ar
     2     6     8   ar
     3     6     5    1
     4    74    73    1
     5    74    75    1
     6     5     2    1
     7    77    76    1
     8    73    72    1
     9     2     1    1
    10     2     3    1
    11    75    76    2
    12    76    78    1
    13    72    69    1
    14     4     3    2
    15     3     9   am
    16    69    70    1
    17    69    68    1
    18    64    63    2
    19    71    70    2
    20    63    68   am
    21    63    62    1
    22     9    10    1
    23    65    62    1
    24    65    66    1
    25    62    61    1
    26    10    11    1
    27    35    34    2
    28    59    57   ar
    29    59    60   ar
    30    36    37    1
    31    36    33    1
    32    66    67    1
    33    57    56   ar
    34    37    38    1
    35    61    67    1
    36    61    53   am
    37    34    33    1
    38    11    12    2
    39    11    13   am
    40    84    83    1
    41    54    53    2
    42    33    32    1
    43    60    58   ar
    44    53    52    1
    45    13    14    1
    46    56    58   ar
    47    56    55    1
    48    15    14    1
    49    15    16    2
    50    85    83    1
    51    38    32    1
    52    83    80    1
    53    79    80    1
    54    55    52    1
    55    14    17    1
    56    18    17    1
    57    52    51    1
    58    80    81    1
    59    17    19    1
    60    51    46   am
    61    47    46    2
    62    46    45    1
    63    48    49    1
    64    48    45    1
    65    81    82    2
    66    81    86   am
    67   101   100   ar
    68    49    50    1
    69   102   100   ar
    70    45    44    1
    71    86    87    1
    72   100    99    1
    73   134   133    1
    74    31    30    2
    75   121   120    1
    76   121   122    1
    77   120   116   am
    78   135   133    1
    79    50    44    1
    80    44    41   am
    81    98    99    1
    82    98    95    1
    83    30    29    1
    84   119   118    1
    85   122   124   am
    86   122   123    2
    87   133   130    1
    88    94    95    1
    89    94    88   am
    90   124   125    1
    91    87    88    1
    92    87    90    1
    93    96    95    1
    94    96    97    2
    95   115   116    1
    96   115   118    1
    97   115   114    1
    98   116   117    2
    99    92    90    1
   100    42    41    2
   101    41    40    1
   102   128   125    1
   103    29    28    1
   104    88    89    2
   105   125   126    1
   106   106   105    2
   107    90    91    1
   108   130   129    1
   109   130   131    1
   110    28    22   am
   111   114   105   am
   112   105   104    1
   113    40    43    1
   114    40    39    1
   115   126   127    2
   116   132   131    2
   117    22    23    2
   118    22    21    1
   119    91    93    1
   120    24    21    1
   121    24    25    1
   122   107   104    1
   123   107   108    1
   124    26    25    1
   125    21    20    1
   126   104   103    1
   127    27    25    1
   128   108   110   ar
   129   108   109   ar
   130   110   112   ar
   131   109   111   ar
   132   112   113   ar
   133   111   113   ar
