@<TRIPOS>MOLECULE
tmp/2ykbA00.pdb
 196 186 0 0 0
SMALL
GASTEIGER

@<TRIPOS>ATOM
      1  N         16.8750   26.1710  -25.8660 N.3     6  PHE6       -0.1227
      2  CA        16.6880   27.4760  -25.2700 C.3     6  PHE6        0.1736
      3  C         18.0600   28.1140  -25.1600 C.2     6  PHE6        0.2595
      4  O         19.0620   27.4070  -24.9550 O.2     6  PHE6       -0.2718
      5  CB        16.1600   27.3540  -23.8460 C.3     6  PHE6        0.0547
      6  CG        14.6980   27.0260  -23.7470 C.ar    6  PHE6       -0.0202
      7  CD1       13.7360   27.9850  -24.0340 C.ar    6  PHE6       -0.0042
      8  CD2       14.2810   25.7840  -23.2890 C.ar    6  PHE6       -0.0042
      9  CE1       12.3920   27.7040  -23.8770 C.ar    6  PHE6       -0.0003
     10  CE2       12.9310   25.5020  -23.1440 C.ar    6  PHE6       -0.0003
     11  CZ        11.9950   26.4620  -23.4400 C.ar    6  PHE6       -0.0000
     12  N         18.1080   29.4460  -25.2410 N.am    7  GLN7       -0.1979
     13  CA        19.3350   30.1880  -24.9860 C.3     7  GLN7        0.1601
     14  C         19.6190   30.0270  -23.4860 C.2     7  GLN7        0.2287
     15  O         18.7590   29.5740  -22.7370 O.2     7  GLN7       -0.2864
     16  CB        19.1760   31.6660  -25.3740 C.3     7  GLN7        0.0394
     17  CG        19.0680   31.8960  -26.8770 C.3     7  GLN7        0.0908
     18  CD        19.0890   33.3660  -27.2140 C.2     7  GLN7        0.2608
     19  OE1       20.1100   34.0470  -27.0780 O.2     7  GLN7       -0.2717
     20  NE2       17.9680   33.8870  -27.6850 N.am    7  GLN7       -0.0878
     21  N         17.2750   32.0450  -20.5380 N.3    10  ILE10      -0.1245
     22  CA        15.9470   31.4220  -20.3310 C.3    10  ILE10       0.1561
     23  C         16.0660   30.0780  -19.6530 C.2    10  ILE10       0.2260
     24  O         15.2530   29.7630  -18.7710 O.2    10  ILE10      -0.2867
     25  CB        15.1360   31.2420  -21.6380 C.3    10  ILE10       0.0252
     26  CG1       15.1920   32.4860  -22.4710 C.3    10  ILE10       0.0019
     27  CG2       13.6520   30.8550  -21.3250 C.3    10  ILE10       0.0019
     28  CD1       14.9520   32.2040  -23.8290 C.3    10  ILE10       0.0001
     29  N         -1.8690   37.3570  -19.1900 N.3    35  ASN35      -0.1225
     30  CA        -1.3010   37.2090  -20.5420 C.3    35  ASN35       0.1785
     31  C         -2.4160   37.0390  -21.5330 C.2    35  ASN35       0.2597
     32  O         -2.3390   37.5590  -22.6490 O.2    35  ASN35      -0.2718
     33  CB        -0.3830   35.9830  -20.6290 C.3    35  ASN35       0.1169
     34  CG         0.9010   36.1350  -19.8440 C.2    35  ASN35       0.2627
     35  OD1        1.3580   37.2390  -19.5460 O.2    35  ASN35      -0.2716
     36  ND2        1.4900   35.0240  -19.4590 N.am   35  ASN35      -0.0877
     37  N         -3.4440   36.3000  -21.1200 N.am   36  SER36      -0.1952
     38  CA        -4.6340   36.0160  -21.9200 C.3    36  SER36       0.1924
     39  C         -5.3790   37.3200  -22.1240 C.2    36  SER36       0.2314
     40  O         -5.7380   37.6290  -23.2440 O.2    36  SER36      -0.2863
     41  CB        -5.5020   34.9760  -21.2290 C.3    36  SER36       0.2116
     42  OG        -5.0500   33.6640  -21.5180 O.3    36  SER36      -0.2180
     43  N         -3.5320   39.4720  -24.7340 N.3    39  ALA39      -0.1245
     44  CA        -3.6960   38.9370  -26.0940 C.3    39  ALA39       0.1562
     45  C         -5.0950   39.2770  -26.5950 C.2    39  ALA39       0.2260
     46  O         -5.2840   39.4370  -27.7890 O.2    39  ALA39      -0.2867
     47  CB        -3.5080   37.4340  -26.0760 C.3    39  ALA39       0.0290
     48  N         -7.9070   31.1440  -24.3100 N.3    77  ASP77      -0.1239
     49  CA        -8.3410   32.4880  -24.6670 C.3    77  ASP77       0.1674
     50  C         -8.5800   32.5760  -26.1500 C.2    77  ASP77       0.2266
     51  O         -8.1130   31.7260  -26.9000 O.2    77  ASP77      -0.2867
     52  CB        -7.3780   33.5790  -24.1470 C.3    77  ASP77       0.1410
     53  CG        -6.0000   33.6160  -24.7710 C.2    77  ASP77       0.3668
     54  OD1       -5.8900   34.0140  -25.9560 O.co2  77  ASP77      -0.2456
     55  OD2       -5.0230   33.2970  -24.0670 O.co2  77  ASP77      -0.2456
     56  N         -5.2490   37.2020  -29.6400 N.3    80  ILE80      -0.1231
     57  CA        -4.4830   37.2720  -30.8930 C.3    80  ILE80       0.1692
     58  C         -3.7320   35.9850  -31.2970 C.2    80  ILE80       0.2593
     59  O         -3.5400   35.7400  -32.4760 O.2    80  ILE80      -0.2718
     60  CB        -3.5730   38.5310  -30.9000 C.3    80  ILE80       0.0266
     61  CG1       -3.1170   38.8730  -32.3530 C.3    80  ILE80       0.0019
     62  CG2       -2.3790   38.3710  -29.9140 C.3    80  ILE80       0.0020
     63  CD1       -2.8880   40.3350  -32.6410 C.3    80  ILE80       0.0001
     64  N         -3.3120   35.1900  -30.3210 N.am   81  GLY81      -0.1942
     65  CA        -2.5480   33.9950  -30.6360 C.3    81  GLY81       0.2014
     66  C         -1.1070   34.3070  -30.9940 C.2    81  GLY81       0.2638
     67  O         -0.6440   35.4380  -30.8160 O.2    81  GLY81      -0.2714
     68  N         -0.3930   33.2830  -31.5100 N.am   82  MET82      -0.1976
     69  CA         1.0240   33.3800  -31.8840 C.3    82  MET82       0.1605
     70  C          1.2650   32.6750  -33.1850 C.2    82  MET82       0.2287
     71  O          0.7420   31.5810  -33.4130 O.2    82  MET82      -0.2864
     72  CB         1.9420   32.7620  -30.7990 C.3    82  MET82       0.0413
     73  CG         1.9270   33.5360  -29.4760 C.3    82  MET82       0.0598
     74  SD         2.4260   32.6060  -28.0240 S.3    82  MET82      -0.1393
     75  CE         1.0950   31.5840  -27.7890 C.3    82  MET82       0.0692
     76  N          6.5910   32.1170  -31.9420 N.3    87  LEU87      -0.1231
     77  CA         6.9550   30.9710  -31.1050 C.3    87  LEU87       0.1693
     78  C          8.4330   30.6380  -31.0590 C.2    87  LEU87       0.2591
     79  O          8.9370   30.3040  -29.9870 O.2    87  LEU87      -0.2718
     80  CB         6.1660   29.7100  -31.5070 C.3    87  LEU87       0.0284
     81  CG         4.6770   29.7190  -31.2040 C.3    87  LEU87       0.0019
     82  CD1        3.9850   28.5870  -31.9510 C.3    87  LEU87       0.0001
     83  CD2        4.3960   29.6780  -29.6550 C.3    87  LEU87       0.0001
     84  N          9.0990   30.6500  -32.2240 N.am   88  ILE88      -0.1980
     85  CA        10.5050   30.2910  -32.3440 C.3    88  ILE88       0.1595
     86  C         11.4220   31.4580  -32.1390 C.2    88  ILE88       0.2287
     87  O         12.4040   31.3380  -31.4060 O.2    88  ILE88      -0.2864
     88  CB        10.7380   29.6160  -33.7000 C.3    88  ILE88       0.0276
     89  CG1        9.9380   28.3020  -33.7400 C.3    88  ILE88       0.0022
     90  CG2       12.2440   29.3850  -33.9760 C.3    88  ILE88       0.0022
     91  CD1        9.7420   27.7410  -35.1350 C.3    88  ILE88       0.0001
     92  N          9.4290   35.6040  -29.6010 N.3    91  LEU91      -0.1231
     93  CA         9.2950   35.3640  -28.1680 C.3    91  LEU91       0.1693
     94  C         10.5790   34.9170  -27.5040 C.2    91  LEU91       0.2592
     95  O         10.7110   35.0550  -26.2850 O.2    91  LEU91      -0.2718
     96  CB         8.0920   34.4670  -27.8410 C.3    91  LEU91       0.0284
     97  CG         6.7100   35.1070  -28.1370 C.3    91  LEU91       0.0019
     98  CD1        5.6400   34.0550  -28.2190 C.3    91  LEU91       0.0001
     99  CD2        6.3640   36.2130  -27.1240 C.3    91  LEU91       0.0001
    100  N         11.5270   34.4040  -28.2850 N.am   92  GLY92      -0.1957
    101  CA        12.8410   34.0350  -27.7560 C.3    92  GLY92       0.1869
    102  C         13.6270   35.2870  -27.3830 C.2    92  GLY92       0.2309
    103  O         14.3930   35.3070  -26.4130 O.2    92  GLY92      -0.2863
    104  N         12.1380   38.1820  -26.5090 N.3    94  ILE94      -0.1231
    105  CA        11.4450   38.7370  -25.3320 C.3    94  ILE94       0.1692
    106  C         11.8500   37.9750  -24.0940 C.2    94  ILE94       0.2591
    107  O         12.0870   38.5840  -23.0320 O.2    94  ILE94      -0.2718
    108  CB         9.8900   38.7780  -25.5220 C.3    94  ILE94       0.0266
    109  CG1        9.4660   39.7250  -26.6750 C.3    94  ILE94       0.0019
    110  CG2        9.1410   39.1410  -24.2080 C.3    94  ILE94       0.0020
    111  CD1        9.9010   41.2110  -26.5260 C.3    94  ILE94       0.0001
    112  N         11.9300   36.6420  -24.2240 N.am   95  ALA95      -0.1980
    113  CA        12.3240   35.7910  -23.1040 C.3    95  ALA95       0.1597
    114  C         13.7570   36.0510  -22.6070 C.2    95  ALA95       0.2287
    115  O         14.0260   35.9510  -21.3950 O.2    95  ALA95      -0.2864
    116  CB        12.1440   34.3330  -23.4570 C.3    95  ALA95       0.0319
    117  N          7.7900   40.8030  -18.4010 N.3   119  GLY119     -0.1210
    118  CA         7.2890   40.2070  -19.6440 C.3   119  GLY119      0.1956
    119  C          7.4370   38.7070  -19.7790 C.2   119  GLY119      0.2611
    120  O          7.1380   38.1490  -20.8380 O.2   119  GLY119     -0.2717
    121  N          7.8560   38.0240  -18.7140 N.am  120  VAL120     -0.1979
    122  CA         8.0720   36.5760  -18.7630 C.3   120  VAL120      0.1595
    123  C          7.2110   35.8000  -17.7650 C.2   120  VAL120      0.2287
    124  O          7.5570   34.6790  -17.4210 O.2   120  VAL120     -0.2864
    125  CB         9.5760   36.1650  -18.7110 C.3   120  VAL120      0.0276
    126  CG1       10.2980   36.5420  -19.9940 C.3   120  VAL120      0.0022
    127  CG2       10.2930   36.7380  -17.4890 C.3   120  VAL120      0.0022
    128  N          4.6390   34.1720  -18.2330 N.3   122  PHE122     -0.1227
    129  CA         4.2960   32.8430  -18.7660 C.3   122  PHE122      0.1736
    130  C          5.1090   31.7430  -18.0790 C.2   122  PHE122      0.2595
    131  O          4.5460   30.7280  -17.6730 O.2   122  PHE122     -0.2718
    132  CB         4.4440   32.8000  -20.2980 C.3   122  PHE122      0.0547
    133  CG         4.5490   31.4110  -20.8950 C.ar  122  PHE122     -0.0202
    134  CD1        3.4020   30.6650  -21.1790 C.ar  122  PHE122     -0.0042
    135  CD2        5.7910   30.8770  -21.2380 C.ar  122  PHE122     -0.0042
    136  CE1        3.5010   29.3940  -21.7480 C.ar  122  PHE122     -0.0003
    137  CE2        5.8850   29.6110  -21.8300 C.ar  122  PHE122     -0.0003
    138  CZ         4.7400   28.8900  -22.0920 C.ar  122  PHE122     -0.0000
    139  N          6.4150   31.9850  -17.8610 N.am  123  TYR123     -0.1976
    140  CA         7.2920   31.0150  -17.2050 C.3   123  TYR123      0.1639
    141  C          6.9620   30.6330  -15.7790 C.2   123  TYR123      0.2290
    142  O          7.4460   29.6010  -15.3030 O.2   123  TYR123     -0.2864
    143  CB         8.7840   31.3420  -17.4600 C.3   123  TYR123      0.0560
    144  CG         9.1660   30.9830  -18.8810 C.ar  123  TYR123     -0.0198
    145  CD1        9.5080   29.6710  -19.2240 C.ar  123  TYR123     -0.0009
    146  CD2        9.0860   31.9280  -19.9080 C.ar  123  TYR123     -0.0009
    147  CE1        9.7870   29.3170  -20.5380 C.ar  123  TYR123      0.0417
    148  CE2        9.3380   31.5740  -21.2360 C.ar  123  TYR123      0.0417
    149  CZ         9.7290   30.2770  -21.5360 C.ar  123  TYR123      0.1957
    150  OH         9.9910   29.9040  -22.8290 O.3   123  TYR123     -0.2866
    151  N          1.5750   24.6230  -25.3950 N.3   134  VAL134     -0.1245
    152  CA         0.8740   25.8250  -25.8230 C.3   134  VAL134      0.1561
    153  C          0.3080   25.5280  -27.2080 C.2   134  VAL134      0.2260
    154  O          1.0610   25.2050  -28.1060 O.2   134  VAL134     -0.2867
    155  CB         1.8230   27.0460  -25.8300 C.3   134  VAL134      0.0252
    156  CG1        1.1230   28.2670  -26.4080 C.3   134  VAL134      0.0019
    157  CG2        2.3310   27.3360  -24.4090 C.3   134  VAL134      0.0019
    158  N          3.5260   24.2730  -29.2600 N.3   146  TRP146     -0.1241
    159  CA         4.8590   24.5240  -28.6960 C.3   146  TRP146      0.1605
    160  C          4.8070   23.7290  -27.4070 C.2   146  TRP146      0.2264
    161  O          3.7720   23.7390  -26.7430 O.2   146  TRP146     -0.2867
    162  CB         5.0560   26.0390  -28.3790 C.3   146  TRP146      0.0550
    163  CG         6.3750   26.4150  -27.7180 C.ar  146  TRP146      0.0003
    164  CD1        7.4590   26.9770  -28.3220 C.ar  146  TRP146      0.0946
    165  CD2        6.6690   26.3920  -26.3040 C.ar  146  TRP146      0.0152
    166  NE1        8.4120   27.3110  -27.3680 N.ar  146  TRP146     -0.2442
    167  CE2        7.9730   26.9050  -26.1350 C.ar  146  TRP146      0.0810
    168  CE3        5.9410   26.0040  -25.1570 C.ar  146  TRP146      0.0012
    169  CZ2        8.5600   27.0600  -24.8660 C.ar  146  TRP146      0.0191
    170  CZ3        6.5400   26.1030  -23.9130 C.ar  146  TRP146      0.0001
    171  CH2        7.8310   26.6400  -23.7720 C.ar  146  TRP146      0.0015
    172  N         12.7560   22.8540  -26.3570 N.3   154  PHE154     -0.1241
    173  CA        11.3160   22.9800  -26.5860 C.3   154  PHE154      0.1605
    174  C         11.0500   22.4180  -27.9880 C.2   154  PHE154      0.2264
    175  O         11.9800   22.3690  -28.8000 O.2   154  PHE154     -0.2867
    176  CB        10.8390   24.4520  -26.4440 C.3   154  PHE154      0.0534
    177  CG        11.3480   25.4600  -27.4480 C.ar  154  PHE154     -0.0203
    178  CD1       10.7270   25.6140  -28.6840 C.ar  154  PHE154     -0.0042
    179  CD2       12.4100   26.2990  -27.1380 C.ar  154  PHE154     -0.0042
    180  CE1       11.1460   26.6040  -29.5810 C.ar  154  PHE154     -0.0003
    181  CE2       12.8380   27.2730  -28.0420 C.ar  154  PHE154     -0.0003
    182  CZ        12.2200   27.4020  -29.2700 C.ar  154  PHE154     -0.0000
    183  N         -5.1390   30.9980  -27.9310 N.3   168  THR168     -0.1218
    184  CA        -4.1100   30.1860  -27.3320 C.3   168  THR168      0.1862
    185  C         -4.6810   29.3420  -26.2410 C.2   168  THR168      0.2287
    186  O         -5.5410   29.7930  -25.5080 O.2   168  THR168     -0.2866
    187  CB        -3.0300   31.1260  -26.7540 C.3   168  THR168      0.1770
    188  OG1       -2.5150   31.9160  -27.8050 O.3   168  THR168     -0.2211
    189  CG2       -1.8940   30.3920  -26.0220 C.3   168  THR168      0.0375
    190  N         -3.0070   27.3040  -23.0320 N.3   170  VAL170     -0.1245
    191  CA        -1.8320   26.9680  -22.2190 C.3   170  VAL170      0.1561
    192  C         -2.1980   25.7220  -21.3640 C.2   170  VAL170      0.2260
    193  O         -3.0420   25.8010  -20.4820 O.2   170  VAL170     -0.2867
    194  CB        -1.3050   28.1650  -21.3960 C.3   170  VAL170      0.0252
    195  CG1       -0.1320   27.7630  -20.5070 C.3   170  VAL170      0.0019
    196  CG2       -0.8980   29.3240  -22.3230 C.3   170  VAL170      0.0019
@<TRIPOS>BOND
     1    91    89    1
     2    90    88    1
     3    89    88    1
     4    88    85    1
     5    71    70    2
     6    70    69    1
     7    63    61    1
     8    59    58    2
     9    61    60    1
    10    85    84    1
    11    85    86    1
    12    84    78   am
    13    86    87    2
    14    82    81    1
    15    76    77    1
    16    69    68    1
    17    69    72    1
    18    68    66   am
    19    80    81    1
    20    80    77    1
    21    58    57    1
    22    58    64   am
    23    81    83    1
    24    77    78    1
    25    78    79    2
    26    66    67    2
    27    66    65    1
    28    60    57    1
    29    60    62    1
    30    57    56    1
    31    72    73    1
    32    65    64    1
    33    92    93    1
    34   180   182   ar
    35   180   178   ar
    36    73    74    1
    37   182   181   ar
    38   158   159    1
    39   175   174    2
    40   159   162    1
    41   159   160    1
    42   178   177   ar
    43   162   163    1
    44   164   163   ar
    45   164   166   ar
    46   100   101    1
    47   100    94   am
    48    98    97    1
    49    93    96    1
    50    93    94    1
    51    97    96    1
    52    97    99    1
    53   154   153    2
    54   181   179   ar
    55    74    75    1
    56   174   173    1
    57   183   184    1
    58   188   187    1
    59    46    45    2
    60   101   102    1
    61   163   165   ar
    62    20    18   am
    63    94    95    2
    64   177   179   ar
    65   177   176    1
    66   160   161    2
    67   102   103    2
    68   166   167   ar
    69   184   187    1
    70   184   185    1
    71    18    19    2
    72    18    17    1
    73   153   152    1
    74    51    50    2
    75    17    16    1
    76   187   189    1
    77   109   111    1
    78   109   108    1
    79    45    44    1
    80   173   176    1
    81   173   172    1
    82   104   105    1
    83   156   155    1
    84   165   167   ar
    85   165   168   ar
    86   185   186    2
    87    50    49    1
    88   167   169   ar
    89    44    47    1
    90    44    43    1
    91    54    53   ar
    92     1     2    1
    93   155   152    1
    94   155   157    1
    95   152   151    1
    96   108   105    1
    97   108   110    1
    98    16    13    1
    99   105   106    1
   100     2     3    1
   101     2     5    1
   102    12     3   am
   103    12    13    1
   104     3     4    2
   105   168   170   ar
   106    13    14    1
   107   169   171   ar
   108    53    52    1
   109    53    55   ar
   110    49    48    1
   111    49    52    1
   112   112   106   am
   113   112   113    1
   114   106   107    2
   115     7     9   ar
   116     7     6   ar
   117   170   171   ar
   118     9    11   ar
   119     5     6    1
   120    28    26    1
   121     6     8   ar
   122    14    15    2
   123   116   113    1
   124    11    10   ar
   125     8    10   ar
   126    40    39    2
   127   113   114    1
   128   190   191    1
   129   150   149    1
   130    32    31    2
   131   114   115    2
   132    26    25    1
   133   196   194    1
   134   191   194    1
   135   191   192    1
   136    39    38    1
   137   138   137   ar
   138   138   136   ar
   139    38    41    1
   140    38    37    1
   141   137   135   ar
   142   136   134   ar
   143    25    27    1
   144    25    22    1
   145   149   148   ar
   146   149   147   ar
   147    31    37   am
   148    31    30    1
   149    42    41    1
   150   194   195    1
   151   192   193    2
   152   135   133   ar
   153   148   146   ar
   154   134   133   ar
   155   133   132    1
   156   120   119    2
   157    33    30    1
   158    33    34    1
   159    30    29    1
   160   147   145   ar
   161    21    22    1
   162    22    23    1
   163   132   129    1
   164   126   125    1
   165   146   144   ar
   166    34    35    2
   167    34    36   am
   168   119   118    1
   169   119   121   am
   170    23    24    2
   171   118   117    1
   172   145   144   ar
   173   144   143    1
   174   129   128    1
   175   129   130    1
   176   122   121    1
   177   122   125    1
   178   122   123    1
   179   125   127    1
   180   130   139   am
   181   130   131    2
   182   139   140    1
   183   123   124    2
   184   143   140    1
   185   140   141    1
   186   141   142    2
