@<TRIPOS>MOLECULE
tmp/2ykcA00.pdb
 196 186 0 0 0
SMALL
GASTEIGER

@<TRIPOS>ATOM
      1  N         16.8700   19.1260   25.8230 N.3     6  PHE6       -0.1227
      2  CA        16.6950   17.8550   25.1310 C.3     6  PHE6        0.1736
      3  C         18.0600   17.1830   25.0590 C.2     6  PHE6        0.2595
      4  O         19.0950   17.8590   24.8910 O.2     6  PHE6       -0.2718
      5  CB        16.1700   18.0540   23.6960 C.3     6  PHE6        0.0547
      6  CG        14.6840   18.3430   23.6170 C.ar    6  PHE6       -0.0202
      7  CD1       13.7430   17.3560   23.9270 C.ar    6  PHE6       -0.0042
      8  CD2       14.2280   19.5710   23.1650 C.ar    6  PHE6       -0.0042
      9  CE1       12.3700   17.6200   23.8130 C.ar    6  PHE6       -0.0003
     10  CE2       12.8600   19.8390   23.0680 C.ar    6  PHE6       -0.0003
     11  CZ        11.9420   18.8530   23.3680 C.ar    6  PHE6       -0.0000
     12  N         18.0570   15.8550   25.1280 N.am    7  GLN7       -0.1979
     13  CA        19.2650   15.0670   24.9140 C.3     7  GLN7        0.1601
     14  C         19.5820   15.2030   23.4210 C.2     7  GLN7        0.2287
     15  O         18.7150   15.5930   22.6270 O.2     7  GLN7       -0.2864
     16  CB        19.0620   13.6210   25.3630 C.3     7  GLN7        0.0394
     17  CG        19.0560   13.5110   26.8870 C.3     7  GLN7        0.0908
     18  CD        19.0350   12.0760   27.3480 C.2     7  GLN7        0.2608
     19  OE1       20.0140   11.3340   27.2000 O.2     7  GLN7       -0.2717
     20  NE2       17.9250   11.6570   27.9290 N.am    7  GLN7       -0.0878
     21  N         17.3040   13.2210   20.5030 N.3    10  ILE10      -0.1245
     22  CA        15.9900   13.8400   20.2790 C.3    10  ILE10       0.1561
     23  C         16.0770   15.2120   19.6540 C.2    10  ILE10       0.2260
     24  O         15.2950   15.5090   18.7460 O.2    10  ILE10      -0.2867
     25  CB        15.0130   13.7210   21.4860 C.3    10  ILE10       0.0252
     26  CG1       13.5790   14.2040   21.1350 C.3    10  ILE10       0.0019
     27  CG2       15.5570   14.3700   22.7510 C.3    10  ILE10       0.0019
     28  CD1       12.8880   13.3550   19.9600 C.3    10  ILE10       0.0001
     29  N         -1.5140    8.0150   19.3840 N.3    35  ASN35      -0.1225
     30  CA        -1.0330    8.2260   20.7470 C.3    35  ASN35       0.1785
     31  C         -2.1960    8.3460   21.7170 C.2    35  ASN35       0.2597
     32  O         -2.1570    7.7710   22.8180 O.2    35  ASN35      -0.2718
     33  CB        -0.1570    9.4840   20.7940 C.3    35  ASN35       0.1169
     34  CG         1.1870    9.2820   20.1220 C.2    35  ASN35       0.2627
     35  OD1        1.6340    8.1420   19.8890 O.2    35  ASN35      -0.2716
     36  ND2        1.8580   10.3820   19.7860 N.am   35  ASN35      -0.0877
     37  N         -3.2260    9.1070   21.3200 N.am   36  SER36      -0.1952
     38  CA        -4.4280    9.3120   22.1290 C.3    36  SER36       0.1924
     39  C         -5.1500    7.9820   22.3240 C.2    36  SER36       0.2314
     40  O         -5.4880    7.6410   23.4600 O.2    36  SER36      -0.2863
     41  CB        -5.3600   10.3170   21.4490 C.3    36  SER36       0.2116
     42  OG        -4.8260   11.6260   21.5720 O.3    36  SER36      -0.2180
     43  N         -3.3570    5.8920   24.8690 N.3    39  ALA39      -0.1245
     44  CA        -3.5610    6.3980   26.2360 C.3    39  ALA39       0.1562
     45  C         -4.9400    6.0080   26.7290 C.2    39  ALA39       0.2260
     46  O         -5.1220    5.7520   27.9250 O.2    39  ALA39      -0.2867
     47  CB        -3.4190    7.9190   26.2580 C.3    39  ALA39       0.0290
     48  N         -7.7040   14.1770   24.3580 N.3    77  ASP77      -0.1239
     49  CA        -8.1710   12.8300   24.6710 C.3    77  ASP77       0.1674
     50  C         -8.4210   12.7560   26.1510 C.2    77  ASP77       0.2266
     51  O         -7.8920   13.5750   26.9040 O.2    77  ASP77      -0.2867
     52  CB        -7.1790   11.7410   24.1990 C.3    77  ASP77       0.1410
     53  CG        -5.8690   11.7410   24.9530 C.2    77  ASP77       0.3668
     54  OD1       -5.8900   11.4580   26.1960 O.co2  77  ASP77      -0.2456
     55  OD2       -4.8300   12.0480   24.3260 O.co2  77  ASP77      -0.2456
     56  N         -5.0960    8.1570   29.7270 N.3    80  ILE80      -0.1231
     57  CA        -4.4240    8.0760   31.0240 C.3    80  ILE80       0.1692
     58  C         -3.7230    9.3590   31.5130 C.2    80  ILE80       0.2593
     59  O         -3.5440    9.5490   32.7330 O.2    80  ILE80      -0.2718
     60  CB        -3.4590    6.8540   31.0400 C.3    80  ILE80       0.0266
     61  CG1       -3.1030    6.4620   32.5130 C.3    80  ILE80       0.0019
     62  CG2       -2.2270    7.0790   30.1350 C.3    80  ILE80       0.0020
     63  CD1       -2.4700    5.1240   32.7060 C.3    80  ILE80       0.0001
     64  N         -3.3030   10.1910   30.5710 N.am   81  GLY81      -0.1942
     65  CA        -2.5580   11.3960   30.9200 C.3    81  GLY81       0.2014
     66  C         -1.1120   11.0720   31.2570 C.2    81  GLY81       0.2638
     67  O         -0.6840    9.9090   31.1780 O.2    81  GLY81      -0.2714
     68  N         -0.3450   12.1100   31.6150 N.am   82  MET82      -0.1976
     69  CA         1.0810   11.9750   31.9400 C.3    82  MET82       0.1605
     70  C          1.3520   12.6970   33.2250 C.2    82  MET82       0.2287
     71  O          0.8890   13.8280   33.4260 O.2    82  MET82      -0.2864
     72  CB         1.9660   12.5840   30.8300 C.3    82  MET82       0.0413
     73  CG         1.9150   11.7950   29.5110 C.3    82  MET82       0.0598
     74  SD         2.5600   12.7550   28.1220 S.3    82  MET82      -0.1393
     75  CE         1.0790   13.7440   27.7410 C.3    82  MET82       0.0692
     76  N          6.5180   13.3030   31.9330 N.3    87  LEU87      -0.1231
     77  CA         6.8970   14.4360   31.0760 C.3    87  LEU87       0.1693
     78  C          8.3920   14.6990   31.0200 C.2    87  LEU87       0.2591
     79  O          8.9110   15.0080   29.9550 O.2    87  LEU87      -0.2718
     80  CB         6.1680   15.7150   31.5200 C.3    87  LEU87       0.0284
     81  CG         4.6900   15.7660   31.2810 C.3    87  LEU87       0.0019
     82  CD1        4.0940   17.0000   31.9400 C.3    87  LEU87       0.0001
     83  CD2        4.3730   15.7820   29.7780 C.3    87  LEU87       0.0001
     84  N          9.0660   14.6230   32.1690 N.am   88  ILE88      -0.1980
     85  CA        10.4820   14.9630   32.2330 C.3    88  ILE88       0.1595
     86  C         11.4040   13.7830   32.0180 C.2    88  ILE88       0.2287
     87  O         12.3880   13.8890   31.2690 O.2    88  ILE88      -0.2864
     88  CB        10.7690   15.6880   33.5620 C.3    88  ILE88       0.0276
     89  CG1        9.9750   16.9970   33.6300 C.3    88  ILE88       0.0022
     90  CG2       12.2930   15.9600   33.7200 C.3    88  ILE88       0.0022
     91  CD1        9.8740   17.5110   35.0780 C.3    88  ILE88       0.0001
     92  N          9.3100    9.7750   29.5280 N.3    91  LEU91      -0.1231
     93  CA         9.2140    9.9600   28.0860 C.3    91  LEU91       0.1693
     94  C         10.5130   10.3840   27.4230 C.2    91  LEU91       0.2592
     95  O         10.6690   10.1990   26.2170 O.2    91  LEU91      -0.2718
     96  CB         8.0400   10.8260   27.6850 C.3    91  LEU91       0.0284
     97  CG         6.6840   10.2110   28.0530 C.3    91  LEU91       0.0019
     98  CD1        5.6050   11.2900   28.1270 C.3    91  LEU91       0.0001
     99  CD2        6.2940    9.1370   27.0420 C.3    91  LEU91       0.0001
    100  N         11.4390   10.9080   28.2110 N.am   92  GLY92      -0.1957
    101  CA        12.7780   11.2470   27.7210 C.3    92  GLY92       0.1869
    102  C         13.5190    9.9610   27.4030 C.2    92  GLY92       0.2309
    103  O         14.1740    9.8630   26.3650 O.2    92  GLY92      -0.2863
    104  N         12.0340    7.0360   26.5720 N.3    94  ILE94      -0.1231
    105  CA        11.3790    6.5290   25.3700 C.3    94  ILE94       0.1692
    106  C         11.8170    7.3050   24.1440 C.2    94  ILE94       0.2591
    107  O         12.0700    6.6810   23.1050 O.2    94  ILE94      -0.2718
    108  CB         9.8160    6.5370   25.5010 C.3    94  ILE94       0.0266
    109  CG1        9.3190    5.6660   26.6820 C.3    94  ILE94       0.0019
    110  CG2        9.1110    6.1990   24.1610 C.3    94  ILE94       0.0020
    111  CD1        9.7470    4.1410   26.6630 C.3    94  ILE94       0.0001
    112  N         11.8590    8.6580   24.2290 N.am   95  ALA95      -0.1980
    113  CA        12.2460    9.4770   23.0890 C.3    95  ALA95       0.1597
    114  C         13.6950    9.1320   22.6470 C.2    95  ALA95       0.2287
    115  O         13.9640    9.0770   21.4440 O.2    95  ALA95      -0.2864
    116  CB        12.1310   10.9610   23.4270 C.3    95  ALA95       0.0319
    117  N          7.7360    4.6240   18.3470 N.3   119  GLY119     -0.1210
    118  CA         7.2450    5.1760   19.6060 C.3   119  GLY119      0.1956
    119  C          7.4710    6.6700   19.7530 C.2   119  GLY119      0.2611
    120  O          7.2650    7.2160   20.8330 O.2   119  GLY119     -0.2717
    121  N          7.9000    7.3460   18.6770 N.am  120  VAL120     -0.1979
    122  CA         8.1870    8.7980   18.6960 C.3   120  VAL120      0.1595
    123  C          7.3370    9.6180   17.7280 C.2   120  VAL120      0.2287
    124  O          7.7210   10.7410   17.3580 O.2   120  VAL120     -0.2864
    125  CB         9.6950    9.1290   18.6050 C.3   120  VAL120      0.0276
    126  CG1       10.4060    8.6960   19.8840 C.3   120  VAL120      0.0022
    127  CG2       10.3270    8.4630   17.3760 C.3   120  VAL120      0.0022
    128  N          4.7690   11.2600   18.2120 N.3   122  PHE122     -0.1227
    129  CA         4.4130   12.5640   18.7580 C.3   122  PHE122      0.1736
    130  C          5.2210   13.6750   18.0670 C.2   122  PHE122      0.2595
    131  O          4.6870   14.7300   17.7800 O.2   122  PHE122     -0.2718
    132  CB         4.7300   12.5810   20.2710 C.3   122  PHE122      0.0547
    133  CG         4.7080   13.9540   20.9220 C.ar  122  PHE122     -0.0202
    134  CD1        3.5030   14.6460   21.1020 C.ar  122  PHE122     -0.0042
    135  CD2        5.8950   14.5600   21.3500 C.ar  122  PHE122     -0.0042
    136  CE1        3.4930   15.9240   21.6790 C.ar  122  PHE122     -0.0003
    137  CE2        5.8760   15.8200   21.9680 C.ar  122  PHE122     -0.0003
    138  CZ         4.6800   16.4940   22.1220 C.ar  122  PHE122     -0.0000
    139  N          6.4980   13.4190   17.7730 N.am  123  TYR123     -0.1976
    140  CA         7.4080   14.4060   17.1720 C.3   123  TYR123      0.1639
    141  C          7.0650   14.7620   15.7430 C.2   123  TYR123      0.2290
    142  O          7.5420   15.7770   15.2330 O.2   123  TYR123     -0.2864
    143  CB         8.8940   13.9910   17.4040 C.3   123  TYR123      0.0560
    144  CG         9.2690   14.3260   18.8360 C.ar  123  TYR123     -0.0198
    145  CD1        9.5640   15.6350   19.2060 C.ar  123  TYR123     -0.0009
    146  CD2        9.1540   13.3730   19.8500 C.ar  123  TYR123     -0.0009
    147  CE1        9.7690   15.9870   20.5350 C.ar  123  TYR123      0.0417
    148  CE2        9.3850   13.7100   21.1910 C.ar  123  TYR123      0.0417
    149  CZ         9.7250   15.0130   21.5170 C.ar  123  TYR123      0.1957
    150  OH         9.9150   15.4160   22.8130 O.3   123  TYR123     -0.2866
    151  N          1.5690   20.8370   25.4390 N.3   134  VAL134     -0.1245
    152  CA         0.8790   19.6440   25.9000 C.3   134  VAL134      0.1561
    153  C          0.3390   19.8990   27.3030 C.2   134  VAL134      0.2260
    154  O          1.1200   20.1350   28.2180 O.2   134  VAL134     -0.2867
    155  CB         1.8490   18.4210   25.8640 C.3   134  VAL134      0.0252
    156  CG1        1.1740   17.1690   26.4510 C.3   134  VAL134      0.0019
    157  CG2        2.3710   18.1600   24.4470 C.3   134  VAL134      0.0019
    158  N          3.5680   21.1180   29.2670 N.3   146  TRP146     -0.1241
    159  CA         4.9020   20.8960   28.7020 C.3   146  TRP146      0.1605
    160  C          4.8730   21.6850   27.4070 C.2   146  TRP146      0.2264
    161  O          3.8390   21.7040   26.7320 O.2   146  TRP146     -0.2867
    162  CB         5.0800   19.3920   28.3890 C.3   146  TRP146      0.0550
    163  CG         6.3500   19.0150   27.6710 C.ar  146  TRP146      0.0003
    164  CD1        7.4290   18.4000   28.2300 C.ar  146  TRP146      0.0946
    165  CD2        6.5900   19.0200   26.2420 C.ar  146  TRP146      0.0152
    166  NE1        8.3550   18.0880   27.2590 N.ar  146  TRP146     -0.2442
    167  CE2        7.8750   18.4720   26.0360 C.ar  146  TRP146      0.0810
    168  CE3        5.8670   19.4800   25.1200 C.ar  146  TRP146      0.0012
    169  CZ2        8.4310   18.3140   24.7530 C.ar  146  TRP146      0.0191
    170  CZ3        6.4410   19.3750   23.8560 C.ar  146  TRP146      0.0001
    171  CH2        7.7040   18.7900   23.6810 C.ar  146  TRP146      0.0015
    172  N         12.8090   22.4930   26.3220 N.3   154  PHE154     -0.1241
    173  CA        11.3800   22.3970   26.5650 C.3   154  PHE154      0.1605
    174  C         11.1140   22.9050   27.9750 C.2   154  PHE154      0.2264
    175  O         12.0370   22.9560   28.8050 O.2   154  PHE154     -0.2867
    176  CB        10.8600   20.9590   26.3670 C.3   154  PHE154      0.0534
    177  CG        11.3460   19.9100   27.3470 C.ar  154  PHE154     -0.0203
    178  CD1       10.7030   19.7160   28.5660 C.ar  154  PHE154     -0.0042
    179  CD2       12.4600   19.1280   27.0600 C.ar  154  PHE154     -0.0042
    180  CE1       11.1050   18.6940   29.4430 C.ar  154  PHE154     -0.0003
    181  CE2       12.8670   18.1130   27.9300 C.ar  154  PHE154     -0.0003
    182  CZ        12.1970   17.9000   29.1290 C.ar  154  PHE154     -0.0000
    183  N         -5.1340   14.2910   27.9720 N.3   168  THR168     -0.1218
    184  CA        -4.0840   15.1310   27.3890 C.3   168  THR168      0.1862
    185  C         -4.6160   15.9650   26.2500 C.2   168  THR168      0.2287
    186  O         -5.4870   15.5240   25.4950 O.2   168  THR168     -0.2866
    187  CB        -2.9530   14.2070   26.8490 C.3   168  THR168      0.1770
    188  OG1       -2.4630   13.3790   27.9170 O.3   168  THR168     -0.2211
    189  CG2       -1.7890   14.9900   26.1360 C.3   168  THR168      0.0375
    190  N         -2.9360   18.0420   23.0460 N.3   170  VAL170     -0.1245
    191  CA        -1.7380   18.3710   22.2730 C.3   170  VAL170      0.1561
    192  C         -2.1660   19.5650   21.4150 C.2   170  VAL170      0.2260
    193  O         -2.9790   19.4160   20.5000 O.2   170  VAL170     -0.2867
    194  CB        -1.2040   17.1860   21.4400 C.3   170  VAL170      0.0252
    195  CG1       -0.0520   17.6380   20.5260 C.3   170  VAL170      0.0019
    196  CG2       -0.7280   16.0330   22.3520 C.3   170  VAL170      0.0019
@<TRIPOS>BOND
     1   142   141    2
     2   141   140    1
     3   140   143    1
     4   140   139    1
     5   124   123    2
     6   127   125    1
     7   143   144    1
     8   123   122    1
     9   139   130   am
    10   131   130    2
    11   130   129    1
    12   128   129    1
    13   117   118    1
    14   125   122    1
    15   125   126    1
    16   121   122    1
    17   121   119   am
    18    24    23    2
    19   129   132    1
    20   144   145   ar
    21   144   146   ar
    22   145   147   ar
    23    29    30    1
    24   118   119    1
    25    23    22    1
    26   119   120    2
    27    36    34   am
    28   146   148   ar
    29    35    34    2
    30    28    26    1
    31    34    33    1
    32   132   133    1
    33    22    21    1
    34    22    25    1
    35   193   192    2
    36   195   194    1
    37   147   149   ar
    38    30    33    1
    39    30    31    1
    40   133   134   ar
    41   133   135   ar
    42   134   136   ar
    43    26    25    1
    44   148   149   ar
    45    37    31   am
    46    37    38    1
    47   135   137   ar
    48   192   191    1
    49   194   191    1
    50   194   196    1
    51   115   114    2
    52    41    42    1
    53    41    38    1
    54    25    27    1
    55   149   150    1
    56   136   138   ar
    57    31    32    2
    58   137   138   ar
    59    38    39    1
    60   191   190    1
    61    39    40    2
    62    15    14    2
    63   114   113    1
    64    10     8   ar
    65    10    11   ar
    66   113   116    1
    67   113   112    1
    68   107   106    2
    69     8     6   ar
    70    11     9   ar
    71    14    13    1
    72     6     5    1
    73     6     7   ar
    74   171   170   ar
    75   171   169   ar
    76     5     2    1
    77     9     7   ar
    78   170   168   ar
    79   106   112   am
    80   106   105    1
    81   110   108    1
    82    52    49    1
    83    52    53    1
    84    55    53   ar
    85    48    49    1
    86   157   155    1
    87    49    50    1
    88   169   167   ar
    89    43    44    1
    90     4     3    2
    91    13    12    1
    92    13    16    1
    93    53    54   ar
    94     3    12   am
    95     3     2    1
    96   168   165   ar
    97     2     1    1
    98    16    17    1
    99   105   108    1
   100   105   104    1
   101   151   152    1
   102   186   185    2
   103   108   109    1
   104   155   152    1
   105   155   156    1
   106   152   153    1
   107   167   165   ar
   108   167   166   ar
   109   189   187    1
   110    50    51    2
   111    95    94    2
   112    44    47    1
   113    44    45    1
   114   165   163   ar
   115   185   184    1
   116   172   173    1
   117   103   102    2
   118   176   173    1
   119   176   177    1
   120   173   174    1
   121   111   109    1
   122    45    46    2
   123   161   160    2
   124   187   184    1
   125   187   188    1
   126    17    18    1
   127    99    97    1
   128   179   177   ar
   129   179   181   ar
   130    19    18    2
   131   166   164   ar
   132   153   154    2
   133   177   178   ar
   134    18    20   am
   135   184   183    1
   136   102   101    1
   137   160   159    1
   138    94    93    1
   139    94   100   am
   140   163   164   ar
   141   163   162    1
   142    96    97    1
   143    96    93    1
   144   101   100    1
   145    75    74    1
   146   181   182   ar
   147   174   175    2
   148    97    98    1
   149    93    92    1
   150    74    73    1
   151   162   159    1
   152   178   180   ar
   153   159   158    1
   154   182   180   ar
   155    73    72    1
   156    56    57    1
   157    83    81    1
   158    79    78    2
   159    62    60    1
   160    64    65    1
   161    64    58   am
   162    72    69    1
   163    65    66    1
   164    78    77    1
   165    78    84   am
   166    57    60    1
   167    57    58    1
   168    60    61    1
   169    77    80    1
   170    77    76    1
   171    67    66    2
   172    66    68   am
   173    87    86    2
   174    81    80    1
   175    81    82    1
   176    58    59    2
   177    68    69    1
   178    69    70    1
   179    86    85    1
   180    84    85    1
   181    85    88    1
   182    61    63    1
   183    70    71    2
   184    88    89    1
   185    88    90    1
   186    89    91    1
