@<TRIPOS>MOLECULE
tmp/2ykeA00.pdb
 209 198 0 0 0
SMALL
GASTEIGER

@<TRIPOS>ATOM
      1  N         16.8340   20.8530   29.0860 N.3     5  ALA5       -0.1231
      2  CA        17.5350   20.6500   27.8200 C.3     5  ALA5        0.1694
      3  C         17.2060   19.3070   27.2140 C.2     5  ALA5        0.2592
      4  O         17.3230   18.2880   27.8920 O.2     5  ALA5       -0.2718
      5  CB        19.0520   20.7110   28.0320 C.3     5  ALA5        0.0304
      6  N         16.8620   19.2880   25.9220 N.am    6  PHE6       -0.1962
      7  CA        16.7410   18.0130   25.2670 C.3     6  PHE6        0.1771
      8  C         18.1120   17.3570   25.1430 C.2     6  PHE6        0.2619
      9  O         19.1360   18.0440   24.9110 O.2     6  PHE6       -0.2715
     10  CB        16.2050   18.2020   23.8420 C.3     6  PHE6        0.0574
     11  CG        14.7290   18.5080   23.7480 C.ar    6  PHE6       -0.0200
     12  CD1       13.7810   17.5360   24.0570 C.ar    6  PHE6       -0.0042
     13  CD2       14.2840   19.7220   23.2360 C.ar    6  PHE6       -0.0042
     14  CE1       12.4140   17.7970   23.9150 C.ar    6  PHE6       -0.0003
     15  CE2       12.9160   19.9900   23.1030 C.ar    6  PHE6       -0.0003
     16  CZ        11.9920   19.0070   23.4050 C.ar    6  PHE6       -0.0000
     17  N         18.1370   16.0420   25.2740 N.am    7  GLN7       -0.1977
     18  CA        19.3510   15.2790   24.9780 C.3     7  GLN7        0.1601
     19  C         19.6300   15.3240   23.4500 C.2     7  GLN7        0.2287
     20  O         18.7620   15.7090   22.6280 O.2     7  GLN7       -0.2864
     21  CB        19.2450   13.8330   25.4700 C.3     7  GLN7        0.0394
     22  CG        19.2780   13.7310   27.0050 C.3     7  GLN7        0.0908
     23  CD        19.1070   12.3050   27.4650 C.2     7  GLN7        0.2608
     24  OE1       19.8770   11.4080   27.1040 O.2     7  GLN7       -0.2717
     25  NE2       18.0640   12.0560   28.2390 N.am    7  GLN7       -0.0878
     26  N         17.2380   13.2530   20.5860 N.3    10  ILE10      -0.1245
     27  CA        15.9370   13.8420   20.3110 C.3    10  ILE10       0.1561
     28  C         16.0770   15.2320   19.7080 C.2    10  ILE10       0.2260
     29  O         15.3070   15.5890   18.8100 O.2    10  ILE10      -0.2867
     30  CB        14.9550   13.7550   21.5200 C.3    10  ILE10       0.0252
     31  CG1       13.5540   14.2630   21.1560 C.3    10  ILE10       0.0019
     32  CG2       15.4620   14.5100   22.7660 C.3    10  ILE10       0.0019
     33  CD1       12.8610   13.4790   20.0390 C.3    10  ILE10       0.0001
     34  N         -0.9200   11.4840   16.1860 N.3    32  LEU32      -0.1245
     35  CA        -1.4540   12.0230   17.4400 C.3    32  LEU32       0.1561
     36  C         -2.7420   11.2950   17.8440 C.2    32  LEU32       0.2260
     37  O         -2.9500   11.0070   19.0250 O.2    32  LEU32      -0.2867
     38  CB        -1.6490   13.5460   17.3060 C.3    32  LEU32       0.0270
     39  CG        -0.3670   14.3540   17.0310 C.3    32  LEU32       0.0019
     40  CD1       -0.6780   15.8290   16.9690 C.3    32  LEU32       0.0001
     41  CD2        0.6500   14.1610   18.1500 C.3    32  LEU32       0.0001
     42  N         -1.7040    8.0490   19.3270 N.3    35  ASN35      -0.1225
     43  CA        -1.2570    8.2340   20.7110 C.3    35  ASN35       0.1785
     44  C         -2.4430    8.3790   21.6600 C.2    35  ASN35       0.2597
     45  O         -2.4480    7.7580   22.7310 O.2    35  ASN35      -0.2718
     46  CB        -0.3520    9.4450   20.8110 C.3    35  ASN35       0.1169
     47  CG         0.9950    9.2730   20.1540 C.2    35  ASN35       0.2627
     48  OD1        1.4050    8.1670   19.7350 O.2    35  ASN35      -0.2716
     49  ND2        1.7060   10.3950   20.0470 N.am   35  ASN35      -0.0877
     50  N         -3.4670    9.1430   21.2450 N.am   36  SER36      -0.1952
     51  CA        -4.6580    9.3210   22.0690 C.3    36  SER36       0.1924
     52  C         -5.3840    8.0010   22.2630 C.2    36  SER36       0.2314
     53  O         -5.7560    7.6580   23.3950 O.2    36  SER36      -0.2863
     54  CB        -5.6080   10.3220   21.4320 C.3    36  SER36       0.2116
     55  OG        -5.0900   11.6400   21.5160 O.3    36  SER36      -0.2180
     56  N         -3.5690    5.8930   24.7510 N.3    39  ALA39      -0.1245
     57  CA        -3.7480    6.4060   26.1070 C.3    39  ALA39       0.1562
     58  C         -5.1520    6.0540   26.6340 C.2    39  ALA39       0.2260
     59  O         -5.3180    5.7690   27.8430 O.2    39  ALA39      -0.2867
     60  CB        -3.5520    7.9120   26.0940 C.3    39  ALA39       0.0290
     61  N         -7.8650   14.2590   24.3410 N.3    77  ASP77      -0.1239
     62  CA        -8.3530   12.9340   24.6900 C.3    77  ASP77       0.1674
     63  C         -8.5580   12.8400   26.1930 C.2    77  ASP77       0.2266
     64  O         -7.9770   13.6240   26.9540 O.2    77  ASP77      -0.2867
     65  CB        -7.4470   11.8010   24.1680 C.3    77  ASP77       0.1410
     66  CG        -6.0890   11.7510   24.8380 C.2    77  ASP77       0.3668
     67  OD1       -6.0400   11.4380   26.0510 O.co2  77  ASP77      -0.2456
     68  OD2       -5.0920   12.1650   24.2000 O.co2  77  ASP77      -0.2456
     69  N         -5.1820    8.1690   29.7070 N.3    80  ILE80      -0.1231
     70  CA        -4.5180    8.0510   30.9880 C.3    80  ILE80       0.1692
     71  C         -3.8100    9.3290   31.4700 C.2    80  ILE80       0.2593
     72  O         -3.6030    9.5060   32.6740 O.2    80  ILE80      -0.2718
     73  CB        -3.5610    6.8340   30.9590 C.3    80  ILE80       0.0266
     74  CG1       -3.0670    6.4960   32.3850 C.3    80  ILE80       0.0019
     75  CG2       -2.3870    7.0380   29.9800 C.3    80  ILE80       0.0020
     76  CD1       -2.6480    5.0630   32.6060 C.3    80  ILE80       0.0001
     77  N         -3.3900   10.1690   30.5250 N.am   81  GLY81      -0.1942
     78  CA        -2.6350   11.3580   30.9040 C.3    81  GLY81       0.2014
     79  C         -1.1820   11.0410   31.2270 C.2    81  GLY81       0.2638
     80  O         -0.7300    9.8840   31.1540 O.2    81  GLY81      -0.2714
     81  N         -0.4270   12.0810   31.6030 N.am   82  MET82      -0.1976
     82  CA         1.0010   11.9620   31.9200 C.3    82  MET82       0.1605
     83  C          1.2860   12.6550   33.2220 C.2    82  MET82       0.2287
     84  O          0.7650   13.7590   33.4580 O.2    82  MET82      -0.2864
     85  CB         1.8550   12.6110   30.8270 C.3    82  MET82       0.0413
     86  CG         1.8980   11.7770   29.5330 C.3    82  MET82       0.0598
     87  SD         2.4520   12.6960   28.0870 S.3    82  MET82      -0.1393
     88  CE         0.9460   13.4750   27.6250 C.3    82  MET82       0.0692
     89  N          6.5290   13.3000   31.9950 N.3    87  LEU87      -0.1231
     90  CA         6.8920   14.3980   31.1150 C.3    87  LEU87       0.1693
     91  C          8.3760   14.6790   31.0890 C.2    87  LEU87       0.2591
     92  O          8.9090   15.0030   30.0290 O.2    87  LEU87      -0.2718
     93  CB         6.1520   15.6750   31.5410 C.3    87  LEU87       0.0284
     94  CG         4.6580   15.7030   31.2860 C.3    87  LEU87       0.0019
     95  CD1        4.0330   16.9530   31.9420 C.3    87  LEU87       0.0001
     96  CD2        4.3330   15.6930   29.8020 C.3    87  LEU87       0.0001
     97  N          9.0360   14.6260   32.2570 N.am   88  ILE88      -0.1980
     98  CA        10.4420   14.9920   32.3200 C.3    88  ILE88       0.1595
     99  C         11.3810   13.8230   32.1440 C.2    88  ILE88       0.2287
    100  O         12.3910   13.9510   31.4240 O.2    88  ILE88      -0.2864
    101  CB        10.7100   15.7100   33.6660 C.3    88  ILE88       0.0276
    102  CG1        9.9150   17.0260   33.7440 C.3    88  ILE88       0.0022
    103  CG2       12.2260   15.9400   33.8870 C.3    88  ILE88       0.0022
    104  CD1        9.8650   17.6150   35.1540 C.3    88  ILE88       0.0001
    105  N          9.4060    9.8040   29.5690 N.3    91  LEU91      -0.1231
    106  CA         9.2930   10.0440   28.1350 C.3    91  LEU91       0.1693
    107  C         10.6070   10.5030   27.5190 C.2    91  LEU91       0.2592
    108  O         10.8040   10.3100   26.3230 O.2    91  LEU91      -0.2718
    109  CB         8.1160   10.9420   27.8060 C.3    91  LEU91       0.0284
    110  CG         6.7560   10.2970   28.0950 C.3    91  LEU91       0.0019
    111  CD1        5.6700   11.3470   28.1400 C.3    91  LEU91       0.0001
    112  CD2        6.3950    9.2460   27.0010 C.3    91  LEU91       0.0001
    113  N         11.5330   11.0150   28.3390 N.am   92  GLY92      -0.1957
    114  CA        12.8610   11.3490   27.8270 C.3    92  GLY92       0.1869
    115  C         13.6200   10.0780   27.4750 C.2    92  GLY92       0.2309
    116  O         14.3370   10.0300   26.4700 O.2    92  GLY92      -0.2863
    117  N         12.1810    7.2220   26.5500 N.3    94  ILE94      -0.1231
    118  CA        11.5430    6.7160   25.3320 C.3    94  ILE94       0.1692
    119  C         11.9780    7.5390   24.1300 C.2    94  ILE94       0.2591
    120  O         12.2370    6.9780   23.0520 O.2    94  ILE94      -0.2718
    121  CB         9.9950    6.7230   25.5040 C.3    94  ILE94       0.0266
    122  CG1        9.5340    5.7770   26.6560 C.3    94  ILE94       0.0019
    123  CG2        9.2680    6.4230   24.1880 C.3    94  ILE94       0.0020
    124  CD1       10.0480    4.2640   26.5730 C.3    94  ILE94       0.0001
    125  N         12.0560    8.8830   24.2920 N.am   95  ALA95      -0.1980
    126  CA        12.4590    9.7230   23.1740 C.3    95  ALA95       0.1597
    127  C         13.8480    9.3380   22.7000 C.2    95  ALA95       0.2287
    128  O         14.0770    9.3160   21.4880 O.2    95  ALA95      -0.2864
    129  CB        12.4460   11.2010   23.5770 C.3    95  ALA95       0.0319
    130  N          7.7580    4.6820   18.3710 N.3   119  GLY119     -0.1210
    131  CA         7.2680    5.2250   19.6390 C.3   119  GLY119      0.1956
    132  C          7.4280    6.7210   19.8100 C.2   119  GLY119      0.2611
    133  O          7.1240    7.2440   20.8900 O.2   119  GLY119     -0.2717
    134  N          7.9020    7.4110   18.7510 N.am  120  VAL120     -0.1979
    135  CA         8.1360    8.8550   18.8140 C.3   120  VAL120      0.1595
    136  C          7.2670    9.6390   17.8160 C.2   120  VAL120      0.2287
    137  O          7.6150   10.7620   17.4370 O.2   120  VAL120     -0.2864
    138  CB         9.6470    9.2030   18.6990 C.3   120  VAL120      0.0276
    139  CG1       10.3940    8.8480   19.9950 C.3   120  VAL120      0.0022
    140  CG2       10.3120    8.5370   17.4810 C.3   120  VAL120      0.0022
    141  N          4.6800   11.2830   18.2690 N.3   122  PHE122     -0.1227
    142  CA         4.3270   12.5910   18.7990 C.3   122  PHE122      0.1736
    143  C          5.1400   13.7040   18.0900 C.2   122  PHE122      0.2595
    144  O          4.5860   14.7650   17.7920 O.2   122  PHE122     -0.2718
    145  CB         4.6230   12.6100   20.3080 C.3   122  PHE122      0.0547
    146  CG         4.6040   13.9890   20.9230 C.ar  122  PHE122     -0.0202
    147  CD1        3.4000   14.6670   21.1200 C.ar  122  PHE122     -0.0042
    148  CD2        5.7920   14.6030   21.3340 C.ar  122  PHE122     -0.0042
    149  CE1        3.3910   15.9420   21.7060 C.ar  122  PHE122     -0.0003
    150  CE2        5.7760   15.8630   21.9400 C.ar  122  PHE122     -0.0003
    151  CZ         4.5810   16.5280   22.1100 C.ar  122  PHE122     -0.0000
    152  N          6.4420   13.4480   17.8380 N.am  123  TYR123     -0.1976
    153  CA         7.3110   14.4510   17.2420 C.3   123  TYR123      0.1639
    154  C          6.9880   14.7980   15.8110 C.2   123  TYR123      0.2290
    155  O          7.4750   15.8200   15.3320 O.2   123  TYR123     -0.2864
    156  CB         8.7890   14.0820   17.4710 C.3   123  TYR123      0.0560
    157  CG         9.1790   14.4280   18.8910 C.ar  123  TYR123     -0.0198
    158  CD1        9.5090   15.7340   19.2380 C.ar  123  TYR123     -0.0009
    159  CD2        9.1020   13.4770   19.9130 C.ar  123  TYR123     -0.0009
    160  CE1        9.7750   16.0880   20.5560 C.ar  123  TYR123      0.0417
    161  CE2        9.3600   13.8210   21.2430 C.ar  123  TYR123      0.0417
    162  CZ         9.7120   15.1320   21.5520 C.ar  123  TYR123      0.1957
    163  OH         9.9940   15.5100   22.8400 O.3   123  TYR123     -0.2866
    164  N          1.5590   20.7140   25.4880 N.3   134  VAL134     -0.1245
    165  CA         0.8430   19.5320   25.9510 C.3   134  VAL134      0.1561
    166  C          0.2960   19.8410   27.3290 C.2   134  VAL134      0.2260
    167  O          1.0630   20.0590   28.2640 O.2   134  VAL134     -0.2867
    168  CB         1.8010   18.3090   25.9830 C.3   134  VAL134      0.0252
    169  CG1        1.1410   17.0870   26.6290 C.3   134  VAL134      0.0019
    170  CG2        2.3430   17.9820   24.5830 C.3   134  VAL134      0.0019
    171  N          3.5120   20.9930   29.3340 N.3   146  TRP146     -0.1241
    172  CA         4.8340   20.7970   28.7490 C.3   146  TRP146      0.1605
    173  C          4.8000   21.6030   27.4360 C.2   146  TRP146      0.2264
    174  O          3.7720   21.6500   26.7540 O.2   146  TRP146     -0.2867
    175  CB         5.0750   19.3000   28.4420 C.3   146  TRP146      0.0550
    176  CG         6.3510   18.9420   27.7260 C.ar  146  TRP146      0.0003
    177  CD1        7.4460   18.3540   28.2850 C.ar  146  TRP146      0.0946
    178  CD2        6.5920   18.9830   26.3030 C.ar  146  TRP146      0.0152
    179  NE1        8.3970   18.1010   27.3110 N.ar  146  TRP146     -0.2442
    180  CE2        7.8960   18.4760   26.0860 C.ar  146  TRP146      0.0810
    181  CE3        5.8580   19.4590   25.1930 C.ar  146  TRP146      0.0012
    182  CZ2        8.4490   18.3560   24.7860 C.ar  146  TRP146      0.0191
    183  CZ3        6.4000   19.3370   23.9200 C.ar  146  TRP146      0.0001
    184  CH2        7.6950   18.8170   23.7310 C.ar  146  TRP146      0.0015
    185  N         12.7590   22.5660   26.4370 N.3   154  PHE154     -0.1241
    186  CA        11.3260   22.4660   26.6670 C.3   154  PHE154      0.1605
    187  C         11.0690   22.9840   28.0610 C.2   154  PHE154      0.2264
    188  O         11.9830   23.0460   28.8910 O.2   154  PHE154     -0.2867
    189  CB        10.7730   21.0280   26.4800 C.3   154  PHE154      0.0534
    190  CG        11.3060   19.9710   27.4280 C.ar  154  PHE154     -0.0203
    191  CD1       10.6970   19.7450   28.6590 C.ar  154  PHE154     -0.0042
    192  CD2       12.4610   19.2490   27.1190 C.ar  154  PHE154     -0.0042
    193  CE1       11.1630   18.7320   29.5170 C.ar  154  PHE154     -0.0003
    194  CE2       12.9320   18.2490   27.9830 C.ar  154  PHE154     -0.0003
    195  CZ        12.2880   18.0090   29.1920 C.ar  154  PHE154     -0.0000
    196  N         -5.2390   14.3510   28.0030 N.3   168  THR168     -0.1218
    197  CA        -4.1930   15.1430   27.3690 C.3   168  THR168      0.1862
    198  C         -4.7790   15.9970   26.2730 C.2   168  THR168      0.2287
    199  O         -5.6600   15.5810   25.5080 O.2   168  THR168     -0.2866
    200  CB        -3.1120   14.2010   26.7800 C.3   168  THR168      0.1770
    201  OG1       -2.5630   13.4450   27.8620 O.3   168  THR168     -0.2211
    202  CG2       -1.9800   14.9420   26.0530 C.3   168  THR168      0.0375
    203  N         -3.0540   18.1400   23.0830 N.3   170  VAL170     -0.1245
    204  CA        -1.8660   18.4840   22.3060 C.3   170  VAL170      0.1561
    205  C         -2.2770   19.6950   21.4640 C.2   170  VAL170      0.2260
    206  O         -3.1230   19.5650   20.5630 O.2   170  VAL170     -0.2867
    207  CB        -1.3370   17.3290   21.4420 C.3   170  VAL170      0.0252
    208  CG1       -0.1570   17.7970   20.5870 C.3   170  VAL170      0.0019
    209  CG2       -0.9280   16.1290   22.3190 C.3   170  VAL170      0.0019
@<TRIPOS>BOND
     1   155   154    2
     2   154   153    1
     3    34    35    1
     4    40    39    1
     5    39    38    1
     6    39    41    1
     7   153   156    1
     8   153   152    1
     9    38    35    1
    10   137   136    2
    11    35    36    1
    12   156   157    1
    13   140   138    1
    14   144   143    2
    15   136   135    1
    16   152   143   am
    17    36    37    2
    18   143   142    1
    19   141   142    1
    20   130   131    1
    21   138   135    1
    22   138   139    1
    23   134   135    1
    24   134   132   am
    25   142   145    1
    26    29    28    2
    27   157   158   ar
    28   157   159   ar
    29   158   160   ar
    30    42    43    1
    31   131   132    1
    32    28    27    1
    33    48    47    2
    34   132   133    2
    35   159   161   ar
    36    33    31    1
    37    49    47   am
    38    47    46    1
    39   145   146    1
    40    27    26    1
    41    27    30    1
    42   160   162   ar
    43   206   205    2
    44   208   207    1
    45    43    46    1
    46    43    44    1
    47   146   147   ar
    48   146   148   ar
    49   147   149   ar
    50    31    30    1
    51   161   162   ar
    52    50    44   am
    53    50    51    1
    54   148   150   ar
    55    54    55    1
    56    54    51    1
    57   207   204    1
    58   207   209    1
    59   205   204    1
    60   128   127    2
    61    30    32    1
    62   162   163    1
    63    44    45    2
    64   149   151   ar
    65   150   151   ar
    66    51    52    1
    67    52    53    2
    68   204   203    1
    69    20    19    2
    70   127   126    1
    71   120   119    2
    72    15    13   ar
    73    15    16   ar
    74   126   129    1
    75   126   125    1
    76    13    11   ar
    77    16    14   ar
    78    19    18    1
    79   184   183   ar
    80   184   182   ar
    81    11    10    1
    82    11    12   ar
    83    10     7    1
    84    14    12   ar
    85   183   181   ar
    86   119   125   am
    87   119   118    1
    88    65    62    1
    89    65    66    1
    90   123   121    1
    91    68    66   ar
    92    61    62    1
    93   170   168    1
    94    62    63    1
    95    56    57    1
    96   182   180   ar
    97    66    67   ar
    98     9     8    2
    99    18    17    1
   100    18    21    1
   101     8     7    1
   102     8    17   am
   103   181   178   ar
   104     7     6    1
   105   118   121    1
   106   118   117    1
   107    21    22    1
   108   164   165    1
   109   121   122    1
   110   199   198    2
   111     6     3   am
   112   165   168    1
   113   165   166    1
   114   168   169    1
   115   202   200    1
   116   180   178   ar
   117   180   179   ar
   118    60    57    1
   119    57    58    1
   120    63    64    2
   121   198   197    1
   122   178   176   ar
   123   108   107    2
   124   185   186    1
   125   116   115    2
   126   189   186    1
   127   189   190    1
   128   124   122    1
   129    58    59    2
   130   186   187    1
   131   174   173    2
   132   200   197    1
   133   200   201    1
   134   112   110    1
   135    22    23    1
   136    24    23    2
   137   192   190   ar
   138   192   194   ar
   139     3     2    1
   140     3     4    2
   141   179   177   ar
   142   166   167    2
   143   197   196    1
   144   190   191   ar
   145   173   172    1
   146    23    25   am
   147   115   114    1
   148   107   106    1
   149   107   113   am
   150    88    87    1
   151   176   177   ar
   152   176   175    1
   153   109   110    1
   154   109   106    1
   155     2     5    1
   156     2     1    1
   157   114   113    1
   158   194   195   ar
   159   187   188    2
   160    87    86    1
   161   110   111    1
   162   106   105    1
   163   175   172    1
   164   191   193   ar
   165   172   171    1
   166   195   193   ar
   167    86    85    1
   168    69    70    1
   169    96    94    1
   170    75    73    1
   171    92    91    2
   172    77    78    1
   173    77    71   am
   174    85    82    1
   175    78    79    1
   176    73    70    1
   177    73    74    1
   178    70    71    1
   179    91    90    1
   180    91    97   am
   181    90    93    1
   182    90    89    1
   183    80    79    2
   184    79    81   am
   185    94    93    1
   186    94    95    1
   187   100    99    2
   188    71    72    2
   189    81    82    1
   190    82    83    1
   191    99    98    1
   192    97    98    1
   193    98   101    1
   194    74    76    1
   195    83    84    2
   196   101   102    1
   197   101   103    1
   198   102   104    1
