@<TRIPOS>MOLECULE
tmp/2ykjA00.pdb
 204 193 0 0 0
SMALL
GASTEIGER

@<TRIPOS>ATOM
      1  N         17.0070   19.2740   25.8740 N.3     6  PHE6       -0.1227
      2  CA        16.7850   18.0030   25.1890 C.3     6  PHE6        0.1736
      3  C         18.1470   17.3250   25.0520 C.2     6  PHE6        0.2595
      4  O         19.1790   17.9930   24.9080 O.2     6  PHE6       -0.2718
      5  CB        16.2500   18.2230   23.7680 C.3     6  PHE6        0.0547
      6  CG        14.7760   18.5200   23.6900 C.ar    6  PHE6       -0.0202
      7  CD1       13.8380   17.5570   24.0310 C.ar    6  PHE6       -0.0042
      8  CD2       14.3310   19.7430   23.2170 C.ar    6  PHE6       -0.0042
      9  CE1       12.4750   17.8120   23.8930 C.ar    6  PHE6       -0.0003
     10  CE2       12.9790   20.0070   23.0780 C.ar    6  PHE6       -0.0003
     11  CZ        12.0490   19.0400   23.4160 C.ar    6  PHE6       -0.0000
     12  N         18.1530   15.9990   25.0880 N.am    7  GLN7       -0.1979
     13  CA        19.3910   15.2640   24.8970 C.3     7  GLN7        0.1601
     14  C         19.7100   15.3600   23.4080 C.2     7  GLN7        0.2287
     15  O         18.8290   15.6540   22.5920 O.2     7  GLN7       -0.2864
     16  CB        19.2340   13.8080   25.3260 C.3     7  GLN7        0.0394
     17  CG        19.1280   13.6360   26.8330 C.3     7  GLN7        0.0908
     18  CD        19.0990   12.1830   27.2470 C.2     7  GLN7        0.2608
     19  OE1       20.0200   11.4230   26.9500 O.2     7  GLN7       -0.2717
     20  NE2       18.0360   11.7870   27.9360 N.am    7  GLN7       -0.0878
     21  N         17.3260   13.2710   20.5600 N.3    10  ILE10      -0.1245
     22  CA        16.0210   13.8430   20.2680 C.3    10  ILE10       0.1561
     23  C         16.1340   15.2360   19.6510 C.2    10  ILE10       0.2260
     24  O         15.3480   15.5910   18.7770 O.2    10  ILE10      -0.2867
     25  CB        15.1240   13.8800   21.5340 C.3    10  ILE10       0.0252
     26  CG1       13.7460   14.4510   21.1850 C.3    10  ILE10       0.0019
     27  CG2       15.7820   14.6880   22.6330 C.3    10  ILE10       0.0019
     28  CD1       13.0010   13.6610   20.1260 C.3    10  ILE10       0.0001
     29  N         -0.7860   11.4550   16.2340 N.3    32  LEU32      -0.1245
     30  CA        -1.2950   12.0060   17.4810 C.3    32  LEU32       0.1561
     31  C         -2.5680   11.2790   17.9090 C.2    32  LEU32       0.2260
     32  O         -2.7750   11.0140   19.0940 O.2    32  LEU32      -0.2867
     33  CB        -1.5420   13.5160   17.3360 C.3    32  LEU32       0.0270
     34  CG        -0.3320   14.3590   16.8990 C.3    32  LEU32       0.0019
     35  CD1       -0.7070   15.8300   16.8980 C.3    32  LEU32       0.0001
     36  CD2        0.8510   14.1260   17.8290 C.3    32  LEU32       0.0001
     37  N         -1.5530    8.0650   19.3880 N.3    35  ASN35      -0.1225
     38  CA        -1.0320    8.2340   20.7410 C.3    35  ASN35       0.1785
     39  C         -2.1940    8.3750   21.7290 C.2    35  ASN35       0.2597
     40  O         -2.1410    7.8440   22.8380 O.2    35  ASN35      -0.2718
     41  CB        -0.1280    9.4640   20.8250 C.3    35  ASN35       0.1169
     42  CG         1.1820    9.2780   20.0860 C.2    35  ASN35       0.2627
     43  OD1        1.6530    8.1550   19.9170 O.2    35  ASN35      -0.2716
     44  ND2        1.7890   10.3840   19.6640 N.am   35  ASN35      -0.0877
     45  N         -3.2320    9.1100   21.3260 N.am   36  SER36      -0.1952
     46  CA        -4.4100    9.2980   22.1670 C.3    36  SER36       0.1924
     47  C         -5.1120    7.9610   22.3800 C.2    36  SER36       0.2314
     48  O         -5.4800    7.6240   23.5040 O.2    36  SER36      -0.2863
     49  CB        -5.3800   10.2960   21.5230 C.3    36  SER36       0.2116
     50  OG        -4.8960   11.6100   21.5780 O.3    36  SER36      -0.2180
     51  N         -3.3100    5.8540   24.8060 N.3    39  ALA39      -0.1245
     52  CA        -3.4960    6.3520   26.1620 C.3    39  ALA39       0.1562
     53  C         -4.8810    6.0010   26.6880 C.2    39  ALA39       0.2260
     54  O         -5.0620    5.7820   27.8940 O.2    39  ALA39      -0.2867
     55  CB        -3.2900    7.8660   26.1900 C.3    39  ALA39       0.0290
     56  N         -7.7500   14.2600   24.3860 N.3    77  ASP77      -0.1239
     57  CA        -8.1790   12.9060   24.7260 C.3    77  ASP77       0.1674
     58  C         -8.3720   12.7870   26.2260 C.2    77  ASP77       0.2266
     59  O         -7.8280   13.5790   26.9990 O.2    77  ASP77      -0.2867
     60  CB        -7.1830   11.8430   24.2220 C.3    77  ASP77       0.1410
     61  CG        -5.8730   11.8400   24.9800 C.2    77  ASP77       0.3668
     62  OD1       -5.8750   11.5290   26.1950 O.co2  77  ASP77      -0.2456
     63  OD2       -4.8230   12.1330   24.3610 O.co2  77  ASP77      -0.2456
     64  N         -5.0330    8.1750   29.7810 N.3    80  ILE80      -0.1231
     65  CA        -4.3590    8.1040   31.0690 C.3    80  ILE80       0.1692
     66  C         -3.5990    9.3740   31.4940 C.2    80  ILE80       0.2593
     67  O         -3.4070    9.6080   32.6880 O.2    80  ILE80      -0.2718
     68  CB        -3.4110    6.8640   31.0940 C.3    80  ILE80       0.0266
     69  CG1       -2.9680    6.5650   32.5270 C.3    80  ILE80       0.0019
     70  CG2       -2.2170    7.0960   30.1820 C.3    80  ILE80       0.0020
     71  CD1       -2.3010    5.2050   32.6820 C.3    80  ILE80       0.0001
     72  N         -3.1810   10.1940   30.5340 N.am   81  GLY81      -0.1942
     73  CA        -2.4570   11.4030   30.8820 C.3    81  GLY81       0.2014
     74  C         -1.0070   11.1220   31.2280 C.2    81  GLY81       0.2638
     75  O         -0.5470    9.9780   31.1620 O.2    81  GLY81      -0.2714
     76  N         -0.2880   12.1700   31.6160 N.am   82  MET82      -0.1976
     77  CA         1.1260   12.0530   31.9600 C.3    82  MET82       0.1605
     78  C          1.4300   12.7810   33.2650 C.2    82  MET82       0.2287
     79  O          0.9380   13.8850   33.4980 O.2    82  MET82      -0.2864
     80  CB         1.9890   12.6540   30.8410 C.3    82  MET82       0.0413
     81  CG         1.9480   11.9040   29.5110 C.3    82  MET82       0.0598
     82  SD         2.6440   12.8720   28.1940 S.3    82  MET82      -0.1393
     83  CE         1.1530   13.8360   27.6530 C.3    82  MET82       0.0692
     84  N          6.6030   13.3600   31.9510 N.3    87  LEU87      -0.1231
     85  CA         6.9860   14.4980   31.1220 C.3    87  LEU87       0.1693
     86  C          8.4770   14.7990   31.0770 C.2    87  LEU87       0.2591
     87  O          9.0200   15.0650   30.0170 O.2    87  LEU87      -0.2718
     88  CB         6.2500   15.7580   31.5860 C.3    87  LEU87       0.0284
     89  CG         4.7390   15.8580   31.3520 C.3    87  LEU87       0.0019
     90  CD1        4.2070   17.1390   31.9910 C.3    87  LEU87       0.0001
     91  CD2        4.4470   15.8480   29.8570 C.3    87  LEU87       0.0001
     92  N          9.1210   14.7580   32.2350 N.am   88  ILE88      -0.1980
     93  CA        10.5400   15.0650   32.3290 C.3    88  ILE88       0.1595
     94  C         11.4870   13.8850   32.1680 C.2    88  ILE88       0.2287
     95  O         12.4700   13.9730   31.4280 O.2    88  ILE88      -0.2864
     96  CB        10.8430   15.7360   33.6800 C.3    88  ILE88       0.0276
     97  CG1       10.0640   17.0480   33.7890 C.3    88  ILE88       0.0022
     98  CG2       12.3370   15.9740   33.8270 C.3    88  ILE88       0.0022
     99  CD1       10.0330   17.6270   35.1900 C.3    88  ILE88       0.0001
    100  N          9.3710    9.8080   29.5480 N.3    91  LEU91      -0.1231
    101  CA         9.2610   10.0030   28.1070 C.3    91  LEU91       0.1693
    102  C         10.5780   10.4470   27.4750 C.2    91  LEU91       0.2592
    103  O         10.7560   10.3490   26.2580 O.2    91  LEU91      -0.2718
    104  CB         8.1290   10.9780   27.7970 C.3    91  LEU91       0.0284
    105  CG         6.7670   10.3200   28.0670 C.3    91  LEU91       0.0019
    106  CD1        5.6820   11.3720   28.0850 C.3    91  LEU91       0.0001
    107  CD2        6.4790    9.2650   27.0020 C.3    91  LEU91       0.0001
    108  N         11.5000   10.9300   28.3050 N.am   92  GLY92      -0.1957
    109  CA        12.8080   11.3200   27.8000 C.3    92  GLY92       0.1869
    110  C         13.5660   10.0590   27.4240 C.2    92  GLY92       0.2309
    111  O         14.2860   10.0110   26.4250 O.2    92  GLY92      -0.2863
    112  N         12.1540    7.1760   26.5700 N.3    94  ILE94      -0.1231
    113  CA        11.5110    6.6320   25.3830 C.3    94  ILE94       0.1692
    114  C         11.9230    7.4200   24.1410 C.2    94  ILE94       0.2591
    115  O         12.1750    6.8440   23.0810 O.2    94  ILE94      -0.2718
    116  CB         9.9710    6.6670   25.5170 C.3    94  ILE94       0.0266
    117  CG1        9.5230    5.7630   26.6700 C.3    94  ILE94       0.0019
    118  CG2        9.3200    6.2380   24.2140 C.3    94  ILE94       0.0020
    119  CD1        9.9130    4.3000   26.5120 C.3    94  ILE94       0.0001
    120  N         11.9990    8.7410   24.2710 N.am   95  ALA95      -0.1980
    121  CA        12.3860    9.5810   23.1440 C.3    95  ALA95       0.1597
    122  C         13.7940    9.2470   22.6540 C.2    95  ALA95       0.2287
    123  O         14.0480    9.2260   21.4490 O.2    95  ALA95      -0.2864
    124  CB        12.3090   11.0520   23.5310 C.3    95  ALA95       0.0319
    125  N          7.7790    4.6940   18.3570 N.3   119  GLY119     -0.1210
    126  CA         7.2930    5.2940   19.5840 C.3   119  GLY119      0.1956
    127  C          7.5270    6.7740   19.7800 C.2   119  GLY119      0.2611
    128  O          7.3480    7.2730   20.8880 O.2   119  GLY119     -0.2717
    129  N          7.9340    7.4700   18.7260 N.am  120  VAL120     -0.1979
    130  CA         8.1740    8.9010   18.8200 C.3   120  VAL120      0.1595
    131  C          7.3420    9.6940   17.8130 C.2   120  VAL120      0.2287
    132  O          7.7100   10.8080   17.4350 O.2   120  VAL120     -0.2864
    133  CB         9.6720    9.2380   18.6390 C.3   120  VAL120      0.0276
    134  CG1       10.4580    8.7470   19.8460 C.3   120  VAL120      0.0022
    135  CG2       10.2010    8.6050   17.3620 C.3   120  VAL120      0.0022
    136  N          4.8120   11.3490   18.2330 N.3   122  PHE122     -0.1227
    137  CA         4.4220   12.6440   18.7830 C.3   122  PHE122      0.1736
    138  C          5.2220   13.7630   18.1150 C.2   122  PHE122      0.2595
    139  O          4.6860   14.8290   17.8320 O.2   122  PHE122     -0.2718
    140  CB         4.6860   12.6570   20.2960 C.3   122  PHE122      0.0547
    141  CG         4.6790   14.0330   20.9210 C.ar  122  PHE122     -0.0202
    142  CD1        3.4930   14.7280   21.1110 C.ar  122  PHE122     -0.0042
    143  CD2        5.8670   14.6190   21.3320 C.ar  122  PHE122     -0.0042
    144  CE1        3.4940   15.9890   21.7090 C.ar  122  PHE122     -0.0003
    145  CE2        5.8800   15.8750   21.9280 C.ar  122  PHE122     -0.0003
    146  CZ         4.6960   16.5550   22.1140 C.ar  122  PHE122     -0.0000
    147  N          6.5010   13.5070   17.8530 N.am  123  TYR123     -0.1976
    148  CA         7.3620   14.5210   17.2560 C.3   123  TYR123      0.1639
    149  C          7.0570   14.8810   15.8070 C.2   123  TYR123      0.2290
    150  O          7.6070   15.8490   15.2700 O.2   123  TYR123     -0.2864
    151  CB         8.8310   14.1330   17.4700 C.3   123  TYR123      0.0560
    152  CG         9.2560   14.4740   18.8810 C.ar  123  TYR123     -0.0198
    153  CD1        9.5440   15.7890   19.2320 C.ar  123  TYR123     -0.0009
    154  CD2        9.2390   13.5160   19.8920 C.ar  123  TYR123     -0.0009
    155  CE1        9.7920   16.1440   20.5490 C.ar  123  TYR123      0.0417
    156  CE2        9.4860   13.8630   21.2140 C.ar  123  TYR123      0.0417
    157  CZ         9.7610   15.1860   21.5320 C.ar  123  TYR123      0.1957
    158  OH         9.9880   15.5210   22.8440 O.3   123  TYR123     -0.2866
    159  N          1.6300   20.9160   25.4670 N.3   134  VAL134     -0.1245
    160  CA         0.9290   19.7360   25.9520 C.3   134  VAL134      0.1561
    161  C          0.3720   19.9780   27.3520 C.2   134  VAL134      0.2260
    162  O          1.1350   20.2010   28.2900 O.2   134  VAL134     -0.2867
    163  CB         1.8780   18.5220   26.0120 C.3   134  VAL134      0.0252
    164  CG1        1.1520   17.3200   26.6050 C.3   134  VAL134      0.0019
    165  CG2        2.4120   18.2110   24.6220 C.3   134  VAL134      0.0019
    166  N          3.5790   21.1660   29.2930 N.3   146  TRP146     -0.1241
    167  CA         4.9040   20.9300   28.7120 C.3   146  TRP146      0.1605
    168  C          4.8810   21.7320   27.4120 C.2   146  TRP146      0.2264
    169  O          3.8560   21.7950   26.7410 O.2   146  TRP146     -0.2867
    170  CB         5.0730   19.4420   28.3920 C.3   146  TRP146      0.0550
    171  CG         6.3700   19.0550   27.7080 C.ar  146  TRP146      0.0003
    172  CD1        7.4750   18.5070   28.2940 C.ar  146  TRP146      0.0946
    173  CD2        6.6490   19.1100   26.3020 C.ar  146  TRP146      0.0152
    174  NE1        8.4160   18.1980   27.3370 N.ar  146  TRP146     -0.2442
    175  CE2        7.9270   18.5460   26.1050 C.ar  146  TRP146      0.0810
    176  CE3        5.9250   19.5480   25.1880 C.ar  146  TRP146      0.0012
    177  CZ2        8.5110   18.4420   24.8430 C.ar  146  TRP146      0.0191
    178  CZ3        6.5020   19.4430   23.9350 C.ar  146  TRP146      0.0001
    179  CH2        7.7790   18.8800   23.7690 C.ar  146  TRP146      0.0015
    180  N         12.8400   22.6430   26.3810 N.3   154  PHE154     -0.1241
    181  CA        11.4020   22.5270   26.5970 C.3   154  PHE154      0.1605
    182  C         11.1470   23.0090   28.0170 C.2   154  PHE154      0.2264
    183  O         12.0680   23.0950   28.8300 O.2   154  PHE154     -0.2867
    184  CB        10.8800   21.0890   26.3900 C.3   154  PHE154      0.0534
    185  CG        11.4130   20.0710   27.3720 C.ar  154  PHE154     -0.0203
    186  CD1       10.7520   19.8300   28.5730 C.ar  154  PHE154     -0.0042
    187  CD2       12.5330   19.3100   27.0670 C.ar  154  PHE154     -0.0042
    188  CE1       11.1940   18.8460   29.4420 C.ar  154  PHE154     -0.0003
    189  CE2       12.9820   18.3220   27.9310 C.ar  154  PHE154     -0.0003
    190  CZ        12.3130   18.0860   29.1200 C.ar  154  PHE154     -0.0000
    191  N         -5.0770   14.3470   28.0380 N.3   168  THR168     -0.1218
    192  CA        -4.0290   15.1430   27.4230 C.3   168  THR168      0.1862
    193  C         -4.5550   15.9980   26.2770 C.2   168  THR168      0.2287
    194  O         -5.4480   15.5840   25.5320 O.2   168  THR168     -0.2866
    195  CB        -2.9140   14.2210   26.8710 C.3   168  THR168      0.1770
    196  OG1       -2.3560   13.4660   27.9530 O.3   168  THR168     -0.2211
    197  CG2       -1.8140   15.0340   26.1770 C.3   168  THR168      0.0375
    198  N         -2.9370   18.1520   23.1020 N.3   170  VAL170     -0.1245
    199  CA        -1.7320   18.4950   22.3530 C.3   170  VAL170      0.1561
    200  C         -2.1400   19.6790   21.4870 C.2   170  VAL170      0.2260
    201  O         -2.9470   19.5390   20.5590 O.2   170  VAL170     -0.2867
    202  CB        -1.2390   17.3230   21.4720 C.3   170  VAL170      0.0252
    203  CG1       -0.0360   17.7670   20.6480 C.3   170  VAL170      0.0019
    204  CG2       -0.8380   16.1390   22.3550 C.3   170  VAL170      0.0019
@<TRIPOS>BOND
     1   150   149    2
     2   149   148    1
     3    29    30    1
     4    35    34    1
     5    34    33    1
     6    34    36    1
     7   148   151    1
     8   148   147    1
     9    33    30    1
    10   135   133    1
    11   132   131    2
    12   151   152    1
    13    30    31    1
    14   131   130    1
    15   139   138    2
    16   147   138   am
    17    31    32    2
    18   138   137    1
    19   136   137    1
    20   125   126    1
    21   133   130    1
    22   133   134    1
    23   129   130    1
    24   129   127   am
    25    24    23    2
    26   137   140    1
    27   152   153   ar
    28   152   154   ar
    29   153   155   ar
    30    37    38    1
    31   126   127    1
    32    23    22    1
    33    44    42   am
    34   127   128    2
    35   154   156   ar
    36    43    42    2
    37    42    41    1
    38    28    26    1
    39    22    21    1
    40    22    25    1
    41   140   141    1
    42   155   157   ar
    43   201   200    2
    44   203   202    1
    45    38    41    1
    46    38    39    1
    47   141   142   ar
    48   141   143   ar
    49   142   144   ar
    50    26    25    1
    51   156   157   ar
    52    45    39   am
    53    45    46    1
    54   143   145   ar
    55   123   122    2
    56   202   199    1
    57   202   204    1
    58   200   199    1
    59    49    50    1
    60    49    46    1
    61   157   158    1
    62    25    27    1
    63   144   146   ar
    64    39    40    2
    65   145   146   ar
    66    46    47    1
    67   199   198    1
    68    47    48    2
    69    15    14    2
    70   122   121    1
    71    10     8   ar
    72    10    11   ar
    73   115   114    2
    74   121   124    1
    75   121   120    1
    76     8     6   ar
    77    14    13    1
    78    11     9   ar
    79     6     5    1
    80     6     7   ar
    81     5     2    1
    82   179   178   ar
    83   179   177   ar
    84     9     7   ar
    85   178   176   ar
    86   114   120   am
    87   114   113    1
    88   118   116    1
    89    60    57    1
    90    60    61    1
    91    63    61   ar
    92    56    57    1
    93   165   163    1
    94    57    58    1
    95    51    52    1
    96   177   175   ar
    97    13    12    1
    98    13    16    1
    99     4     3    2
   100    61    62   ar
   101     3    12   am
   102     3     2    1
   103   176   173   ar
   104     2     1    1
   105    16    17    1
   106   113   116    1
   107   113   112    1
   108   159   160    1
   109   116   117    1
   110   194   193    2
   111   160   163    1
   112   160   161    1
   113   163   164    1
   114   175   173   ar
   115   175   174   ar
   116    52    55    1
   117    52    53    1
   118   197   195    1
   119    58    59    2
   120   103   102    2
   121   193   192    1
   122   173   171   ar
   123   180   181    1
   124   184   181    1
   125   184   185    1
   126   111   110    2
   127   119   117    1
   128   181   182    1
   129    53    54    2
   130   169   168    2
   131    17    18    1
   132   195   192    1
   133   195   196    1
   134    19    18    2
   135   107   105    1
   136   187   185   ar
   137   187   189   ar
   138    18    20   am
   139   174   172   ar
   140   161   162    2
   141   185   186   ar
   142   168   167    1
   143   192   191    1
   144   110   109    1
   145   102   101    1
   146   102   108   am
   147    83    82    1
   148   171   172   ar
   149   171   170    1
   150   104   105    1
   151   104   101    1
   152   109   108    1
   153   189   190   ar
   154   182   183    2
   155   105   106    1
   156   101   100    1
   157    82    81    1
   158   170   167    1
   159   186   188   ar
   160   167   166    1
   161   190   188   ar
   162    81    80    1
   163    64    65    1
   164    91    89    1
   165    87    86    2
   166    70    68    1
   167    72    73    1
   168    72    66   am
   169    80    77    1
   170    73    74    1
   171    65    68    1
   172    65    66    1
   173    86    85    1
   174    86    92   am
   175    68    69    1
   176    85    88    1
   177    85    84    1
   178    75    74    2
   179    74    76   am
   180    89    88    1
   181    89    90    1
   182    95    94    2
   183    66    67    2
   184    76    77    1
   185    77    78    1
   186    94    93    1
   187    92    93    1
   188    93    96    1
   189    69    71    1
   190    78    79    2
   191    96    97    1
   192    96    98    1
   193    97    99    1
