@<TRIPOS>MOLECULE
tmp/2ykkA00.pdb
 104 99 0 0 0
SMALL
GASTEIGER

@<TRIPOS>ATOM
      1  N         -6.2270   72.9440   35.5950 N.3    41  GLY41      -0.1210
      2  CA        -7.5110   73.4730   36.0490 C.3    41  GLY41       0.1956
      3  C         -7.6330   74.9610   35.6970 C.2    41  GLY41       0.2611
      4  O         -6.7520   75.5620   35.0670 O.2    41  GLY41      -0.2717
      5  N         -8.7420   75.5540   36.1380 N.am   42  ASN42      -0.1974
      6  CA        -9.1090   76.8990   35.6500 C.3    42  ASN42       0.1688
      7  C         -8.0390   77.9980   35.9010 C.2    42  ASN42       0.2292
      8  O         -7.8240   78.8700   35.0530 O.2    42  ASN42      -0.2864
      9  CB       -10.4570   77.2980   36.2950 C.3    42  ASN42       0.1181
     10  CG       -11.6040   76.4250   35.8110 C.2    42  ASN42       0.2629
     11  OD1      -11.5220   75.8300   34.7290 O.2    42  ASN42      -0.2716
     12  ND2      -12.7320   76.4060   36.5600 N.am   42  ASN42      -0.0877
     13  N        -14.7580   81.4440   38.8680 N.3    59  ASP59      -0.1239
     14  CA       -14.6850   80.7590   40.1720 C.3    59  ASP59       0.1674
     15  C        -14.5560   81.7550   41.3120 C.2    59  ASP59       0.2266
     16  O        -15.0030   81.4410   42.4280 O.2    59  ASP59      -0.2867
     17  CB       -13.4810   79.8240   40.2570 C.3    59  ASP59       0.1410
     18  CG       -13.6860   78.5110   39.4930 C.2    59  ASP59       0.3668
     19  OD1      -14.8490   78.0910   39.2270 O.co2  59  ASP59      -0.2456
     20  OD2      -12.6520   77.8830   39.1750 O.co2  59  ASP59      -0.2456
     21  N         -6.7890   74.4940   29.2380 N.3   180  ASN180     -0.1225
     22  CA        -7.7310   73.7810   30.1270 C.3   180  ASN180      0.1785
     23  C         -9.1440   74.1180   29.7190 C.2   180  ASN180      0.2597
     24  O         -9.4770   75.3120   29.6900 O.2   180  ASN180     -0.2718
     25  CB        -7.4800   74.2610   31.5820 C.3   180  ASN180      0.1169
     26  CG        -8.3970   73.5950   32.5810 C.2   180  ASN180      0.2627
     27  OD1       -9.4130   74.2170   33.0790 O.2   180  ASN180     -0.2716
     28  ND2       -8.0760   72.3800   32.9260 N.am  180  ASN180     -0.0877
     29  N         -9.9490   73.1030   29.3640 N.am  181  GLU181     -0.1979
     30  CA       -11.4160   73.3170   29.1440 C.3   181  GLU181      0.1602
     31  C        -11.7160   74.4870   28.1900 C.2   181  GLU181      0.2287
     32  O        -12.4650   75.4500   28.5550 O.2   181  GLU181     -0.2864
     33  CB       -12.1560   73.4950   30.4850 C.3   181  GLU181      0.0415
     34  CG       -11.9120   72.2510   31.3690 C.3   181  GLU181      0.1163
     35  CD       -12.8150   72.1900   32.6110 C.2   181  GLU181      0.3649
     36  OE1      -13.5240   73.1890   32.9570 O.co2 181  GLU181     -0.2457
     37  OE2      -12.8140   71.1110   33.2760 O.co2 181  GLU181     -0.2457
     38  N        -15.1920   75.8460   27.6730 N.3   184  LEU184     -0.1245
     39  CA       -15.6680   76.6950   28.7510 C.3   184  LEU184      0.1561
     40  C        -14.9270   78.0430   28.8660 C.2   184  LEU184      0.2260
     41  O        -15.2490   78.8120   29.7820 O.2   184  LEU184     -0.2867
     42  CB       -15.6650   75.9810   30.1400 C.3   184  LEU184      0.0270
     43  CG       -16.5760   74.7460   30.1760 C.3   184  LEU184      0.0019
     44  CD1      -16.6050   74.1880   31.5930 C.3   184  LEU184      0.0001
     45  CD2      -17.9800   75.1290   29.7570 C.3   184  LEU184      0.0001
     46  N        -15.9510   80.4710   31.8450 N.3   188  THR188     -0.1218
     47  CA       -15.0500   80.5270   33.0170 C.3   188  THR188      0.1862
     48  C        -14.1370   81.7390   32.9450 C.2   188  THR188      0.2287
     49  O        -13.7720   82.3230   33.9900 O.2   188  THR188     -0.2866
     50  CB       -14.1640   79.2560   33.0180 C.3   188  THR188      0.1770
     51  OG1      -15.0510   78.1270   33.1740 O.3   188  THR188     -0.2211
     52  CG2      -13.1940   79.2820   34.2220 C.3   188  THR188      0.0375
     53  N        -16.6050   64.3740   35.0640 N.3   280  TYR280     -0.1241
     54  CA       -17.2970   64.4860   36.3480 C.3   280  TYR280      0.1605
     55  C        -18.6570   63.8680   36.0740 C.2   280  TYR280      0.2264
     56  O        -19.4150   64.3830   35.2590 O.2   280  TYR280     -0.2867
     57  CB       -17.4800   65.9560   36.7150 C.3   280  TYR280      0.0534
     58  CG       -16.1560   66.6080   37.0750 C.ar  280  TYR280     -0.0201
     59  CD1      -15.6010   66.4030   38.3480 C.ar  280  TYR280     -0.0009
     60  CD2      -15.5250   67.4970   36.1860 C.ar  280  TYR280     -0.0009
     61  CE1      -14.4160   67.0190   38.7390 C.ar  280  TYR280      0.0417
     62  CE2      -14.2850   68.1170   36.5620 C.ar  280  TYR280      0.0417
     63  CZ       -13.7770   67.8970   37.8630 C.ar  280  TYR280      0.1957
     64  OH       -12.6240   68.5360   38.2620 O.3   280  TYR280     -0.2866
     65  N         -9.0180   65.2590   35.0860 N.3   352  GLU352     -0.1245
     66  CA        -9.8050   65.5910   36.2900 C.3   352  GLU352      0.1567
     67  C        -10.9590   64.6490   36.3250 C.2   352  GLU352      0.2260
     68  O        -11.5520   64.4120   35.2790 O.2   352  GLU352     -0.2867
     69  CB       -10.4300   66.9840   36.2230 C.3   352  GLU352      0.0388
     70  CG        -9.3490   68.0940   36.3350 C.3   352  GLU352      0.1160
     71  CD        -9.9200   69.5240   36.1830 C.2   352  GLU352      0.3649
     72  OE1      -11.1330   69.7180   36.3900 O.co2 352  GLU352     -0.2457
     73  OE2       -9.1380   70.4670   35.8770 O.co2 352  GLU352     -0.2457
     74  N         -9.6570   65.2640   41.1130 N.3   385  TRP385     -0.1227
     75  CA        -9.7700   66.7150   41.4700 C.3   385  TRP385      0.1737
     76  C        -10.6480   66.8370   42.7270 C.2   385  TRP385      0.2595
     77  O        -11.7760   66.3510   42.7500 O.2   385  TRP385     -0.2718
     78  CB       -10.3920   67.5750   40.3140 C.3   385  TRP385      0.0564
     79  CG       -10.4100   69.0660   40.7280 C.ar  385  TRP385      0.0003
     80  CD1      -11.3310   69.6720   41.5510 C.ar  385  TRP385      0.0946
     81  CD2       -9.4530   70.0820   40.3780 C.ar  385  TRP385      0.0152
     82  NE1      -10.9820   71.0140   41.7640 N.ar  385  TRP385     -0.2442
     83  CE2       -9.8340   71.2810   41.0570 C.ar  385  TRP385      0.0810
     84  CE3       -8.2930   70.1000   39.5880 C.ar  385  TRP385      0.0012
     85  CZ2       -9.0820   72.4750   40.9620 C.ar  385  TRP385      0.0191
     86  CZ3       -7.5510   71.3170   39.4730 C.ar  385  TRP385      0.0001
     87  CH2       -7.9630   72.4730   40.1560 C.ar  385  TRP385      0.0015
     88  N        -10.1520   67.5180   43.7440 N.am  386  LYS386     -0.1966
     89  CA       -10.9100   67.6970   44.9850 C.3   386  LYS386      0.1728
     90  C        -12.0700   68.6920   44.7860 C.2   386  LYS386      0.2616
     91  O        -11.8220   69.8930   44.6950 O.2   386  LYS386     -0.2715
     92  CB       -10.0020   68.2500   46.1010 C.3   386  LYS386      0.0311
     93  CG        -8.8960   67.3590   46.5800 C.3   386  LYS386      0.0038
     94  CD        -8.0490   68.1440   47.6510 C.3   386  LYS386      0.0206
     95  CE        -8.8080   68.1830   48.9900 C.3   386  LYS386      0.1093
     96  NZ        -7.9420   68.9620   49.9930 N.3   386  LYS386     -0.1314
     97  N        -13.3100   68.1970   44.7560 N.am  387  LEU387     -0.1977
     98  CA       -14.5000   69.0770   44.6940 C.3   387  LEU387      0.1596
     99  C        -14.8750   69.6270   46.0790 C.2   387  LEU387      0.2287
    100  O        -15.6600   70.5770   46.1720 O.2   387  LEU387     -0.2864
    101  CB       -15.7140   68.3480   44.0720 C.3   387  LEU387      0.0297
    102  CG       -15.5070   67.9950   42.6140 C.3   387  LEU387      0.0022
    103  CD1      -16.7140   67.2000   42.1480 C.3   387  LEU387      0.0001
    104  CD2      -15.3090   69.2040   41.7260 C.3   387  LEU387      0.0001
@<TRIPOS>BOND
     1    38    39    1
     2    31    32    2
     3    31    30    1
     4    39    40    1
     5    39    42    1
     6    40    41    2
     7    30    29    1
     8    30    33    1
     9    21    22    1
    10    29    23   am
    11    24    23    2
    12    23    22    1
    13    45    43    1
    14    22    25    1
    15    42    43    1
    16    43    44    1
    17    33    34    1
    18    34    35    1
    19    25    26    1
    20    46    47    1
    21    26    28   am
    22    26    27    2
    23    35    36   ar
    24    35    37   ar
    25    48    47    1
    26    48    49    2
    27    47    50    1
    28    50    51    1
    29    50    52    1
    30    11    10    2
    31     8     7    2
    32    53    54    1
    33     4     3    2
    34    65    66    1
    35    56    55    2
    36    68    67    2
    37     1     2    1
    38     6     7    1
    39     6     5    1
    40     6     9    1
    41     3     2    1
    42     3     5   am
    43    10     9    1
    44    10    12   am
    45    73    71   ar
    46    55    54    1
    47    71    70    1
    48    71    72   ar
    49    60    62   ar
    50    60    58   ar
    51    69    66    1
    52    69    70    1
    53    66    67    1
    54    54    57    1
    55    62    63   ar
    56    57    58    1
    57    58    59   ar
    58    63    64    1
    59    63    61   ar
    60    59    61   ar
    61    13    14    1
    62    20    18   ar
    63    19    18   ar
    64    86    84   ar
    65    86    87   ar
    66    18    17    1
    67    84    81   ar
    68    87    85   ar
    69    14    17    1
    70    14    15    1
    71    78    79    1
    72    78    75    1
    73    81    79   ar
    74    81    83   ar
    75    79    80   ar
    76    85    83   ar
    77    83    82   ar
    78    74    75    1
    79    15    16    2
    80    75    76    1
    81    80    82   ar
    82   104   102    1
    83   103   102    1
    84   102   101    1
    85    76    77    2
    86    76    88   am
    87    88    89    1
    88   101    98    1
    89    98    97    1
    90    98    99    1
    91    91    90    2
    92    97    90   am
    93    90    89    1
    94    89    92    1
    95    99   100    2
    96    92    93    1
    97    93    94    1
    98    94    95    1
    99    95    96    1
