@<TRIPOS>MOLECULE
tmp/2yklA00.pdb
 110 110 0 0 0
SMALL
GASTEIGER

@<TRIPOS>ATOM
      1  N        -23.5330    8.6200    4.9690 N.3    26  ILE26      -0.1231
      2  CA       -22.4640    8.4530    3.9800 C.3    26  ILE26       0.1692
      3  C        -23.0940    8.4960    2.5980 C.2    26  ILE26       0.2592
      4  O        -24.1210    7.8630    2.3650 O.2    26  ILE26      -0.2718
      5  CB       -21.6580    7.1010    4.1090 C.3    26  ILE26       0.0266
      6  CG1      -21.4490    6.6910    5.5740 C.3    26  ILE26       0.0019
      7  CG2      -20.3090    7.1960    3.3490 C.3    26  ILE26       0.0020
      8  CD1      -20.6720    5.3750    5.7420 C.3    26  ILE26       0.0001
      9  N        -22.4630    9.2280    1.6840 N.am   27  TRP27      -0.1962
     10  CA       -23.0050    9.4240    0.3490 C.3    27  TRP27       0.1771
     11  C        -21.9500    9.1500   -0.6920 C.2    27  TRP27       0.2620
     12  O        -20.8210    9.6300   -0.5790 O.2    27  TRP27      -0.2715
     13  CB       -23.4950   10.8600    0.1790 C.3    27  TRP27       0.0590
     14  CG       -24.5080   11.2420    1.1880 C.ar   27  TRP27       0.0006
     15  CD1      -25.8610   11.0950    1.0870 C.ar   27  TRP27       0.0946
     16  CD2      -24.2560   11.8070    2.4770 C.ar   27  TRP27       0.0152
     17  NE1      -26.4720   11.5530    2.2360 N.ar   27  TRP27      -0.2442
     18  CE2      -25.5100   11.9950    3.1040 C.ar   27  TRP27       0.0810
     19  CE3      -23.0890   12.1870    3.1620 C.ar   27  TRP27       0.0012
     20  CZ2      -25.6350   12.5490    4.3870 C.ar   27  TRP27       0.0191
     21  CZ3      -23.2130   12.7420    4.4360 C.ar   27  TRP27       0.0001
     22  CH2      -24.4800   12.9150    5.0360 C.ar   27  TRP27       0.0015
     23  N        -22.3170    8.3860   -1.7130 N.am   28  GLY28      -0.1954
     24  CA       -21.3290    7.9740   -2.6830 C.3    28  GLY28       0.1869
     25  C        -21.8560    7.6930   -4.0650 C.2    28  GLY28       0.2309
     26  O        -23.0610    7.7210   -4.3150 O.2    28  GLY28      -0.2863
     27  N        -21.1760    5.0830   -7.4680 N.3    30  ILE30      -0.1245
     28  CA       -20.6070    3.8420   -7.9830 C.3    30  ILE30       0.1561
     29  C        -20.9790    3.7300   -9.4540 C.2    30  ILE30       0.2260
     30  O        -22.0630    4.1390   -9.8440 O.2    30  ILE30      -0.2867
     31  CB       -21.0760    2.6210   -7.1130 C.3    30  ILE30       0.0252
     32  CG1      -20.5170    2.8100   -5.6860 C.3    30  ILE30       0.0019
     33  CG2      -20.6470    1.2740   -7.7370 C.3    30  ILE30       0.0019
     34  CD1      -20.7720    1.7150   -4.7050 C.3    30  ILE30       0.0001
     35  N        -16.2860    1.6900   -7.5340 N.3    40  TRP40      -0.1241
     36  CA       -16.4120    2.8300   -6.6480 C.3    40  TRP40       0.1605
     37  C        -15.7590    4.0880   -7.2300 C.2    40  TRP40       0.2264
     38  O        -14.6160    4.0580   -7.6620 O.2    40  TRP40      -0.2867
     39  CB       -15.7570    2.4970   -5.3170 C.3    40  TRP40       0.0550
     40  CG       -15.7490    3.6180   -4.2820 C.ar   40  TRP40       0.0003
     41  CD1      -16.8330    4.1190   -3.5750 C.ar   40  TRP40       0.0946
     42  CD2      -14.5930    4.2840   -3.7630 C.ar   40  TRP40       0.0152
     43  NE1      -16.4080    5.0840   -2.6750 N.ar   40  TRP40      -0.2442
     44  CE2      -15.0420    5.1980   -2.7670 C.ar   40  TRP40       0.0810
     45  CE3      -13.2190    4.2060   -4.0450 C.ar   40  TRP40       0.0012
     46  CZ2      -14.1640    6.0420   -2.0840 C.ar   40  TRP40       0.0191
     47  CZ3      -12.3500    5.0310   -3.3570 C.ar   40  TRP40       0.0001
     48  CH2      -12.8210    5.9390   -2.3870 C.ar   40  TRP40       0.0015
     49  N        -16.7230    8.6580   -1.9950 N.3    43  SER43      -0.1217
     50  CA       -17.6490    8.7740   -0.8520 C.3    43  SER43       0.1889
     51  C        -17.3970   10.0380   -0.0480 C.2    43  SER43       0.2288
     52  O        -16.2460   10.4790    0.0870 O.2    43  SER43      -0.2866
     53  CB       -17.4990    7.5940    0.1140 C.3    43  SER43       0.2089
     54  OG       -17.8070    6.3710   -0.5150 O.3    43  SER43      -0.2183
     55  N        -18.4390   11.3680    3.9260 N.3    45  TYR45      -0.1241
     56  CA       -18.9340   11.0180    5.2510 C.3    45  TYR45       0.1605
     57  C        -19.6070   12.2200    5.9040 C.2    45  TYR45       0.2264
     58  O        -19.3920   13.3690    5.4960 O.2    45  TYR45      -0.2867
     59  CB       -17.8030   10.4390    6.1070 C.3    45  TYR45       0.0534
     60  CG       -17.4610    9.0380    5.6570 C.ar   45  TYR45      -0.0201
     61  CD1      -16.7310    8.8110    4.4840 C.ar   45  TYR45      -0.0009
     62  CD2      -17.9240    7.9330    6.3690 C.ar   45  TYR45      -0.0009
     63  CE1      -16.4400    7.5150    4.0570 C.ar   45  TYR45       0.0417
     64  CE2      -17.6420    6.6440    5.9600 C.ar   45  TYR45       0.0417
     65  CZ       -16.9220    6.4310    4.8040 C.ar   45  TYR45       0.1957
     66  OH       -16.6630    5.1320    4.4040 O.3    45  TYR45      -0.2866
     67  N        -25.4320    6.3510   -4.0310 N.3    89  VAL89      -0.1245
     68  CA       -25.6490    5.4130   -2.9340 C.3    89  VAL89       0.1561
     69  C        -25.6190    6.1820   -1.6160 C.2    89  VAL89       0.2260
     70  O        -24.7220    7.0120   -1.3830 O.2    89  VAL89      -0.2867
     71  CB       -24.5700    4.2900   -2.9240 C.3    89  VAL89       0.0252
     72  CG1      -24.8290    3.2910   -1.7760 C.3    89  VAL89       0.0019
     73  CG2      -24.5690    3.5470   -4.2560 C.3    89  VAL89       0.0019
     74  N        -25.8780    5.6080    2.5930 N.3    91  TRP91      -0.1241
     75  CA       -25.9090    4.7540    3.7950 C.3    91  TRP91       0.1605
     76  C        -26.7250    5.3880    4.9300 C.2    91  TRP91       0.2264
     77  O        -26.5060    6.5530    5.3030 O.2    91  TRP91      -0.2867
     78  CB       -24.4880    4.4230    4.2900 C.3    91  TRP91       0.0550
     79  CG       -24.4640    3.5880    5.5410 C.ar   91  TRP91       0.0003
     80  CD1      -24.3140    4.0420    6.8330 C.ar   91  TRP91       0.0946
     81  CD2      -24.6320    2.1640    5.6370 C.ar   91  TRP91       0.0152
     82  NE1      -24.3630    2.9890    7.7140 N.ar   91  TRP91      -0.2442
     83  CE2      -24.5640    1.8270    7.0130 C.ar   91  TRP91       0.0810
     84  CE3      -24.8430    1.1410    4.6980 C.ar   91  TRP91       0.0012
     85  CZ2      -24.6860    0.5040    7.4700 C.ar   91  TRP91       0.0191
     86  CZ3      -24.9660   -0.1740    5.1550 C.ar   91  TRP91       0.0001
     87  CH2      -24.8840   -0.4770    6.5270 C.ar   91  TRP91       0.0015
     88  N        -29.3120    0.7980    3.1520 N.3   102  GLU102     -0.1245
     89  CA       -28.5130    1.4760    2.1480 C.3   102  GLU102      0.1567
     90  C        -29.3250    1.5890    0.8680 C.2   102  GLU102      0.2260
     91  O        -29.7570    0.5870    0.2910 O.2   102  GLU102     -0.2867
     92  CB       -27.2020    0.7490    1.9010 C.3   102  GLU102      0.0388
     93  CG       -26.2970    1.4560    0.8810 C.3   102  GLU102      0.1160
     94  CD       -24.9910    0.7060    0.6640 C.2   102  GLU102      0.3649
     95  OE1      -24.9670   -0.2800   -0.0910 O.co2 102  GLU102     -0.2457
     96  OE2      -23.9790    1.1260    1.2330 O.co2 102  GLU102     -0.2457
     97  N        -30.0620    2.9010   -2.9960 N.3   104  TRP104     -0.1241
     98  CA       -29.3450    3.0420   -4.2290 C.3   104  TRP104      0.1605
     99  C        -30.2350    3.8040   -5.2030 C.2   104  TRP104      0.2264
    100  O        -31.4520    3.6370   -5.1930 O.2   104  TRP104     -0.2867
    101  CB       -28.9850    1.6560   -4.7740 C.3   104  TRP104      0.0550
    102  CG       -27.7760    1.0370   -4.1220 C.ar  104  TRP104      0.0003
    103  CD1      -27.6560    0.6200   -2.8190 C.ar  104  TRP104      0.0946
    104  CD2      -26.5220    0.7600   -4.7490 C.ar  104  TRP104      0.0152
    105  NE1      -26.3980    0.1090   -2.6000 N.ar  104  TRP104     -0.2442
    106  CE2      -25.6860    0.1690   -3.7720 C.ar  104  TRP104      0.0810
    107  CE3      -26.0280    0.9380   -6.0450 C.ar  104  TRP104      0.0012
    108  CZ2      -24.3730   -0.2120   -4.0450 C.ar  104  TRP104      0.0191
    109  CZ3      -24.7160    0.5490   -6.3280 C.ar  104  TRP104      0.0001
    110  CH2      -23.9080   -0.0380   -5.3330 C.ar  104  TRP104      0.0015
@<TRIPOS>BOND
     1    30    29    2
     2    29    28    1
     3    28    27    1
     4    28    31    1
     5    33    31    1
     6    38    37    2
     7    35    36    1
     8    37    36    1
     9    31    32    1
    10    36    39    1
    11   109   107   ar
    12   109   110   ar
    13   107   104   ar
    14    32    34    1
    15   110   108   ar
    16    39    40    1
    17    99   100    2
    18    99    98    1
    19   101    98    1
    20   101   102    1
    21   104   102   ar
    22   104   106   ar
    23    26    25    2
    24    40    42   ar
    25    40    41   ar
    26    73    71    1
    27    98    97    1
    28   102   103   ar
    29    25    24    1
    30    45    42   ar
    31    45    47   ar
    32   108   106   ar
    33    67    68    1
    34   106   105   ar
    35    42    44   ar
    36    41    43   ar
    37    47    48   ar
    38    68    71    1
    39    68    69    1
    40    71    72    1
    41   103   105   ar
    42    44    43   ar
    43    44    46   ar
    44    24    23    1
    45    48    46   ar
    46    49    50    1
    47    23    11   am
    48    69    70    2
    49    50    51    1
    50    50    53    1
    51    11    12    2
    52    11    10    1
    53    54    53    1
    54    95    94   ar
    55    51    52    2
    56    13    10    1
    57    13    14    1
    58    91    90    2
    59    10     9    1
    60    94    93    1
    61    94    96   ar
    62    90    89    1
    63    93    92    1
    64    15    14   ar
    65    15    17   ar
    66    14    16   ar
    67     9     3   am
    68    92    89    1
    69    89    88    1
    70    17    18   ar
    71     4     3    2
    72    16    18   ar
    73    16    19   ar
    74    74    75    1
    75     3     2    1
    76    18    20   ar
    77    19    21   ar
    78     7     5    1
    79    75    78    1
    80    75    76    1
    81    55    56    1
    82     2     5    1
    83     2     1    1
    84    63    61   ar
    85    63    65   ar
    86     5     6    1
    87    78    79    1
    88    20    22   ar
    89    66    65    1
    90    21    22   ar
    91    61    60   ar
    92    84    86   ar
    93    84    81   ar
    94    65    64   ar
    95    76    77    2
    96    86    87   ar
    97    56    57    1
    98    56    59    1
    99    58    57    2
   100    79    81   ar
   101    79    80   ar
   102     6     8    1
   103    81    83   ar
   104    60    59    1
   105    60    62   ar
   106    64    62   ar
   107    87    85   ar
   108    80    82   ar
   109    83    85   ar
   110    83    82   ar
