@<TRIPOS>MOLECULE
tmp/2yknA00.pdb
 141 137 0 0 0
SMALL
GASTEIGER

@<TRIPOS>ATOM
      1  N         47.2360   55.5200   20.9640 N.3    95  PRO95      -0.2116
      2  CA        48.0630   55.4610   19.7370 C.3    95  PRO95       0.1372
      3  C         49.5270   55.4820   20.1010 C.2    95  PRO95       0.2244
      4  O         49.8720   56.0380   21.1300 O.2    95  PRO95      -0.2868
      5  CB        47.8260   56.8170   19.0860 C.3    95  PRO95       0.0268
      6  CG        46.4570   57.2800   19.6710 C.3    95  PRO95       0.0207
      7  CD        46.4260   56.7470   21.0810 C.3    95  PRO95       0.0892
      8  N         52.8820   57.4210   18.7580 N.3    97  PRO97      -0.2116
      9  CA        53.1950   58.5620   17.9310 C.3    97  PRO97       0.1372
     10  C         53.8020   58.1870   16.6040 C.2    97  PRO97       0.2244
     11  O         53.5640   58.8800   15.6210 O.2    97  PRO97      -0.2868
     12  CB        54.2140   59.3370   18.7820 C.3    97  PRO97       0.0268
     13  CG        53.9260   59.0470   20.1140 C.3    97  PRO97       0.0207
     14  CD        53.3470   57.6230   20.1260 C.3    97  PRO97       0.0892
     15  N         51.4810   58.1980   13.5960 N.3   100  LEU100     -0.1231
     16  CA        50.8820   59.4250   13.0530 C.3   100  LEU100      0.1693
     17  C         51.5820   59.8320   11.7570 C.2   100  LEU100      0.2591
     18  O         52.7050   59.4180   11.5250 O.2   100  LEU100     -0.2718
     19  CB        51.0830   60.5020   14.1050 C.3   100  LEU100      0.0284
     20  CG        50.2170   60.5770   15.3800 C.3   100  LEU100      0.0019
     21  CD1       49.1260   59.5420   15.6620 C.3   100  LEU100      0.0001
     22  CD2       51.0260   60.9560   16.5550 C.3   100  LEU100      0.0001
     23  N         50.9190   60.6270   10.9250 N.am  101  LYS101     -0.1980
     24  CA        51.5110   61.1680    9.7540 C.3   101  LYS101      0.1596
     25  C         51.8690   62.6350   10.0210 C.2   101  LYS101      0.2287
     26  O         51.1610   63.3320   10.7840 O.2   101  LYS101     -0.2864
     27  CB        50.5160   61.0030    8.6050 C.3   101  LYS101      0.0298
     28  CG        49.8650   59.5540    8.6000 C.3   101  LYS101      0.0038
     29  CD        48.4690   59.4630    7.9580 C.3   101  LYS101      0.0206
     30  CE        47.8400   58.0830    8.0840 C.3   101  LYS101      0.1093
     31  NZ        46.8000   58.0620    9.1380 N.3   101  LYS101     -0.1314
     32  N         52.2350   66.5970   10.1140 N.3   103  LYS103     -0.1245
     33  CA        51.2480   67.6560    9.9100 C.3   103  LYS103      0.1561
     34  C         51.9680   69.0040    9.8300 C.2   103  LYS103      0.2260
     35  O         53.0830   69.1010   10.3080 O.2   103  LYS103     -0.2867
     36  CB        50.2310   67.6320   11.0710 C.3   103  LYS103      0.0271
     37  CG        49.2610   66.3500   11.0130 C.3   103  LYS103      0.0035
     38  CD        48.3080   66.5630    9.8130 C.3   103  LYS103      0.0206
     39  CE        47.5650   65.3400    9.2400 C.3   103  LYS103      0.1093
     40  NZ        48.2770   64.1320    9.4010 N.3   103  LYS103     -0.1314
     41  N         49.3790   71.4670   14.7870 N.3   106  VAL106     -0.1245
     42  CA        48.4980   70.7300   15.6680 C.3   106  VAL106      0.1561
     43  C         48.2050   71.6540   16.8070 C.2   106  VAL106      0.2260
     44  O         49.0450   72.4720   17.1840 O.2   106  VAL106     -0.2867
     45  CB        49.1080   69.3760   16.1490 C.3   106  VAL106      0.0252
     46  CG1       50.5730   69.4430   16.2310 C.3   106  VAL106      0.0019
     47  CG2       48.5000   68.8470   17.4910 C.3   106  VAL106      0.0019
     48  N         42.4730   65.9640   11.3200 N.3   179  VAL179     -0.1245
     49  CA        42.6050   64.7910   12.1480 C.3   179  VAL179      0.1561
     50  C         42.3040   65.2150   13.5530 C.2   179  VAL179      0.2260
     51  O         42.8550   66.1580   14.0220 O.2   179  VAL179     -0.2867
     52  CB        44.0240   64.1260   12.0800 C.3   179  VAL179      0.0252
     53  CG1       44.0360   62.8080   12.9430 C.3   179  VAL179      0.0019
     54  CG2       44.4230   63.7510   10.5790 C.3   179  VAL179      0.0019
     55  N         42.0900   63.7590   17.6010 N.3   181  TYR181     -0.1241
     56  CA        42.2620   62.7020   18.5790 C.3   181  TYR181      0.1605
     57  C         41.7370   63.1460   19.9320 C.2   181  TYR181      0.2264
     58  O         42.1210   64.1990   20.4460 O.2   181  TYR181     -0.2867
     59  CB        43.7620   62.2710   18.6940 C.3   181  TYR181      0.0534
     60  CG        43.9600   61.2930   19.8040 C.ar  181  TYR181     -0.0201
     61  CD1       43.4200   60.0170   19.7410 C.ar  181  TYR181     -0.0009
     62  CD2       44.7010   61.6480   20.9260 C.ar  181  TYR181     -0.0009
     63  CE1       43.5960   59.1040   20.7720 C.ar  181  TYR181      0.0417
     64  CE2       44.9110   60.7460   21.9630 C.ar  181  TYR181      0.0417
     65  CZ        44.3620   59.4900   21.8670 C.ar  181  TYR181      0.1957
     66  OH        44.5340   58.6760   22.9340 O.3   181  TYR181     -0.2866
     67  N         43.0990   66.8610   20.3500 N.3   188  TYR188     -0.1241
     68  CA        44.2980   67.2720   19.5980 C.3   188  TYR188      0.1605
     69  C         43.8420   67.4240   18.2100 C.2   188  TYR188      0.2264
     70  O         43.1000   66.5790   17.7240 O.2   188  TYR188     -0.2867
     71  CB        45.4080   66.2070   19.6280 C.3   188  TYR188      0.0534
     72  CG        46.0220   66.1040   20.9540 C.ar  188  TYR188     -0.0201
     73  CD1       45.4290   65.3660   21.9370 C.ar  188  TYR188     -0.0009
     74  CD2       47.1930   66.8140   21.2480 C.ar  188  TYR188     -0.0009
     75  CE1       45.9650   65.3500   23.1920 C.ar  188  TYR188      0.0417
     76  CE2       47.7580   66.7680   22.4830 C.ar  188  TYR188      0.0417
     77  CZ        47.1230   66.0620   23.4460 C.ar  188  TYR188      0.1957
     78  OH        47.6850   66.0080   24.6720 O.3   188  TYR188     -0.2866
     79  N         44.9940   68.1640   14.1580 N.3   190  GLY190     -0.1225
     80  CA        46.1080   68.3640   13.2290 C.3   190  GLY190      0.1811
     81  C         45.6430   68.6110   11.8200 C.2   190  GLY190      0.2280
     82  O         44.6600   68.0290   11.3960 O.2   190  GLY190     -0.2866
     83  N         53.9390   69.4950   22.5480 N.3   227  LEU227     -0.1245
     84  CA        52.8470   69.0060   23.3740 C.3   227  LEU227      0.1561
     85  C         53.3010   67.8070   24.1680 C.2   227  LEU227      0.2260
     86  O         53.9980   66.9290   23.6440 O.2   227  LEU227     -0.2867
     87  CB        51.5940   68.7370   22.5220 C.3   227  LEU227      0.0270
     88  CG        51.2020   69.9400   21.6540 C.3   227  LEU227      0.0019
     89  CD1       50.1530   69.6300   20.6410 C.3   227  LEU227      0.0001
     90  CD2       50.7770   71.1160   22.5590 C.3   227  LEU227      0.0001
     91  N         52.3250   64.5130   26.2170 N.3   229  TRP229     -0.1241
     92  CA        51.2610   63.5450   26.2860 C.3   229  TRP229      0.1605
     93  C         51.7280   62.1300   26.5920 C.2   229  TRP229      0.2264
     94  O         52.4780   61.5600   25.7940 O.2   229  TRP229     -0.2867
     95  CB        50.5170   63.5230   24.9690 C.3   229  TRP229      0.0550
     96  CG        49.4450   62.5090   24.9070 C.ar  229  TRP229      0.0003
     97  CD1       48.1580   62.6080   25.4580 C.ar  229  TRP229      0.0946
     98  CD2       49.4990   61.2500   24.2420 C.ar  229  TRP229      0.0152
     99  NE1       47.4270   61.4590   25.1640 N.ar  229  TRP229     -0.2442
    100  CE2       48.2140   60.6150   24.4180 C.ar  229  TRP229      0.0810
    101  CE3       50.4830   60.5900   23.5070 C.ar  229  TRP229      0.0012
    102  CZ2       47.9080   59.3650   23.8850 C.ar  229  TRP229      0.0191
    103  CZ3       50.1520   59.3090   22.9360 C.ar  229  TRP229      0.0001
    104  CH2       48.8810   58.7230   23.1440 C.ar  229  TRP229      0.0015
    105  N         55.3870   65.8580   21.5380 N.3   234  LEU234     -0.1231
    106  CA        54.9020   65.8220   20.1770 C.3   234  LEU234      0.1693
    107  C         55.0430   67.1560   19.4900 C.2   234  LEU234      0.2592
    108  O         54.6020   68.1670   20.0400 O.2   234  LEU234     -0.2718
    109  CB        53.4350   65.3860   20.1620 C.3   234  LEU234      0.0284
    110  CG        53.0980   64.1470   21.0370 C.3   234  LEU234      0.0019
    111  CD1       51.5840   63.9110   21.1370 C.3   234  LEU234      0.0001
    112  CD2       53.8110   62.8760   20.4840 C.3   234  LEU234      0.0001
    113  N         55.6210   67.1350   18.2720 N.am  235  HIS235     -0.1962
    114  CA        55.7070   68.2780   17.3890 C.3   235  HIS235      0.1772
    115  C         54.9100   67.8790   16.1790 C.2   235  HIS235      0.2462
    116  O         54.5890   66.6810   15.9630 O.2   235  HIS235     -0.2730
    117  CB        57.1610   68.5780   16.9460 C.3   235  HIS235      0.0785
    118  CG        58.0560   69.1010   18.0410 C.ar  235  HIS235      0.0821
    119  ND1       58.6450   68.2860   18.9840 N.ar  235  HIS235     -0.2267
    120  CD2       58.4820   70.3590   18.3260 C.ar  235  HIS235      0.1154
    121  CE1       59.3850   69.0120   19.8080 C.ar  235  HIS235      0.1986
    122  NE2       59.3000   70.2760   19.4370 N.ar  235  HIS235     -0.2212
    123  N         54.5190   68.8550   15.3750 N.am  236  PRO236     -0.2727
    124  CA        53.8030   68.3910   14.1510 C.3   236  PRO236      0.1402
    125  C         54.6650   67.5480   13.1680 C.2   236  PRO236      0.2269
    126  O         54.0820   66.8190   12.3050 O.2   236  PRO236     -0.2865
    127  CB        53.3460   69.6820   13.4800 C.3   236  PRO236      0.0296
    128  CG        53.8510   70.8680   14.3800 C.3   236  PRO236      0.0237
    129  CD        54.2800   70.2780   15.6990 C.3   236  PRO236      0.0939
    130  N         57.5590   60.7420   11.5260 N.3   318  TYR318     -0.1241
    131  CA        56.2740   60.2030   11.2850 C.3   318  TYR318      0.1605
    132  C         56.1810   59.3510   10.0310 C.2   318  TYR318      0.2264
    133  O         57.1170   59.2340    9.2220 O.2   318  TYR318     -0.2867
    134  CB        55.2230   61.3380   11.3130 C.3   318  TYR318      0.0534
    135  CG        55.0980   62.0000   12.6960 C.ar  318  TYR318     -0.0201
    136  CD1       54.7700   61.2610   13.7960 C.ar  318  TYR318     -0.0009
    137  CD2       55.2810   63.3930   12.8590 C.ar  318  TYR318     -0.0009
    138  CE1       54.6130   61.8550   15.0520 C.ar  318  TYR318      0.0417
    139  CE2       55.1560   63.9980   14.1220 C.ar  318  TYR318      0.0417
    140  CZ        54.7980   63.2200   15.2100 C.ar  318  TYR318      0.1957
    141  OH        54.6790   63.7600   16.4860 O.3   318  TYR318     -0.2866
@<TRIPOS>BOND
     1    29    30    1
     2    29    28    1
     3    30    31    1
     4    28    27    1
     5    27    24    1
     6   133   132    2
     7    39    40    1
     8    39    38    1
     9    24    25    1
    10    24    23    1
    11    38    37    1
    12    34    33    1
    13    34    35    2
    14    33    32    1
    15    33    36    1
    16    25    26    2
    17   132   131    1
    18    54    52    1
    19    23    17   am
    20    37    36    1
    21   131   134    1
    22   131   130    1
    23   134   135    1
    24    48    49    1
    25    82    81    2
    26    18    17    2
    27    17    16    1
    28    81    80    1
    29    52    49    1
    30    52    53    1
    31    49    50    1
    32   126   125    2
    33   135   137   ar
    34   135   136   ar
    35   137   139   ar
    36    16    15    1
    37    16    19    1
    38   125   124    1
    39    80    79    1
    40   127   124    1
    41   127   128    1
    42    50    51    2
    43   136   138   ar
    44    19    20    1
    45   139   140   ar
    46   124   123    1
    47   128   129    1
    48    41    42    1
    49   138   140   ar
    50   140   141    1
    51   123   129    1
    52   123   115   am
    53    20    21    1
    54    20    22    1
    55    11    10    2
    56    42    45    1
    57    42    43    1
    58   116   115    2
    59    45    46    1
    60    45    47    1
    61   115   114    1
    62    10     9    1
    63    43    44    2
    64   117   114    1
    65   117   118    1
    66   114   113    1
    67    55    56    1
    68    70    69    2
    69     9     8    1
    70     9    12    1
    71   118   120   ar
    72   118   119   ar
    73    69    68    1
    74   113   107   am
    75   120   122   ar
    76    56    59    1
    77    56    57    1
    78    59    60    1
    79     8    14    1
    80    12    13    1
    81   119   121   ar
    82     5     6    1
    83     5     2    1
    84   122   121   ar
    85   107   108    2
    86   107   106    1
    87    68    71    1
    88    68    67    1
    89    71    72    1
    90     6     7    1
    91     2     3    1
    92     2     1    1
    93    61    60   ar
    94    61    63   ar
    95    60    62   ar
    96    57    58    2
    97     3     4    2
    98    13    14    1
    99   109   106    1
   100   109   110    1
   101   106   105    1
   102   112   110    1
   103    89    88    1
   104    63    65   ar
   105    62    64   ar
   106    72    74   ar
   107    72    73   ar
   108     1     7    1
   109   110   111    1
   110    74    76   ar
   111    88    87    1
   112    88    90    1
   113    65    64   ar
   114    65    66    1
   115    73    75   ar
   116    76    77   ar
   117    87    84    1
   118    83    84    1
   119   103   104   ar
   120   103   101   ar
   121   104   102   ar
   122    75    77   ar
   123    84    85    1
   124    77    78    1
   125   101    98   ar
   126    86    85    2
   127   102   100   ar
   128    98   100   ar
   129    98    96   ar
   130   100    99   ar
   131    96    95    1
   132    96    97   ar
   133    95    92    1
   134    99    97   ar
   135    94    93    2
   136    91    92    1
   137    92    93    1
