@<TRIPOS>MOLECULE
tmp/2yktA00.pdb
 136 129 0 0 0
SMALL
GASTEIGER

@<TRIPOS>ATOM
      1  N         -7.1010  -22.3910   -0.4400 N.3    21  PHE21      -0.1227
      2  CA        -7.9810  -22.1480    0.6850 C.3    21  PHE21       0.1736
      3  C         -7.1630  -22.1130    1.9980 C.2    21  PHE21       0.2595
      4  O         -7.3130  -21.1940    2.7680 O.2    21  PHE21      -0.2718
      5  CB        -9.0680  -23.2100    0.8200 C.3    21  PHE21       0.0547
      6  CG        -9.9550  -23.0120    2.0840 C.ar   21  PHE21      -0.0202
      7  CD1      -11.0130  -22.1220    2.0710 C.ar   21  PHE21      -0.0042
      8  CD2       -9.6760  -23.6570    3.2660 C.ar   21  PHE21      -0.0042
      9  CE1      -11.8090  -21.8870    3.2530 C.ar   21  PHE21      -0.0003
     10  CE2      -10.4600  -23.4200    4.4580 C.ar   21  PHE21      -0.0003
     11  CZ       -11.4820  -22.5440    4.4340 C.ar   21  PHE21      -0.0000
     12  N         -6.4120  -23.1630    2.2560 N.am   22  ASN22      -0.1974
     13  CA        -5.7230  -23.2570    3.5240 C.3    22  ASN22       0.1688
     14  C         -4.6310  -22.2100    3.6650 C.2    22  ASN22       0.2292
     15  O         -4.5150  -21.6420    4.7320 O.2    22  ASN22      -0.2864
     16  CB        -5.2700  -24.7050    3.8790 C.3    22  ASN22       0.1181
     17  CG        -6.3980  -25.4910    4.5180 C.2    22  ASN22       0.2629
     18  OD1       -7.3140  -24.9060    5.0820 O.2    22  ASN22      -0.2716
     19  ND2       -6.3610  -26.8060    4.4230 N.am   22  ASN22      -0.0877
     20  N         -6.4970  -19.1290    4.4530 N.3    25  LEU25      -0.1245
     21  CA        -6.9780  -19.2270    5.7890 C.3    25  LEU25       0.1561
     22  C         -5.8300  -18.9060    6.7870 C.2    25  LEU25       0.2260
     23  O         -6.0910  -18.2400    7.7560 O.2    25  LEU25      -0.2867
     24  CB        -7.5670  -20.6150    6.0940 C.3    25  LEU25       0.0270
     25  CG        -8.1260  -20.8410    7.5160 C.3    25  LEU25       0.0019
     26  CD1       -9.1170  -19.7620    7.8430 C.3    25  LEU25       0.0001
     27  CD2       -8.8900  -22.1280    7.5660 C.3    25  LEU25       0.0001
     28  N        -10.1570  -21.8950   14.2830 N.3   102  LEU102     -0.1245
     29  CA        -9.6210  -21.9610   12.9040 C.3   102  LEU102      0.1561
     30  C         -8.2240  -22.5600   12.9300 C.2   102  LEU102      0.2260
     31  O         -7.9320  -23.4290   12.1330 O.2   102  LEU102     -0.2867
     32  CB        -9.6370  -20.6200   12.1790 C.3   102  LEU102      0.0270
     33  CG       -11.0680  -20.2080   11.8150 C.3   102  LEU102      0.0019
     34  CD1      -11.0590  -18.7860   11.2860 C.3   102  LEU102      0.0001
     35  CD2      -11.8320  -21.1140   10.7510 C.3   102  LEU102      0.0001
     36  N         -8.3540  -26.3520   13.3570 N.3   105  LYS105     -0.1231
     37  CA        -8.7110  -27.1330   12.2240 C.3   105  LYS105      0.1693
     38  C         -7.5990  -27.1240   11.1120 C.2   105  LYS105      0.2591
     39  O         -7.1770  -28.2000   10.6130 O.2   105  LYS105     -0.2718
     40  CB       -10.0970  -26.7420   11.7620 C.3   105  LYS105      0.0285
     41  CG       -11.1740  -27.2240   12.8150 C.3   105  LYS105      0.0035
     42  CD       -12.5600  -26.9950   12.2940 C.3   105  LYS105      0.0206
     43  CE       -13.5750  -27.1900   13.4280 C.3   105  LYS105      0.1093
     44  NZ       -13.5020  -28.4320   14.0700 N.3   105  LYS105     -0.1314
     45  N         -7.0590  -25.9310   10.8170 N.am  106  VAL106     -0.1980
     46  CA        -6.1480  -25.8250    9.7010 C.3   106  VAL106      0.1595
     47  C         -4.8570  -26.6460   10.0230 C.2   106  VAL106      0.2287
     48  O         -4.2430  -27.2440    9.1150 O.2   106  VAL106     -0.2864
     49  CB        -5.8960  -24.3580    9.3760 C.3   106  VAL106      0.0276
     50  CG1       -5.0250  -23.6810   10.4990 C.3   106  VAL106      0.0022
     51  CG2       -5.2570  -24.1770    8.0130 C.3   106  VAL106      0.0022
     52  N         -4.6560  -29.5910   11.5840 N.3   108  LEU108     -0.1231
     53  CA        -4.8310  -31.0180   11.3180 C.3   108  LEU108      0.1693
     54  C         -5.1220  -31.2880    9.8270 C.2   108  LEU108      0.2592
     55  O         -5.0370  -32.4060    9.3940 O.2   108  LEU108     -0.2718
     56  CB        -5.9500  -31.5860   12.2070 C.3   108  LEU108      0.0284
     57  CG        -5.6200  -31.5550   13.7140 C.3   108  LEU108      0.0019
     58  CD1       -6.9360  -31.6110   14.4560 C.3   108  LEU108      0.0001
     59  CD2       -4.6670  -32.7450   14.1440 C.3   108  LEU108      0.0001
     60  N         -5.4300  -30.2470    9.0600 N.am  109  ASP109     -0.1974
     61  CA        -6.0690  -30.4220    7.7410 C.3   109  ASP109      0.1709
     62  C         -5.0260  -30.7090    6.6750 C.2   109  ASP109      0.2293
     63  O         -5.3550  -31.2790    5.6240 O.2   109  ASP109     -0.2864
     64  CB        -6.8430  -29.1710    7.3810 C.3   109  ASP109      0.1436
     65  CG        -8.0750  -29.4340    6.5080 C.2   109  ASP109      0.3671
     66  OD1       -8.6370  -30.5280    6.5050 O.co2 109  ASP109     -0.2456
     67  OD2       -8.5170  -28.4970    5.8240 O.co2 109  ASP109     -0.2456
     68  N         -4.6290  -34.4320    6.8620 N.3   112  TYR112     -0.1241
     69  CA        -5.9170  -35.0130    6.4370 C.3   112  TYR112      0.1605
     70  C         -6.0810  -34.8870    4.8940 C.2   112  TYR112      0.2264
     71  O         -6.3400  -35.8750    4.2430 O.2   112  TYR112     -0.2867
     72  CB        -7.1330  -34.3590    7.1020 C.3   112  TYR112      0.0534
     73  CG        -8.4160  -34.8990    6.4820 C.ar  112  TYR112     -0.0201
     74  CD1       -8.8520  -36.2150    6.7480 C.ar  112  TYR112     -0.0009
     75  CD2       -9.1510  -34.1350    5.5890 C.ar  112  TYR112     -0.0009
     76  CE1      -10.0690  -36.7500    6.1470 C.ar  112  TYR112      0.0417
     77  CE2      -10.3360  -34.6430    4.9960 C.ar  112  TYR112      0.0417
     78  CZ       -10.7620  -35.9620    5.2650 C.ar  112  TYR112      0.1957
     79  OH       -11.9140  -36.4540    4.6490 O.3   112  TYR112     -0.2866
     80  N        -16.1680  -31.5270    1.0280 N.3   180  GLU180     -0.1245
     81  CA       -15.0070  -31.0680    1.7980 C.3   180  GLU180      0.1567
     82  C        -14.7600  -29.5230    1.6780 C.2   180  GLU180      0.2260
     83  O        -14.5320  -28.8290    2.6830 O.2   180  GLU180     -0.2867
     84  CB       -13.7490  -31.8390    1.4230 C.3   180  GLU180      0.0388
     85  CG       -13.8520  -33.3250    1.6520 C.3   180  GLU180      0.1160
     86  CD       -13.7970  -33.7140    3.1390 C.2   180  GLU180      0.3649
     87  OE1      -14.1150  -32.9110    4.0680 O.co2 180  GLU180     -0.2457
     88  OE2      -13.4440  -34.8800    3.3800 O.co2 180  GLU180     -0.2457
     89  N        -17.9310  -27.6500    3.4670 N.3   183  ARG183     -0.1231
     90  CA       -17.6640  -27.6900    4.8790 C.3   183  ARG183      0.1694
     91  C        -16.6730  -26.6320    5.3980 C.2   183  ARG183      0.2591
     92  O        -16.8540  -26.1310    6.5050 O.2   183  ARG183     -0.2718
     93  CB       -17.1150  -29.0840    5.3110 C.3   183  ARG183      0.0321
     94  CG       -18.0930  -30.2300    5.1660 C.3   183  ARG183      0.0489
     95  CD       -17.3650  -31.4740    5.6100 C.3   183  ARG183      0.2205
     96  NE       -18.2510  -32.6080    5.8360 N.pl3 183  ARG183     -0.0865
     97  CZ       -18.0130  -33.8160    5.3180 C.cat 183  ARG183      0.5346
     98  NH1      -16.9220  -34.0160    4.5340 N.pl3 183  ARG183      0.1354
     99  NH2      -18.8820  -34.8080    5.5270 N.pl3 183  ARG183      0.1354
    100  N        -15.5550  -26.4630    4.7130 N.am  184  ARG184     -0.1980
    101  CA       -14.5580  -25.4790    5.1710 C.3   184  ARG184      0.1597
    102  C        -15.0480  -24.0230    5.0130 C.2   184  ARG184      0.2287
    103  O        -14.8250  -23.1920    5.9180 O.2   184  ARG184     -0.2864
    104  CB       -13.2270  -25.7640    4.5170 C.3   184  ARG184      0.0334
    105  CG       -12.6840  -27.1030    4.9730 C.3   184  ARG184      0.0492
    106  CD       -11.7090  -27.7660    3.9440 C.3   184  ARG184      0.2205
    107  NE       -11.0810  -28.9170    4.5880 N.pl3 184  ARG184     -0.0865
    108  CZ       -11.7110  -30.0610    4.8960 C.cat 184  ARG184      0.5346
    109  NH1      -12.9820  -30.2130    4.5400 N.pl3 184  ARG184      0.1354
    110  NH2      -11.0540  -31.0720    5.5380 N.pl3 184  ARG184      0.1354
    111  N        -18.3420  -23.3090    5.0810 N.3   186  CYS186     -0.1221
    112  CA       -19.4340  -23.2240    6.0730 C.3   186  CYS186      0.1808
    113  C        -18.9160  -22.9080    7.4760 C.2   186  CYS186      0.2601
    114  O        -19.5680  -22.1300    8.2180 O.2   186  CYS186     -0.2717
    115  CB       -20.2230  -24.5310    6.1790 C.3   186  CYS186      0.0970
    116  SG       -21.3500  -24.6710    4.8490 S.3   186  CYS186     -0.0800
    117  N        -17.7940  -23.5300    7.8370 N.am  187  PHE187     -0.1976
    118  CA       -17.2740  -23.3910    9.2190 C.3   187  PHE187      0.1639
    119  C        -16.8150  -21.9820    9.4150 C.2   187  PHE187      0.2290
    120  O        -17.1140  -21.3880   10.4470 O.2   187  PHE187     -0.2864
    121  CB       -16.1450  -24.3660    9.5070 C.3   187  PHE187      0.0560
    122  CG       -15.6740  -24.3500   10.9550 C.ar  187  PHE187     -0.0200
    123  CD1      -16.4380  -24.9680   11.9540 C.ar  187  PHE187     -0.0042
    124  CD2      -14.4460  -23.7390   11.2980 C.ar  187  PHE187     -0.0042
    125  CE1      -15.9740  -24.9360   13.3110 C.ar  187  PHE187     -0.0003
    126  CE2      -13.9860  -23.6930   12.6330 C.ar  187  PHE187     -0.0003
    127  CZ       -14.7390  -24.2960   13.6240 C.ar  187  PHE187     -0.0000
    128  N        -19.9380  -19.7300    9.7740 N.3   190  GLU190     -0.1245
    129  CA       -20.3850  -19.9720   11.1480 C.3   190  GLU190      0.1567
    130  C        -19.5580  -19.2540   12.2000 C.2   190  GLU190      0.2260
    131  O        -20.1050  -18.6380   13.0890 O.2   190  GLU190     -0.2867
    132  CB       -20.4120  -21.5020   11.4210 C.3   190  GLU190      0.0388
    133  CG       -21.4780  -22.2480   10.5680 C.3   190  GLU190      0.1160
    134  CD       -21.3890  -23.8220   10.6110 C.2   190  GLU190      0.3649
    135  OE1      -20.6270  -24.3930   11.4980 O.co2 190  GLU190     -0.2457
    136  OE2      -22.1560  -24.4480    9.7860 O.co2 190  GLU190     -0.2457
@<TRIPOS>BOND
     1     1     2    1
     2     2     5    1
     3     2     3    1
     4     5     6    1
     5    80    81    1
     6    84    85    1
     7    84    81    1
     8    85    86    1
     9    82    81    1
    10    82    83    2
    11     3    12   am
    12     3     4    2
    13     7     6   ar
    14     7     9   ar
    15     6     8   ar
    16    12    13    1
    17    86    88   ar
    18    86    87   ar
    19     9    11   ar
    20     8    10   ar
    21    89    90    1
    22    13    14    1
    23    13    16    1
    24    14    15    2
    25    16    17    1
    26   106   107    1
    27   106   105    1
    28    71    70    2
    29    19    17   am
    30    11    10   ar
    31    20    21    1
    32   104   105    1
    33   104   101    1
    34    17    18    2
    35    98    97    1
    36   109   108    1
    37   107   108    2
    38    79    78    1
    39   100   101    1
    40   100    91   am
    41   116   115    1
    42    90    93    1
    43    90    91    1
    44    70    69    1
    45   108   110    1
    46    77    78   ar
    47    77    75   ar
    48   102   101    1
    49   102   103    2
    50   111   112    1
    51    94    93    1
    52    94    95    1
    53    78    76   ar
    54    97    99    1
    55    97    96    2
    56    91    92    2
    57    75    73   ar
    58    95    96    1
    59    63    62    2
    60    21    24    1
    61    21    22    1
    62    67    65   ar
    63   112   115    1
    64   112   113    1
    65    24    25    1
    66    76    74   ar
    67    69    68    1
    68    69    72    1
    69    73    74   ar
    70    73    72    1
    71    66    65   ar
    72    65    64    1
    73    62    61    1
    74    22    23    2
    75    64    61    1
    76   113   117   am
    77   113   114    2
    78    25    27    1
    79    25    26    1
    80    61    60    1
    81   117   118    1
    82    51    49    1
    83    60    54   am
    84    48    47    2
    85   118   119    1
    86   118   121    1
    87    49    46    1
    88    49    50    1
    89    55    54    2
    90   119   120    2
    91   121   122    1
    92    46    47    1
    93    46    45    1
    94   128   129    1
    95   136   134   ar
    96    54    53    1
    97   133   134    1
    98   133   132    1
    99   134   135   ar
   100    39    38    2
   101    35    33    1
   102    45    38   am
   103   122   124   ar
   104   122   123   ar
   105    38    37    1
   106   129   132    1
   107   129   130    1
   108    34    33    1
   109   124   126   ar
   110    53    52    1
   111    53    56    1
   112    40    37    1
   113    40    41    1
   114    33    32    1
   115   123   125   ar
   116    31    30    2
   117    32    29    1
   118   130   131    2
   119    56    57    1
   120    37    36    1
   121    42    41    1
   122    42    43    1
   123   126   127   ar
   124    29    30    1
   125    29    28    1
   126   125   127   ar
   127    43    44    1
   128    57    59    1
   129    57    58    1
