@<TRIPOS>MOLECULE
tmp/2ykuA00.pdb
 108 102 0 0 0
SMALL
GASTEIGER

@<TRIPOS>ATOM
      1  N         24.2960   82.3810   29.5080 N.3   132  SER132     -0.1202
      2  CA        23.6520   81.6060   30.5700 C.3   132  SER132      0.2020
      3  C         23.4580   82.4960   31.7870 C.2   132  SER132      0.2619
      4  O         24.1310   83.5190   31.9290 O.2   132  SER132     -0.2717
      5  CB        24.5430   80.4270   30.9840 C.3   132  SER132      0.2103
      6  OG        25.7670   80.9160   31.5230 O.3   132  SER132     -0.2182
      7  N         22.5560   82.0960   32.6800 N.am  133  GLY133     -0.1942
      8  CA        22.4180   82.7790   33.9690 C.3   133  GLY133      0.2014
      9  C         23.6640   82.5620   34.8160 C.2   133  GLY133      0.2639
     10  O         24.0250   83.4130   35.6220 O.2   133  GLY133     -0.2714
     11  N         24.3140   81.4130   34.6520 N.am  134  THR134     -0.1950
     12  CA        25.6110   81.1580   35.3160 C.3   134  THR134      0.1897
     13  C         26.6330   82.2540   35.0040 C.2   134  THR134      0.2313
     14  O         27.2450   82.8270   35.9230 O.2   134  THR134     -0.2863
     15  CB        26.1490   79.7510   34.9470 C.3   134  THR134      0.1794
     16  OG1       25.2740   78.7700   35.5120 O.3   134  THR134     -0.2208
     17  CG2       27.5780   79.5160   35.4580 C.3   134  THR134      0.0378
     18  N         25.5520   85.8460   36.5460 N.3   137  ASN137     -0.1240
     19  CA        25.8790   86.0350   37.9600 C.3   137  ASN137      0.1653
     20  C         27.3800   86.1170   38.2420 C.2   137  ASN137      0.2266
     21  O         27.8160   86.8990   39.0910 O.2   137  ASN137     -0.2867
     22  CB        25.1980   84.9680   38.8170 C.3   137  ASN137      0.1155
     23  CG        23.7040   85.2060   38.9410 C.2   137  ASN137      0.2627
     24  OD1       23.2750   86.2150   39.4830 O.2   137  ASN137     -0.2716
     25  ND2       22.9150   84.2800   38.4460 N.am  137  ASN137     -0.0877
     26  N         20.5100   79.6230   44.5370 N.3   160  TYR160     -0.1227
     27  CA        21.0980   79.0490   43.3370 C.3   160  TYR160      0.1736
     28  C         21.3740   80.1240   42.3150 C.2   160  TYR160      0.2595
     29  O         20.4610   80.8290   41.8880 O.2   160  TYR160     -0.2718
     30  CB        20.2100   77.9590   42.7330 C.3   160  TYR160      0.0548
     31  CG        20.8300   77.3620   41.4890 C.ar  160  TYR160     -0.0200
     32  CD1       21.9470   76.5310   41.5830 C.ar  160  TYR160     -0.0009
     33  CD2       20.3290   77.6550   40.2220 C.ar  160  TYR160     -0.0009
     34  CE1       22.5410   75.9880   40.4460 C.ar  160  TYR160      0.0417
     35  CE2       20.9130   77.1020   39.0680 C.ar  160  TYR160      0.0417
     36  CZ        22.0160   76.2740   39.1980 C.ar  160  TYR160      0.1957
     37  OH        22.6140   75.7230   38.0910 O.3   160  TYR160     -0.2866
     38  N         22.6370   80.2430   41.9200 N.am  161  HIS161     -0.1961
     39  CA        23.0500   81.3020   40.9940 C.3   161  HIS161      0.1787
     40  C         23.8440   80.7660   39.8040 C.2   161  HIS161      0.2620
     41  O         24.5610   81.5180   39.1250 O.2   161  HIS161     -0.2715
     42  CB        23.8100   82.3900   41.7510 C.3   161  HIS161      0.0785
     43  CG        23.0950   82.8560   42.9790 C.ar  161  HIS161      0.0821
     44  ND1       21.9330   83.5990   42.9270 N.ar  161  HIS161     -0.2267
     45  CD2       23.3410   82.6270   44.2920 C.ar  161  HIS161      0.1154
     46  CE1       21.5100   83.8270   44.1600 C.ar  161  HIS161      0.1986
     47  NE2       22.3470   83.2490   45.0060 N.ar  161  HIS161     -0.2212
     48  N         23.6920   79.4660   39.5470 N.am  162  GLY162     -0.1954
     49  CA        24.3040   78.8250   38.3950 C.3   162  GLY162      0.1869
     50  C         25.3380   77.7900   38.8000 C.2   162  GLY162      0.2309
     51  O         25.5510   77.5410   39.9960 O.2   162  GLY162     -0.2863
     52  N         18.2030   85.8870   45.3680 N.3   208  GLU208     -0.1245
     53  CA        16.9990   85.7170   44.5760 C.3   208  GLU208      0.1567
     54  C         15.8340   86.3090   45.3720 C.2   208  GLU208      0.2260
     55  O         15.7450   86.0820   46.5730 O.2   208  GLU208     -0.2867
     56  CB        16.7020   84.2350   44.3650 C.3   208  GLU208      0.0388
     57  CG        17.6880   83.4410   43.5180 C.3   208  GLU208      0.1160
     58  CD        17.5790   81.9600   43.8660 C.2   208  GLU208      0.3649
     59  OE1       18.2450   81.5440   44.8320 O.co2 208  GLU208     -0.2457
     60  OE2       16.7890   81.2390   43.2160 O.co2 208  GLU208     -0.2457
     61  N         15.1270   77.2980   42.4250 N.3   213  ALA213     -0.1245
     62  CA        15.5250   75.8960   42.5160 C.3   213  ALA213      0.1562
     63  C         15.4170   75.4110   43.9650 C.2   213  ALA213      0.2260
     64  O         15.1520   74.2320   44.2090 O.2   213  ALA213     -0.2867
     65  CB        16.9450   75.7190   41.9920 C.3   213  ALA213      0.0290
     66  N         19.2200   88.4060   41.7540 N.3   241  ASP241     -0.1239
     67  CA        19.2190   87.3670   40.7400 C.3   241  ASP241      0.1674
     68  C         17.7630   87.1040   40.3680 C.2   241  ASP241      0.2266
     69  O         17.0490   86.3900   41.0820 O.2   241  ASP241     -0.2867
     70  CB        19.9000   86.0950   41.2670 C.3   241  ASP241      0.1410
     71  CG        19.9340   84.9680   40.2370 C.2   241  ASP241      0.3668
     72  OD1       19.1740   85.0400   39.2490 O.co2 241  ASP241     -0.2456
     73  OD2       20.7110   83.9940   40.4260 O.co2 241  ASP241     -0.2456
     74  N         16.7920   85.6710   37.4880 N.3   243  VAL243     -0.1231
     75  CA        16.7440   84.6790   36.4020 C.3   243  VAL243      0.1692
     76  C         15.3670   83.9930   36.3240 C.2   243  VAL243      0.2591
     77  O         14.8150   83.8370   35.2280 O.2   243  VAL243     -0.2718
     78  CB        17.9200   83.6680   36.4680 C.3   243  VAL243      0.0266
     79  CG1       17.7020   82.4950   35.4920 C.3   243  VAL243      0.0020
     80  CG2       19.2450   84.3760   36.1340 C.3   243  VAL243      0.0020
     81  N         14.8110   83.6130   37.4760 N.am  244  MET244     -0.1979
     82  CA        13.4390   83.1020   37.5330 C.3   244  MET244      0.1605
     83  C         12.3820   84.1630   37.8310 C.2   244  MET244      0.2287
     84  O         11.3180   84.1650   37.2050 O.2   244  MET244     -0.2864
     85  CB        13.3140   81.9720   38.5670 C.3   244  MET244      0.0413
     86  CG        14.0610   80.6940   38.1910 C.3   244  MET244      0.0598
     87  SD        13.4410   79.3000   39.1600 S.3   244  MET244     -0.1393
     88  CE        14.3730   77.9490   38.4410 C.3   244  MET244      0.0692
     89  N         17.1900   82.3980   31.3580 N.3   268  LYS268     -0.1245
     90  CA        16.1290   81.4480   31.0170 C.3   268  LYS268      0.1561
     91  C         15.1850   81.9750   29.9010 C.2   268  LYS268      0.2260
     92  O         15.6500   82.0870   28.7700 O.2   268  LYS268     -0.2867
     93  CB        15.4770   80.9500   32.3170 C.3   268  LYS268      0.0271
     94  CG        16.4730   79.9990   33.0320 C.3   268  LYS268      0.0035
     95  CD        15.8000   79.2590   34.1830 C.3   268  LYS268      0.0206
     96  CE        16.7240   78.2220   34.8590 C.3   268  LYS268      0.1093
     97  NZ        17.2070   78.7810   36.1320 N.3   268  LYS268     -0.1314
     98  N         20.8800   82.0700   26.6860 N.3   276  PHE276     -0.1241
     99  CA        20.6970   83.4370   27.1540 C.3   276  PHE276      0.1605
    100  C         21.0410   83.6380   28.6200 C.2   276  PHE276      0.2264
    101  O         20.7180   82.8070   29.4680 O.2   276  PHE276     -0.2867
    102  CB        19.2380   83.8880   26.9400 C.3   276  PHE276      0.0534
    103  CG        18.9540   85.2530   27.4950 C.ar  276  PHE276     -0.0203
    104  CD1       19.3710   86.3910   26.8130 C.ar  276  PHE276     -0.0042
    105  CD2       18.3160   85.4000   28.7150 C.ar  276  PHE276     -0.0042
    106  CE1       19.1350   87.6570   27.3300 C.ar  276  PHE276     -0.0003
    107  CE2       18.0750   86.6680   29.2440 C.ar  276  PHE276     -0.0003
    108  CZ        18.4860   87.7970   28.5430 C.ar  276  PHE276     -0.0000
@<TRIPOS>BOND
     1    98    99    1
     2   104   106   ar
     3   104   103   ar
     4   102    99    1
     5   102   103    1
     6    99   100    1
     7   106   108   ar
     8   103   105   ar
     9   108   107   ar
    10   100   101    2
    11   105   107   ar
    12    92    91    2
    13     1     2    1
    14    91    90    1
    15     2     5    1
    16     2     3    1
    17     5     6    1
    18    90    89    1
    19    90    93    1
    20     3     4    2
    21     3     7   am
    22    93    94    1
    23     7     8    1
    24    94    95    1
    25     8     9    1
    26    95    96    1
    27    11     9   am
    28    11    12    1
    29     9    10    2
    30    96    97    1
    31    15    12    1
    32    15    17    1
    33    15    16    1
    34    13    12    1
    35    13    14    2
    36    77    76    2
    37    79    78    1
    38    80    78    1
    39    76    75    1
    40    76    81   am
    41    75    78    1
    42    75    74    1
    43    18    19    1
    44    84    83    2
    45    81    82    1
    46    82    83    1
    47    82    85    1
    48    19    20    1
    49    19    22    1
    50    37    36    1
    51    86    85    1
    52    86    87    1
    53    20    21    2
    54    49    50    1
    55    49    48    1
    56    88    87    1
    57    25    23   am
    58    50    51    2
    59    22    23    1
    60    23    24    2
    61    35    36   ar
    62    35    33   ar
    63    41    40    2
    64    36    34   ar
    65    72    71   ar
    66    48    40   am
    67    40    39    1
    68    33    31   ar
    69    71    73   ar
    70    71    70    1
    71    68    67    1
    72    68    69    2
    73    34    32   ar
    74    67    70    1
    75    67    66    1
    76    39    42    1
    77    39    38    1
    78    31    32   ar
    79    31    30    1
    80    42    43    1
    81    29    28    2
    82    38    28   am
    83    65    62    1
    84    28    27    1
    85    61    62    1
    86    62    63    1
    87    30    27    1
    88    44    43   ar
    89    44    46   ar
    90    43    45   ar
    91    60    58   ar
    92    27    26    1
    93    57    58    1
    94    57    56    1
    95    58    59   ar
    96    63    64    2
    97    46    47   ar
    98    45    47   ar
    99    56    53    1
   100    53    52    1
   101    53    54    1
   102    54    55    2
