@<TRIPOS>MOLECULE
tmp/2ykvB01.pdb
 139 131 0 0 0
SMALL
GASTEIGER

@<TRIPOS>ATOM
      1  N         29.9350   92.0070   23.2460 N.3    39  ARG39      -0.1245
      2  CA        30.9690   91.0150   22.9720 C.3    39  ARG39       0.1563
      3  C         32.2030   91.8500   22.6780 C.2    39  ARG39       0.2260
      4  O         32.3570   92.3920   21.5680 O.2    39  ARG39      -0.2867
      5  CB        30.5490   90.1540   21.7650 C.3    39  ARG39       0.0307
      6  CG        31.4320   88.9780   21.4400 C.3    39  ARG39       0.0489
      7  CD        30.8490   88.2510   20.2290 C.3    39  ARG39       0.2205
      8  NE        31.8090   87.3390   19.6150 N.pl3  39  ARG39      -0.0865
      9  CZ        31.6660   86.8070   18.4080 C.cat  39  ARG39       0.5346
     10  NH1       30.5950   87.1010   17.6800 N.pl3  39  ARG39       0.1354
     11  NH2       32.5930   85.9660   17.9300 N.pl3  39  ARG39       0.1354
     12  N         35.3180   91.7400   21.9090 N.3    41  ILE41      -0.1245
     13  CA        36.2080   91.5220   20.7690 C.3    41  ILE41       0.1561
     14  C         35.6930   92.1590   19.4660 C.2    41  ILE41       0.2260
     15  O         36.4830   92.4930   18.5660 O.2    41  ILE41      -0.2867
     16  CB        36.4520   89.9930   20.5830 C.3    41  ILE41       0.0252
     17  CG1       37.7570   89.7170   19.8460 C.3    41  ILE41       0.0019
     18  CG2       35.2760   89.3090   19.8880 C.3    41  ILE41       0.0019
     19  CD1       38.1330   88.2250   19.8810 C.3    41  ILE41       0.0001
     20  N         35.4870   84.0550   14.4840 N.3    74  TYR74      -0.1241
     21  CA        36.6530   83.6420   15.2950 C.3    74  TYR74       0.1605
     22  C         36.7620   82.1240   15.3950 C.2    74  TYR74       0.2264
     23  O         36.8770   81.5670   16.4910 O.2    74  TYR74      -0.2867
     24  CB        36.6300   84.3030   16.6780 C.3    74  TYR74       0.0534
     25  CG        36.9990   85.7590   16.6050 C.ar   74  TYR74      -0.0201
     26  CD1       38.3320   86.1490   16.5790 C.ar   74  TYR74      -0.0009
     27  CD2       36.0200   86.7390   16.5050 C.ar   74  TYR74      -0.0009
     28  CE1       38.6840   87.4810   16.4840 C.ar   74  TYR74       0.0417
     29  CE2       36.3570   88.0730   16.4110 C.ar   74  TYR74       0.0417
     30  CZ        37.6940   88.4360   16.3950 C.ar   74  TYR74       0.1957
     31  OH        38.0470   89.7490   16.2950 O.3    74  TYR74      -0.2866
     32  N         29.1460   76.9830   25.7520 N.3   129  SER129     -0.1202
     33  CA        30.2510   77.8520   25.3110 C.3   129  SER129      0.2020
     34  C         31.5730   77.2200   25.6700 C.2   129  SER129      0.2619
     35  O         31.6200   76.3680   26.5610 O.2   129  SER129     -0.2717
     36  CB        30.1900   79.2150   26.0270 C.3   129  SER129      0.2103
     37  OG        30.3360   79.0800   27.4440 O.3   129  SER129     -0.2182
     38  N         32.6500   77.6750   25.0350 N.am  130  GLY130     -0.1942
     39  CA        34.0210   77.3020   25.4660 C.3   130  GLY130      0.2014
     40  C         34.3540   77.7720   26.8710 C.2   130  GLY130      0.2639
     41  O         35.0950   77.1060   27.5980 O.2   130  GLY130     -0.2714
     42  N         33.8100   78.9310   27.2570 N.am  131  THR131     -0.1950
     43  CA        33.9960   79.4960   28.6090 C.3   131  THR131      0.1897
     44  C         33.4970   78.5040   29.6510 C.2   131  THR131      0.2313
     45  O         34.2150   78.1670   30.5950 O.2   131  THR131     -0.2863
     46  CB        33.2350   80.8520   28.7350 C.3   131  THR131      0.1794
     47  OG1       33.8850   81.8160   27.9050 O.3   131  THR131     -0.2208
     48  CG2       33.2100   81.3670   30.1910 C.3   131  THR131      0.0378
     49  N         35.7640   75.1620   29.6980 N.3   134  ASN134     -0.1240
     50  CA        36.9690   75.3580   30.5020 C.3   134  ASN134      0.1653
     51  C         36.7280   75.5140   32.0140 C.2   134  ASN134      0.2266
     52  O         37.5270   75.0250   32.8430 O.2   134  ASN134     -0.2867
     53  CB        37.7960   76.5350   29.9440 C.3   134  ASN134      0.1155
     54  CG        38.5150   76.1750   28.6280 C.2   134  ASN134      0.2627
     55  OD1       39.3220   75.2440   28.5790 O.2   134  ASN134     -0.2716
     56  ND2       38.2120   76.9070   27.5660 N.am  134  ASN134     -0.0877
     57  N         43.9640   82.3850   26.4000 N.3   157  TYR157     -0.1227
     58  CA        42.5910   82.8690   26.4990 C.3   157  TYR157      0.1736
     59  C         41.6830   81.6690   26.5460 C.2   157  TYR157      0.2595
     60  O         41.6550   80.8770   25.6030 O.2   157  TYR157     -0.2718
     61  CB        42.2020   83.7730   25.3130 C.3   157  TYR157      0.0548
     62  CG        40.7800   84.2820   25.4840 C.ar  157  TYR157     -0.0200
     63  CD1       40.5110   85.3510   26.3470 C.ar  157  TYR157     -0.0009
     64  CD2       39.7110   83.6460   24.8580 C.ar  157  TYR157     -0.0009
     65  CE1       39.2050   85.8100   26.5530 C.ar  157  TYR157      0.0417
     66  CE2       38.3760   84.0930   25.0670 C.ar  157  TYR157      0.0417
     67  CZ        38.1530   85.1810   25.9230 C.ar  157  TYR157      0.1957
     68  OH        36.8710   85.6270   26.1530 O.3   157  TYR157     -0.2866
     69  N         40.9370   81.5380   27.6420 N.am  158  HIS158     -0.1961
     70  CA        40.0980   80.3600   27.8700 C.3   158  HIS158      0.1787
     71  C         38.6440   80.7360   28.1340 C.2   158  HIS158      0.2620
     72  O         37.8590   79.9310   28.6430 O.2   158  HIS158     -0.2715
     73  CB        40.6930   79.5390   29.0160 C.3   158  HIS158      0.0785
     74  CG        42.1540   79.2740   28.8290 C.ar  158  HIS158      0.0821
     75  ND1       42.6340   78.3860   27.8850 N.ar  158  HIS158     -0.2267
     76  CD2       43.2410   79.7990   29.4420 C.ar  158  HIS158      0.1154
     77  CE1       43.9550   78.3780   27.9270 C.ar  158  HIS158      0.1986
     78  NE2       44.3490   79.2190   28.8680 N.ar  158  HIS158     -0.2212
     79  N         38.2940   81.9730   27.7920 N.am  159  GLY159     -0.1954
     80  CA        36.8970   82.4060   27.8890 C.3   159  GLY159      0.1869
     81  C         36.7160   83.5990   28.8100 C.2   159  GLY159      0.2309
     82  O         37.6950   84.1410   29.3560 O.2   159  GLY159     -0.2863
     83  N         46.4180   76.0560   25.6470 N.3   205  GLU205     -0.1245
     84  CA        46.0570   75.9340   24.2230 C.3   205  GLU205      0.1567
     85  C         47.2490   75.3410   23.4550 C.2   205  GLU205      0.2260
     86  O         48.3800   75.7660   23.6840 O.2   205  GLU205     -0.2867
     87  CB        45.7690   77.3200   23.6330 C.3   205  GLU205      0.0388
     88  CG        44.5600   78.0620   24.2150 C.3   205  GLU205      0.1160
     89  CD        44.6880   79.5550   23.9540 C.2   205  GLU205      0.3649
     90  OE1       44.2490   80.0240   22.8740 O.co2 205  GLU205     -0.2457
     91  OE2       45.2570   80.2570   24.8110 O.co2 205  GLU205     -0.2457
     92  N         43.4000   83.5780   20.3870 N.3   210  ALA210     -0.1245
     93  CA        43.2650   85.0190   20.6280 C.3   210  ALA210      0.1562
     94  C         44.6290   85.6900   20.8800 C.2   210  ALA210      0.2260
     95  O         44.8470   86.8580   20.5000 O.2   210  ALA210     -0.2867
     96  CB        42.2980   85.2780   21.8120 C.3   210  ALA210      0.0290
     97  N         43.1450   73.0260   25.9120 N.3   238  ASP238     -0.1239
     98  CA        42.0020   73.8180   25.4540 C.3   238  ASP238      0.1674
     99  C         42.0620   73.8250   23.9430 C.2   238  ASP238      0.2266
    100  O         42.8410   74.5900   23.3670 O.2   238  ASP238     -0.2867
    101  CB        42.1230   75.2460   25.9950 C.3   238  ASP238      0.1410
    102  CG        40.9950   76.1710   25.5020 C.2   238  ASP238      0.3668
    103  OD1       40.3050   75.8310   24.5310 O.co2 238  ASP238     -0.2456
    104  OD2       40.8110   77.2510   26.0990 O.co2 238  ASP238     -0.2456
    105  N         39.4970   74.5510   21.9840 N.3   240  VAL240     -0.1231
    106  CA        38.2710   75.2290   21.5340 C.3   240  VAL240      0.1692
    107  C         38.4870   75.7860   20.1140 C.2   240  VAL240      0.2591
    108  O         37.5990   75.7000   19.2660 O.2   240  VAL240     -0.2718
    109  CB        37.8280   76.3060   22.5610 C.3   240  VAL240      0.0266
    110  CG1       36.8450   77.3390   21.9570 C.3   240  VAL240      0.0020
    111  CG2       37.2170   75.5930   23.7860 C.3   240  VAL240      0.0020
    112  N         39.6830   76.3130   19.8620 N.am  241  MET241     -0.1979
    113  CA        40.0730   76.7010   18.5190 C.3   241  MET241      0.1605
    114  C         40.7950   75.5780   17.7520 C.2   241  MET241      0.2287
    115  O         40.4790   75.3180   16.5790 O.2   241  MET241     -0.2864
    116  CB        40.9500   77.9300   18.5780 C.3   241  MET241      0.0413
    117  CG        41.3230   78.4560   17.2080 C.3   241  MET241      0.0598
    118  SD        42.1950   80.0130   17.3100 S.3   241  MET241     -0.1393
    119  CE        41.0920   80.8830   18.3840 C.3   241  MET241      0.0692
    120  N         33.4180   76.4280   19.4890 N.3   265  LYS265     -0.1245
    121  CA        33.4370   77.0150   18.1590 C.3   265  LYS265      0.1561
    122  C         32.5570   76.2660   17.1490 C.2   265  LYS265      0.2260
    123  O         31.3200   76.2350   17.2980 O.2   265  LYS265     -0.2867
    124  CB        34.8920   77.2330   17.6740 C.3   265  LYS265      0.0271
    125  CG        35.7260   78.1610   18.5820 C.3   265  LYS265      0.0035
    126  CD        35.2030   79.6080   18.5350 C.3   265  LYS265      0.0206
    127  CE        36.1230   80.5600   19.3130 C.3   265  LYS265      0.1093
    128  NZ        35.6380   81.9780   19.2260 N.3   265  LYS265     -0.1314
    129  N         27.5950   76.3970   21.5240 N.3   273  PHE273     -0.1241
    130  CA        28.2730   75.1470   21.8040 C.3   273  PHE273      0.1605
    131  C         29.5530   75.2630   22.6440 C.2   273  PHE273      0.2264
    132  O         30.3870   76.1430   22.4370 O.2   273  PHE273     -0.2867
    133  CB        28.6070   74.4110   20.4860 C.3   273  PHE273      0.0534
    134  CG        29.4160   73.1610   20.7010 C.ar  273  PHE273     -0.0203
    135  CD1       28.7900   71.9750   21.0800 C.ar  273  PHE273     -0.0042
    136  CD2       30.8060   73.1910   20.5700 C.ar  273  PHE273     -0.0042
    137  CE1       29.5600   70.8020   21.3160 C.ar  273  PHE273     -0.0003
    138  CE2       31.5820   72.0440   20.8180 C.ar  273  PHE273     -0.0003
    139  CZ        30.9580   70.8500   21.1770 C.ar  273  PHE273     -0.0000
@<TRIPOS>BOND
     1    20    21    1
     2    21    22    1
     3    21    24    1
     4    22    23    2
     5    31    30    1
     6    30    29   ar
     7    30    28   ar
     8    29    27   ar
     9    28    26   ar
    10    27    25   ar
    11   115   114    2
    12    26    25   ar
    13    25    24    1
    14   122   123    2
    15   122   121    1
    16   117   118    1
    17   117   116    1
    18   118   119    1
    19   124   121    1
    20   124   125    1
    21    10     9    1
    22   114   113    1
    23    11     9    1
    24   121   120    1
    25     9     8    2
    26   113   116    1
    27   113   112    1
    28   126   125    1
    29   126   127    1
    30    15    14    2
    31   128   127    1
    32   108   107    2
    33    14    13    1
    34     8     7    1
    35    17    19    1
    36    17    16    1
    37   112   107   am
    38    18    16    1
    39   107   106    1
    40     7     6    1
    41    92    93    1
    42   133   134    1
    43   133   130    1
    44    95    94    2
    45   136   134   ar
    46   136   138   ar
    47    16    13    1
    48    93    94    1
    49    93    96    1
    50   134   135   ar
    51    13    12    1
    52   138   139   ar
    53   135   137   ar
    54   139   137   ar
    55     6     5    1
    56   129   130    1
    57   106   105    1
    58   106   109    1
    59     4     3    2
    60     5     2    1
    61   130   131    1
    62   110   109    1
    63   132   131    2
    64   109   111    1
    65     3     2    1
    66    90    89   ar
    67     2     1    1
    68   100    99    2
    69    85    86    2
    70    85    84    1
    71    87    88    1
    72    87    84    1
    73    99    98    1
    74    89    88    1
    75    89    91   ar
    76    84    83    1
    77   103   102   ar
    78    64    66   ar
    79    64    62   ar
    80    38    39    1
    81    38    34   am
    82    66    67   ar
    83    33    34    1
    84    33    32    1
    85    33    36    1
    86    61    62    1
    87    61    58    1
    88    98    97    1
    89    98   101    1
    90    39    40    1
    91    62    63   ar
    92   102   101    1
    93   102   104   ar
    94    60    59    2
    95    34    35    2
    96    67    68    1
    97    67    65   ar
    98    36    37    1
    99    63    65   ar
   100    57    58    1
   101    58    59    1
   102    59    69   am
   103    40    42   am
   104    40    41    2
   105    42    43    1
   106    56    54   am
   107    69    70    1
   108    79    80    1
   109    79    71   am
   110    70    71    1
   111    70    73    1
   112    75    77   ar
   113    75    74   ar
   114    80    81    1
   115    47    46    1
   116    77    78   ar
   117    71    72    2
   118    55    54    2
   119    43    46    1
   120    43    44    1
   121    54    53    1
   122    46    48    1
   123    81    82    2
   124    74    73    1
   125    74    76   ar
   126    78    76   ar
   127    44    45    2
   128    49    50    1
   129    53    50    1
   130    50    51    1
   131    51    52    2
