@<TRIPOS>MOLECULE
tmp/2ykyA02.pdb
 84 80 0 0 0
SMALL
GASTEIGER

@<TRIPOS>ATOM
      1  N         14.9280   86.3870   44.3500 N.3   208  PRO208     -0.2102
      2  CA        13.7260   86.8850   45.0520 C.3   208  PRO208      0.1504
      3  C         12.7480   85.7770   45.4520 C.2   208  PRO208      0.2575
      4  O         11.8120   86.0230   46.2130 O.2   208  PRO208     -0.2718
      5  CB        13.0870   87.8240   44.0220 C.3   208  PRO208      0.0282
      6  CG        14.2520   88.3040   43.1980 C.3   208  PRO208      0.0208
      7  CD        15.0930   87.0420   43.0410 C.3   208  PRO208      0.0893
      8  N         12.9690   84.5740   44.9240 N.am  209  MET209     -0.1980
      9  CA        12.2390   83.3650   45.3050 C.3   209  MET209      0.1605
     10  C         13.2010   82.2250   45.0110 C.2   209  MET209      0.2287
     11  O         13.7100   82.1330   43.8890 O.2   209  MET209     -0.2864
     12  CB        10.9640   83.2010   44.4620 C.3   209  MET209      0.0413
     13  CG        10.1950   81.8980   44.7330 C.3   209  MET209      0.0598
     14  SD         9.0680   81.3690   43.4090 S.3   209  MET209     -0.1393
     15  CE        10.2430   80.8220   42.1590 C.3   209  MET209      0.0692
     16  N          9.1810   81.8740   48.2260 N.3   217  PRO217     -0.2102
     17  CA         9.2740   83.3330   48.0790 C.3   217  PRO217      0.1504
     18  C         10.0790   84.0050   49.1880 C.2   217  PRO217      0.2576
     19  O          9.9940   83.5970   50.3550 O.2   217  PRO217     -0.2718
     20  CB         7.8040   83.7900   48.1420 C.3   217  PRO217      0.0282
     21  CG         7.0040   82.5750   47.7850 C.3   217  PRO217      0.0208
     22  CD         7.7830   81.4240   48.3620 C.3   217  PRO217      0.0893
     23  N         10.8440   85.0340   48.8300 N.am  218  ALA218     -0.1966
     24  CA        11.4810   85.8820   49.8370 C.3   218  ALA218      0.1728
     25  C         10.4180   86.7330   50.5050 C.2   218  ALA218      0.2616
     26  O          9.4620   87.1660   49.8590 O.2   218  ALA218     -0.2715
     27  CB        12.5480   86.7710   49.2290 C.3   218  ALA218      0.0334
     28  N         10.5990   86.9680   51.7980 N.am  219  GLU219     -0.1963
     29  CA         9.7310   87.8600   52.5570 C.3   219  GLU219      0.1733
     30  C         10.2450   89.2860   52.4330 C.2   219  GLU219      0.2616
     31  O         11.4580   89.5090   52.3210 O.2   219  GLU219     -0.2715
     32  CB         9.6750   87.4100   54.0200 C.3   219  GLU219      0.0429
     33  CG         8.9500   86.0740   54.1650 C.3   219  GLU219      0.1163
     34  CD         9.0690   85.4430   55.5400 C.2   219  GLU219      0.3649
     35  OE1        9.8970   85.8940   56.3580 O.co2 219  GLU219     -0.2457
     36  OE2        8.3270   84.4710   55.7890 O.co2 219  GLU219     -0.2457
     37  N          9.3240   90.2530   52.4490 N.am  220  ARG220     -0.1977
     38  CA         9.7020   91.6570   52.2920 C.3   220  ARG220      0.1597
     39  C         10.7430   92.1240   53.3120 C.2   220  ARG220      0.2287
     40  O         11.6780   92.8360   52.9490 O.2   220  ARG220     -0.2864
     41  CB         8.4780   92.5870   52.3200 C.3   220  ARG220      0.0334
     42  CG         8.8390   94.0310   51.9380 C.3   220  ARG220      0.0492
     43  CD         7.6170   94.9330   51.8550 C.3   220  ARG220      0.2205
     44  NE         6.7310   94.5320   50.7670 N.pl3 220  ARG220     -0.0865
     45  CZ         6.8710   94.9150   49.4970 C.cat 220  ARG220      0.5346
     46  NH1        7.8610   95.7300   49.1370 N.pl3 220  ARG220      0.1354
     47  NH2        6.0090   94.4830   48.5850 N.pl3 220  ARG220      0.1354
     48  N          7.7620   86.8930   36.4160 N.3   247  LEU247     -0.1245
     49  CA         6.6030   87.0250   37.3220 C.3   247  LEU247      0.1561
     50  C          5.7430   88.2650   37.0610 C.2   247  LEU247      0.2260
     51  O          4.5420   88.2750   37.3590 O.2   247  LEU247     -0.2867
     52  CB         7.0350   86.9370   38.7820 C.3   247  LEU247      0.0270
     53  CG         7.5710   85.5640   39.1890 C.3   247  LEU247      0.0019
     54  CD1        8.1520   85.6230   40.6030 C.3   247  LEU247      0.0001
     55  CD2        6.5050   84.4780   39.0580 C.3   247  LEU247      0.0001
     56  N         10.4310   90.4500   39.5880 N.3   252  ALA252     -0.1245
     57  CA        10.1380   90.6180   41.0160 C.3   252  ALA252      0.1562
     58  C         10.3460   92.0590   41.4680 C.2   252  ALA252      0.2260
     59  O          9.6300   92.5450   42.3390 O.2   252  ALA252     -0.2867
     60  CB        10.9850   89.6790   41.8550 C.3   252  ALA252      0.0290
     61  N          7.2910   94.1170   41.0530 N.3   255  MET255     -0.1230
     62  CA         6.2660   93.6860   42.0130 C.3   255  MET255      0.1702
     63  C          6.5380   94.2490   43.4030 C.2   255  MET255      0.2592
     64  O          5.6130   94.6750   44.1060 O.2   255  MET255     -0.2718
     65  CB         6.1990   92.1600   42.0780 C.3   255  MET255      0.0401
     66  CG         5.7520   91.5140   40.7810 C.3   255  MET255      0.0596
     67  SD         6.1310   89.7550   40.7080 S.3   255  MET255     -0.1393
     68  CE         4.7870   89.0650   41.6780 C.3   255  MET255      0.0692
     69  N          7.8150   94.2640   43.7770 N.am  256  LEU256     -0.1980
     70  CA         8.2440   94.6310   45.1290 C.3   256  LEU256      0.1596
     71  C          8.4440   96.1170   45.3450 C.2   256  LEU256      0.2287
     72  O          8.3410   96.5980   46.4740 O.2   256  LEU256     -0.2864
     73  CB         9.5700   93.9360   45.4560 C.3   256  LEU256      0.0297
     74  CG         9.5220   92.4180   45.6450 C.3   256  LEU256      0.0022
     75  CD1       10.9070   91.8530   45.4020 C.3   256  LEU256      0.0001
     76  CD2        9.0190   92.0520   47.0380 C.3   256  LEU256      0.0001
     77  N          5.0610   81.5560   43.2610 N.3   355  LEU355     -0.1245
     78  CA         4.5420   82.8540   42.8430 C.3   355  LEU355      0.1561
     79  C          4.1420   82.7480   41.3920 C.2   355  LEU355      0.2260
     80  O          4.8150   82.0630   40.6120 O.2   355  LEU355     -0.2867
     81  CB         5.6320   83.9240   42.9630 C.3   355  LEU355      0.0270
     82  CG         6.2040   84.2100   44.3570 C.3   355  LEU355      0.0019
     83  CD1        7.4660   85.0280   44.2450 C.3   355  LEU355      0.0001
     84  CD2        5.1800   84.9110   45.2510 C.3   355  LEU355      0.0001
@<TRIPOS>BOND
     1    48    49    1
     2    50    49    1
     3    50    51    2
     4    49    52    1
     5    52    53    1
     6    55    53    1
     7    53    54    1
     8    56    57    1
     9    80    79    2
    10    67    66    1
    11    67    68    1
    12    66    65    1
    13    57    58    1
    14    57    60    1
    15    61    62    1
    16    79    78    1
    17    58    59    2
    18    62    65    1
    19    62    63    1
    20    15    14    1
    21    78    81    1
    22    78    77    1
    23    81    82    1
    24     7     6    1
    25     7     1    1
    26     6     5    1
    27    63    69   am
    28    63    64    2
    29    14    13    1
    30    69    70    1
    31    11    10    2
    32     5     2    1
    33    83    82    1
    34     1     2    1
    35    82    84    1
    36    12    13    1
    37    12     9    1
    38     8     9    1
    39     8     3   am
    40    10     9    1
    41     2     3    1
    42    70    71    1
    43    70    73    1
    44    71    72    2
    45    75    74    1
    46     3     4    2
    47    73    74    1
    48    74    76    1
    49    21    20    1
    50    21    22    1
    51    17    20    1
    52    17    16    1
    53    17    18    1
    54    16    22    1
    55    47    45    1
    56    23    18   am
    57    23    24    1
    58    46    45    1
    59    18    19    2
    60    27    24    1
    61    45    44    2
    62    24    25    1
    63    26    25    2
    64    25    28   am
    65    44    43    1
    66    28    29    1
    67    43    42    1
    68    42    41    1
    69    38    41    1
    70    38    37    1
    71    38    39    1
    72    31    30    2
    73    30    37   am
    74    30    29    1
    75    29    32    1
    76    40    39    2
    77    32    33    1
    78    33    34    1
    79    34    36   ar
    80    34    35   ar
