@<TRIPOS>MOLECULE
tmp/2yl8A02.pdb
 188 185 0 0 0
SMALL
GASTEIGER

@<TRIPOS>ATOM
      1  N          6.0510   33.0000   25.4990 N.3    16  ARG16      -0.1245
      2  CA         5.8970   32.6620   26.9030 C.3    16  ARG16       0.1563
      3  C          5.1840   33.7830   27.6270 C.2    16  ARG16       0.2260
      4  O          4.4360   33.5460   28.5620 O.2    16  ARG16      -0.2867
      5  CB         7.2600   32.4470   27.5360 C.3    16  ARG16       0.0307
      6  CG         7.9150   31.1060   27.1070 C.3    16  ARG16       0.0489
      7  CD         9.1520   30.8440   27.9630 C.3    16  ARG16       0.2205
      8  NE         9.8700   29.6210   27.6020 N.pl3  16  ARG16      -0.0865
      9  CZ        10.9680   29.5930   26.8520 C.cat  16  ARG16       0.5346
     10  NH1       11.4400   30.7240   26.2760 N.pl3  16  ARG16       0.1354
     11  NH2       11.5880   28.4220   26.6490 N.pl3  16  ARG16       0.1354
     12  N          5.6550   30.0160   21.4070 N.3    45  ASN45      -0.1240
     13  CA         6.8530   29.5000   22.0950 C.3    45  ASN45       0.1653
     14  C          6.4220   29.1890   23.5290 C.2    45  ASN45       0.2266
     15  O          6.4040   30.1040   24.3670 O.2    45  ASN45      -0.2867
     16  CB         7.9730   30.5710   22.0800 C.3    45  ASN45       0.1155
     17  CG         9.3040   30.0460   22.5970 C.2    45  ASN45       0.2627
     18  OD1        9.9400   30.6460   23.4760 O.2    45  ASN45      -0.2716
     19  ND2        9.7480   28.9540   22.0320 N.am   45  ASN45      -0.0877
     20  N          8.3500   23.1140   22.4460 N.3   117  HIS117     -0.1241
     21  CA         7.8910   24.4400   22.8500 C.3   117  HIS117      0.1621
     22  C          6.4820   24.7620   22.3530 C.2   117  HIS117      0.2264
     23  O          6.2310   25.8740   21.8750 O.2   117  HIS117     -0.2867
     24  CB         8.8630   25.5150   22.3190 C.3   117  HIS117      0.0745
     25  CG        10.2050   25.4750   22.9710 C.ar  117  HIS117      0.0817
     26  ND1       10.4060   25.8550   24.2860 N.ar  117  HIS117     -0.2268
     27  CD2       11.4110   25.0790   22.4990 C.ar  117  HIS117      0.1154
     28  CE1       11.6840   25.7110   24.5840 C.ar  117  HIS117      0.1986
     29  NE2       12.3170   25.2540   23.5150 N.ar  117  HIS117     -0.2212
     30  N         13.5020   23.6340   17.9350 N.3   180  ASP180     -0.1225
     31  CA        14.5110   23.4110   18.9690 C.3   180  ASP180      0.1805
     32  C         14.0140   22.5080   20.0860 C.2   180  ASP180      0.2597
     33  O         12.8240   22.4750   20.3790 O.2   180  ASP180     -0.2718
     34  CB        15.0160   24.7260   19.6080 C.3   180  ASP180      0.1424
     35  CG        13.8770   25.5880   20.2030 C.2   180  ASP180      0.3668
     36  OD1       12.8410   25.7440   19.5300 O.co2 180  ASP180     -0.2456
     37  OD2       14.0430   26.1760   21.2940 O.co2 180  ASP180     -0.2456
     38  N         14.9530   21.7710   20.6760 N.am  181  GLN181     -0.1979
     39  CA        14.8160   21.1940   22.0270 C.3   181  GLN181      0.1601
     40  C         13.6810   20.2120   22.1530 C.2   181  GLN181      0.2287
     41  O         12.8150   20.3570   23.0240 O.2   181  GLN181     -0.2864
     42  CB        14.6420   22.3230   23.0600 C.3   181  GLN181      0.0394
     43  CG        15.9000   23.1670   23.1260 C.3   181  GLN181      0.0908
     44  CD        15.8320   24.2030   24.2070 C.2   181  GLN181      0.2608
     45  OE1       14.7930   24.7940   24.4300 O.2   181  GLN181     -0.2717
     46  NE2       16.9360   24.4130   24.8900 N.am  181  GLN181     -0.0878
     47  N         12.6200   18.3780   25.7420 N.3   184  ASN184     -0.1240
     48  CA        13.6140   18.7850   26.7200 C.3   184  ASN184      0.1653
     49  C         13.2260   18.3860   28.1620 C.2   184  ASN184      0.2266
     50  O         14.0810   17.9540   28.9490 O.2   184  ASN184     -0.2867
     51  CB        13.8130   20.2960   26.6400 C.3   184  ASN184      0.1155
     52  CG        15.2310   20.6880   26.8500 C.2   184  ASN184      0.2627
     53  OD1       16.1080   20.2210   26.1430 O.2   184  ASN184     -0.2716
     54  ND2       15.4750   21.5460   27.8270 N.am  184  ASN184     -0.0877
     55  N         16.7680   17.0760   28.5220 N.3   189  ALA189     -0.1245
     56  CA        17.5640   17.7160   27.4820 C.3   189  ALA189      0.1562
     57  C         18.3970   16.6980   26.6740 C.2   189  ALA189      0.2260
     58  O         19.5260   16.9640   26.3190 O.2   189  ALA189     -0.2867
     59  CB        18.4150   18.8550   28.0560 C.3   189  ALA189      0.0290
     60  N         15.9270   26.7130   14.4270 N.3   235  PHE235     -0.1241
     61  CA        17.0770   26.6660   15.3130 C.3   235  PHE235      0.1605
     62  C         17.8910   25.4380   15.0540 C.2   235  PHE235      0.2264
     63  O         17.3650   24.4240   14.5800 O.2   235  PHE235     -0.2867
     64  CB        16.6230   26.7190   16.7900 C.3   235  PHE235      0.0534
     65  CG        15.9020   28.0090   17.1490 C.ar  235  PHE235     -0.0203
     66  CD1       16.5730   29.2440   17.0890 C.ar  235  PHE235     -0.0042
     67  CD2       14.5950   27.9690   17.6130 C.ar  235  PHE235     -0.0042
     68  CE1       15.8900   30.4480   17.4200 C.ar  235  PHE235     -0.0003
     69  CE2       13.8960   29.1490   17.9640 C.ar  235  PHE235     -0.0003
     70  CZ        14.5420   30.3930   17.8830 C.ar  235  PHE235     -0.0000
     71  N         22.2000   28.9790   17.3270 N.3   259  TRP259     -0.1241
     72  CA        22.1770   29.5740   18.6700 C.3   259  TRP259      0.1605
     73  C         23.0580   28.8530   19.6650 C.2   259  TRP259      0.2264
     74  O         23.4780   29.4590   20.6520 O.2   259  TRP259     -0.2867
     75  CB        20.7520   29.6190   19.2360 C.3   259  TRP259      0.0550
     76  CG        20.1950   28.2530   19.6550 C.ar  259  TRP259      0.0003
     77  CD1       19.6440   27.3000   18.8310 C.ar  259  TRP259      0.0946
     78  CD2       20.1620   27.7040   20.9890 C.ar  259  TRP259      0.0152
     79  NE1       19.2650   26.1800   19.5870 N.ar  259  TRP259     -0.2442
     80  CE2       19.5890   26.4070   20.9020 C.ar  259  TRP259      0.0810
     81  CE3       20.5930   28.1760   22.2440 C.ar  259  TRP259      0.0012
     82  CZ2       19.4080   25.5850   22.0220 C.ar  259  TRP259      0.0191
     83  CZ3       20.4250   27.3420   23.3860 C.ar  259  TRP259      0.0001
     84  CH2       19.8180   26.0630   23.2550 C.ar  259  TRP259      0.0015
     85  N         26.8470   21.1030   24.2420 N.3   263  TRP263     -0.1241
     86  CA        27.4450   21.0300   25.5770 C.3   263  TRP263      0.1605
     87  C         27.7040   19.5650   25.8630 C.2   263  TRP263      0.2264
     88  O         27.5030   18.7350   24.9800 O.2   263  TRP263     -0.2867
     89  CB        26.5410   21.6390   26.6320 C.3   263  TRP263      0.0550
     90  CG        25.0910   21.1590   26.6490 C.ar  263  TRP263      0.0003
     91  CD1       24.5810   20.1020   27.3810 C.ar  263  TRP263      0.0946
     92  CD2       23.9690   21.7580   25.9770 C.ar  263  TRP263      0.0152
     93  NE1       23.2190   20.0020   27.1870 N.ar  263  TRP263     -0.2442
     94  CE2       22.8160   21.0070   26.3350 C.ar  263  TRP263      0.0810
     95  CE3       23.8220   22.8680   25.1080 C.ar  263  TRP263      0.0012
     96  CZ2       21.5340   21.3130   25.8460 C.ar  263  TRP263      0.0191
     97  CZ3       22.5540   23.1610   24.6060 C.ar  263  TRP263      0.0001
     98  CH2       21.4150   22.3770   24.9790 C.ar  263  TRP263      0.0015
     99  N         25.6370   16.5960   24.5100 N.3   266  TYR266     -0.1241
    100  CA        24.6310   17.1760   23.6140 C.3   266  TYR266      0.1605
    101  C         25.3790   17.7170   22.4030 C.2   266  TYR266      0.2264
    102  O         25.7990   18.8740   22.3600 O.2   266  TYR266     -0.2867
    103  CB        23.8820   18.2790   24.3450 C.3   266  TYR266      0.0534
    104  CG        22.5820   18.7500   23.7160 C.ar  266  TYR266     -0.0201
    105  CD1       21.3650   18.1680   24.0700 C.ar  266  TYR266     -0.0009
    106  CD2       22.5590   19.8230   22.8130 C.ar  266  TYR266     -0.0009
    107  CE1       20.1530   18.6380   23.5410 C.ar  266  TYR266      0.0417
    108  CE2       21.3390   20.3010   22.2790 C.ar  266  TYR266      0.0417
    109  CZ        20.1470   19.6960   22.6320 C.ar  266  TYR266      0.1957
    110  OH        18.9020   20.1430   22.1580 O.3   266  TYR266     -0.2866
    111  N         22.4700   36.0220   24.8690 N.3   289  TYR289     -0.1241
    112  CA        21.1440   35.8340   25.4730 C.3   289  TYR289      0.1605
    113  C         20.9150   36.5840   26.7780 C.2   289  TYR289      0.2264
    114  O         21.8410   36.7600   27.5800 O.2   289  TYR289     -0.2867
    115  CB        20.9080   34.3500   25.7630 C.3   289  TYR289      0.0534
    116  CG        20.4170   33.4960   24.6040 C.ar  289  TYR289     -0.0201
    117  CD1       20.4380   33.9380   23.2580 C.ar  289  TYR289     -0.0009
    118  CD2       19.9170   32.2050   24.8480 C.ar  289  TYR289     -0.0009
    119  CE1       19.9480   33.1080   22.2150 C.ar  289  TYR289      0.0417
    120  CE2       19.4150   31.3960   23.7930 C.ar  289  TYR289      0.0417
    121  CZ        19.4630   31.8510   22.4900 C.ar  289  TYR289      0.1957
    122  OH        18.9450   31.0510   21.4780 O.3   289  TYR289     -0.2866
    123  N         17.7400   36.4240   29.7700 N.3   291  VAL291     -0.1245
    124  CA        16.4500   35.9500   30.2700 C.3   291  VAL291      0.1561
    125  C         15.8840   36.9910   31.2140 C.2   291  VAL291      0.2260
    126  O         16.5100   37.3140   32.2370 O.2   291  VAL291     -0.2867
    127  CB        16.5980   34.5930   30.9960 C.3   291  VAL291      0.0252
    128  CG1       15.2870   34.1950   31.7150 C.3   291  VAL291      0.0019
    129  CG2       16.9510   33.5390   29.9600 C.3   291  VAL291      0.0019
    130  N         16.6060   37.9690   35.1340 N.3   294  ARG294     -0.1245
    131  CA        17.9440   37.5880   35.5980 C.3   294  ARG294      0.1563
    132  C         18.8060   38.7680   35.2290 C.2   294  ARG294      0.2260
    133  O         19.3000   38.8630   34.1050 O.2   294  ARG294     -0.2867
    134  CB        18.4050   36.3020   34.9230 C.3   294  ARG294      0.0307
    135  CG        17.4790   35.1490   35.2300 C.3   294  ARG294      0.0489
    136  CD        17.9410   33.8980   34.4580 C.3   294  ARG294      0.2205
    137  NE        16.8990   32.8790   34.5720 N.pl3 294  ARG294     -0.0865
    138  CZ        16.8850   31.7510   33.8740 C.cat 294  ARG294      0.5346
    139  NH1       17.9030   31.4690   33.0660 N.pl3 294  ARG294      0.1354
    140  NH2       15.8580   30.9040   33.9920 N.pl3 294  ARG294      0.1354
    141  N         21.5150   31.6480   34.6040 N.3   301  TRP301     -0.1227
    142  CA        22.0850   31.5750   33.2720 C.3   301  TRP301      0.1737
    143  C         21.4300   32.5810   32.3590 C.2   301  TRP301      0.2595
    144  O         20.2310   32.8360   32.4660 O.2   301  TRP301     -0.2718
    145  CB        21.9840   30.1620   32.7140 C.3   301  TRP301      0.0564
    146  CG        23.0640   29.8390   31.7260 C.ar  301  TRP301      0.0003
    147  CD1       22.9010   29.6390   30.3770 C.ar  301  TRP301      0.0946
    148  CD2       24.4670   29.7000   31.9870 C.ar  301  TRP301      0.0152
    149  NE1       24.1140   29.3580   29.7920 N.ar  301  TRP301     -0.2442
    150  CE2       25.0930   29.3930   30.7470 C.ar  301  TRP301      0.0810
    151  CE3       25.2630   29.7900   33.1550 C.ar  301  TRP301      0.0012
    152  CZ2       26.4920   29.1840   30.6250 C.ar  301  TRP301      0.0191
    153  CZ3       26.6530   29.5940   33.0450 C.ar  301  TRP301      0.0001
    154  CH2       27.2550   29.2760   31.7820 C.ar  301  TRP301      0.0015
    155  N         22.2300   33.1230   31.4550 N.am  302  TYR302     -0.1976
    156  CA        21.7900   34.1980   30.5300 C.3   302  TYR302      0.1639
    157  C         21.3010   35.4250   31.3080 C.2   302  TYR302      0.2290
    158  O         20.3370   36.0730   30.9160 O.2   302  TYR302     -0.2864
    159  CB        20.6770   33.6760   29.6370 C.3   302  TYR302      0.0560
    160  CG        21.0380   32.4600   28.8070 C.ar  302  TYR302     -0.0198
    161  CD1       22.2470   32.3790   28.0890 C.ar  302  TYR302     -0.0009
    162  CD2       20.1390   31.4040   28.7050 C.ar  302  TYR302     -0.0009
    163  CE1       22.5360   31.2610   27.2940 C.ar  302  TYR302      0.0417
    164  CE2       20.4170   30.2610   27.8850 C.ar  302  TYR302      0.0417
    165  CZ        21.6160   30.2050   27.2120 C.ar  302  TYR302      0.1957
    166  OH        21.8680   29.1000   26.4200 O.3   302  TYR302     -0.2866
    167  N         14.5940   36.4780   26.2980 N.3   337  TRP337     -0.1241
    168  CA        13.6890   35.3500   26.5010 C.3   337  TRP337      0.1605
    169  C         12.9420   35.5170   27.8030 C.2   337  TRP337      0.2264
    170  O         13.4410   36.1850   28.7190 O.2   337  TRP337     -0.2867
    171  CB        14.5360   34.0680   26.6040 C.3   337  TRP337      0.0550
    172  CG        15.3210   33.7790   25.3630 C.ar  337  TRP337      0.0003
    173  CD1       16.6180   34.0520   25.1530 C.ar  337  TRP337      0.0946
    174  CD2       14.8370   33.1410   24.1760 C.ar  337  TRP337      0.0152
    175  NE1       17.0020   33.6180   23.9110 N.ar  337  TRP337     -0.2442
    176  CE2       15.9270   33.0600   23.2770 C.ar  337  TRP337      0.0810
    177  CE3       13.5720   32.6620   23.7720 C.ar  337  TRP337      0.0012
    178  CZ2       15.8190   32.4860   21.9790 C.ar  337  TRP337      0.0191
    179  CZ3       13.4550   32.0560   22.5140 C.ar  337  TRP337      0.0001
    180  CH2       14.5840   31.9860   21.6110 C.ar  337  TRP337      0.0015
    181  N         11.7800   32.8600   29.9590 N.3   339  ASP339     -0.1239
    182  CA        11.7020   31.5380   30.5730 C.3   339  ASP339      0.1674
    183  C         10.8560   31.5300   31.8550 C.2   339  ASP339      0.2266
    184  O         10.1480   30.5350   32.1640 O.2   339  ASP339     -0.2867
    185  CB        13.1010   31.0350   30.9180 C.3   339  ASP339      0.1410
    186  CG        13.9480   30.7590   29.6890 C.2   339  ASP339      0.3668
    187  OD1       13.9510   31.5920   28.7650 O.co2 339  ASP339     -0.2456
    188  OD2       14.6250   29.7060   29.6600 O.co2 339  ASP339     -0.2456
@<TRIPOS>BOND
     1    60    61    1
     2    63    62    2
     3    62    61    1
     4    61    64    1
     5    64    65    1
     6    66    65   ar
     7    66    68   ar
     8    65    67   ar
     9    71    72    1
    10    68    70   ar
    11    67    69   ar
    12    70    69   ar
    13    30    31    1
    14    72    75    1
    15    72    73    1
    16    77    79   ar
    17    77    76   ar
    18    31    34    1
    19    31    32    1
    20    75    76    1
    21    36    35   ar
    22    79    80   ar
    23    34    35    1
    24    76    78   ar
    25    73    74    2
    26    32    33    2
    27    32    38   am
    28    35    37   ar
    29    38    39    1
    30    80    78   ar
    31    80    82   ar
    32    78    81   ar
    33    12    13    1
    34   122   121    1
    35   180   178   ar
    36   180   179   ar
    37    23    22    2
    38   178   176   ar
    39    82    84   ar
    40    39    40    1
    41    39    42    1
    42    19    17   am
    43    16    13    1
    44    16    17    1
    45    13    14    1
    46    40    41    2
    47   110   109    1
    48   119   121   ar
    49   119   117   ar
    50    81    83   ar
    51   108   109   ar
    52   108   106   ar
    53    24    21    1
    54    24    25    1
    55    22    21    1
    56   102   101    2
    57   101   100    1
    58    20    21    1
    59   121   120   ar
    60    27    25   ar
    61    27    29   ar
    62   179   177   ar
    63    17    18    2
    64   109   107   ar
    65   106   104   ar
    66    25    26   ar
    67    42    43    1
    68    43    44    1
    69    84    83   ar
    70   117   116   ar
    71   176   175   ar
    72   176   174   ar
    73    29    28   ar
    74    14    15    2
    75   107   105   ar
    76   100   103    1
    77   100    99    1
    78   104   105   ar
    79   104   103    1
    80   177   174   ar
    81   120   118   ar
    82   175   173   ar
    83   174   172   ar
    84    44    45    2
    85    44    46   am
    86    85    86    1
    87    26    28   ar
    88   116   118   ar
    89   116   115    1
    90    97    98   ar
    91    97    95   ar
    92   111   112    1
    93    98    96   ar
    94    88    87    2
    95    95    92   ar
    96   173   172   ar
    97   172   171    1
    98   112   115    1
    99   112   113    1
   100     1     2    1
   101    86    87    1
   102    86    89    1
   103    47    48    1
   104    96    94   ar
   105    92    94   ar
   106    92    90   ar
   107    53    52    2
   108    10     9    1
   109   167   168    1
   110    58    57    2
   111    94    93   ar
   112   166   165    1
   113   168   171    1
   114   168   169    1
   115    89    90    1
   116    51    48    1
   117    51    52    1
   118    11     9    1
   119    90    91   ar
   120    57    56    1
   121    48    49    1
   122   113   114    2
   123    52    54   am
   124     9     8    2
   125     2     5    1
   126     2     3    1
   127     6     5    1
   128     6     7    1
   129    93    91   ar
   130   165   163   ar
   131   165   164   ar
   132   163   161   ar
   133    56    59    1
   134    56    55    1
   135     8     7    1
   136     3     4    2
   137   169   170    2
   138   164   162   ar
   139   161   160   ar
   140    49    50    2
   141   162   160   ar
   142   187   186   ar
   143   160   159    1
   144   159   156    1
   145   188   186   ar
   146   186   185    1
   147   123   124    1
   148   149   147   ar
   149   149   150   ar
   150   181   182    1
   151   129   127    1
   152   124   127    1
   153   124   125    1
   154   147   146   ar
   155   156   157    1
   156   156   155    1
   157   182   185    1
   158   182   183    1
   159   152   150   ar
   160   152   154   ar
   161   150   148   ar
   162   158   157    2
   163   127   128    1
   164   125   126    2
   165   155   143   am
   166   146   148   ar
   167   146   145    1
   168   154   153   ar
   169   183   184    2
   170   148   151   ar
   171   143   144    2
   172   143   142    1
   173   145   142    1
   174   153   151   ar
   175   139   138    1
   176   142   141    1
   177   138   140    1
   178   138   137    2
   179   133   132    2
   180   136   137    1
   181   136   135    1
   182   134   135    1
   183   134   131    1
   184   130   131    1
   185   132   131    1
