@<TRIPOS>MOLECULE
tmp/2ylaB00.pdb
 208 202 0 0 0
SMALL
GASTEIGER

@<TRIPOS>ATOM
      1  N        -14.1620  -43.1790   48.0250 N.3    19  ARG19      -0.1245
      2  CA       -15.2970  -43.8210   47.3640 C.3    19  ARG19       0.1563
      3  C        -15.0410  -44.0040   45.8780 C.2    19  ARG19       0.2260
      4  O        -15.4040  -45.0290   45.3030 O.2    19  ARG19      -0.2867
      5  CB       -16.5790  -43.0070   47.5580 C.3    19  ARG19       0.0307
      6  CG       -17.1190  -42.9880   48.9740 C.3    19  ARG19       0.0489
      7  CD       -18.5070  -42.3830   48.9860 C.3    19  ARG19       0.2205
      8  NE       -19.1750  -42.5210   50.2770 N.pl3  19  ARG19      -0.0865
      9  CZ       -19.2410  -41.5680   51.2010 C.cat  19  ARG19       0.5346
     10  NH1      -18.6780  -40.3820   50.9930 N.pl3  19  ARG19       0.1354
     11  NH2      -19.8750  -41.8030   52.3410 N.pl3  19  ARG19       0.1354
     12  N        -12.1360  -44.1790   52.5510 N.3    48  ASN48      -0.1240
     13  CA       -13.4760  -43.6670   52.8050 C.3    48  ASN48       0.1653
     14  C        -14.4320  -44.5600   52.0390 C.2    48  ASN48       0.2266
     15  O        -14.6490  -44.3600   50.8420 O.2    48  ASN48      -0.2867
     16  CB       -13.5950  -42.2110   52.3350 C.3    48  ASN48       0.1155
     17  CG       -14.8850  -41.5410   52.7900 C.2    48  ASN48       0.2627
     18  OD1      -15.5660  -40.8960   51.9970 O.2    48  ASN48      -0.2716
     19  ND2      -15.2200  -41.6830   54.0710 N.am   48  ASN48      -0.0877
     20  N        -17.1760  -46.0110   57.6620 N.3   120  HIS120     -0.1241
     21  CA       -16.7060  -45.7450   56.2970 C.3   120  HIS120      0.1621
     22  C        -15.4790  -46.5890   55.9130 C.2   120  HIS120      0.2264
     23  O        -14.5280  -46.0830   55.3160 O.2   120  HIS120     -0.2867
     24  CB       -16.3970  -44.2540   56.1120 C.3   120  HIS120      0.0745
     25  CG       -17.5750  -43.3560   56.3230 C.ar  120  HIS120      0.0817
     26  ND1      -18.4830  -43.0760   55.3260 N.ar  120  HIS120     -0.2268
     27  CD2      -17.9880  -42.6660   57.4100 C.ar  120  HIS120      0.1154
     28  CE1      -19.4060  -42.2550   55.7900 C.ar  120  HIS120      0.1986
     29  NE2      -19.1300  -41.9910   57.0530 N.ar  120  HIS120     -0.2212
     30  N        -16.2670  -40.2970   61.9070 N.3   182  ASP182     -0.1225
     31  CA       -17.4410  -40.2650   61.0280 C.3   182  ASP182      0.1805
     32  C        -18.5010  -41.4000   61.1240 C.2   182  ASP182      0.2597
     33  O        -18.1860  -42.5720   60.9230 O.2   182  ASP182     -0.2718
     34  CB       -16.8810  -40.2360   59.5990 C.3   182  ASP182      0.1424
     35  CG       -17.7780  -39.5220   58.6220 C.2   182  ASP182      0.3668
     36  OD1      -18.7990  -38.9410   59.0420 O.co2 182  ASP182     -0.2456
     37  OD2      -17.4520  -39.5480   57.4160 O.co2 182  ASP182     -0.2456
     38  N        -19.7480  -41.0240   61.4170 N.am  183  GLN183     -0.1979
     39  CA       -20.9530  -41.8810   61.2730 C.3   183  GLN183      0.1601
     40  C        -20.8210  -43.3980   61.5410 C.2   183  GLN183      0.2287
     41  O        -20.7950  -44.2020   60.6050 O.2   183  GLN183     -0.2864
     42  CB       -21.5940  -41.6530   59.8930 C.3   183  GLN183      0.0394
     43  CG       -21.9540  -40.2010   59.5880 C.3   183  GLN183      0.0908
     44  CD       -22.5090  -40.0050   58.1850 C.2   183  GLN183      0.2608
     45  OE1      -21.9990  -40.5670   57.2100 O.2   183  GLN183     -0.2717
     46  NE2      -23.5560  -39.1930   58.0760 N.am  183  GLN183     -0.0878
     47  N        -24.0050  -46.4360   60.5540 N.3   186  ASN186     -0.1240
     48  CA       -25.2330  -45.7910   60.0750 C.3   186  ASN186      0.1653
     49  C        -26.1140  -46.6880   59.1980 C.2   186  ASN186      0.2266
     50  O        -27.3190  -46.4640   59.0970 O.2   186  ASN186     -0.2867
     51  CB       -24.9380  -44.4440   59.3970 C.3   186  ASN186      0.1155
     52  CG       -24.9480  -43.2680   60.3840 C.2   186  ASN186      0.2627
     53  OD1      -25.0380  -42.1060   59.9770 O.2   186  ASN186     -0.2716
     54  ND2      -24.8630  -43.5690   61.6820 N.am  186  ASN186     -0.0877
     55  N        -30.0690  -47.4550   61.3440 N.3   190  SER190     -0.1202
     56  CA       -30.9420  -46.4020   60.7960 C.3   190  SER190      0.2020
     57  C        -30.4130  -45.0080   61.1500 C.2   190  SER190      0.2618
     58  O        -31.1660  -44.1350   61.5930 O.2   190  SER190     -0.2717
     59  CB       -32.4010  -46.5740   61.2550 C.3   190  SER190      0.2103
     60  OG       -33.0170  -47.6860   60.6300 O.3   190  SER190     -0.2182
     61  N        -29.1080  -44.8250   60.9480 N.am  191  ALA191     -0.1979
     62  CA       -28.4010  -43.5730   61.2420 C.3   191  ALA191      0.1597
     63  C        -28.5870  -43.0840   62.6820 C.2   191  ALA191      0.2287
     64  O        -28.9230  -41.9220   62.9190 O.2   191  ALA191     -0.2864
     65  CB       -28.7810  -42.4850   60.2350 C.3   191  ALA191      0.0319
     66  N        -13.6050  -35.9480   62.2550 N.3   227  PHE227     -0.1241
     67  CA       -14.8960  -35.2780   62.1390 C.3   227  PHE227      0.1605
     68  C        -15.5450  -35.1780   63.5220 C.2   227  PHE227      0.2264
     69  O        -15.1290  -35.8640   64.4560 O.2   227  PHE227     -0.2867
     70  CB       -15.7980  -35.9790   61.1120 C.3   227  PHE227      0.0534
     71  CG       -15.2170  -36.0080   59.7200 C.ar  227  PHE227     -0.0203
     72  CD1      -15.0600  -34.8310   58.9880 C.ar  227  PHE227     -0.0042
     73  CD2      -14.8160  -37.2080   59.1460 C.ar  227  PHE227     -0.0042
     74  CE1      -14.5110  -34.8480   57.7090 C.ar  227  PHE227     -0.0003
     75  CE2      -14.2640  -37.2370   57.8630 C.ar  227  PHE227     -0.0003
     76  CZ       -14.1130  -36.0530   57.1440 C.ar  227  PHE227     -0.0000
     77  N        -18.7030  -30.4470   60.6720 N.3   250  TRP250     -0.1227
     78  CA       -19.5400  -30.4060   59.4720 C.3   250  TRP250      0.1737
     79  C        -21.0320  -30.1860   59.7360 C.2   250  TRP250      0.2596
     80  O        -21.7410  -29.6630   58.8770 O.2   250  TRP250     -0.2718
     81  CB       -19.3210  -31.6610   58.6170 C.3   250  TRP250      0.0564
     82  CG       -20.0510  -32.8780   59.0960 C.ar  250  TRP250      0.0003
     83  CD1      -19.6930  -33.6900   60.1260 C.ar  250  TRP250      0.0946
     84  CD2      -21.2620  -33.4270   58.5560 C.ar  250  TRP250      0.0152
     85  NE1      -20.6020  -34.7110   60.2670 N.ar  250  TRP250     -0.2442
     86  CE2      -21.5780  -34.5710   59.3180 C.ar  250  TRP250      0.0810
     87  CE3      -22.1120  -33.0620   57.5040 C.ar  250  TRP250      0.0012
     88  CZ2      -22.7070  -35.3570   59.0630 C.ar  250  TRP250      0.0191
     89  CZ3      -23.2380  -33.8440   57.2520 C.ar  250  TRP250      0.0001
     90  CH2      -23.5240  -34.9760   58.0310 C.ar  250  TRP250      0.0015
     91  N        -21.4950  -30.5890   60.9180 N.am  251  SER251     -0.1952
     92  CA       -22.9200  -30.5680   61.2580 C.3   251  SER251      0.1924
     93  C        -23.1420  -30.8720   62.7380 C.2   251  SER251      0.2314
     94  O        -22.3550  -31.5920   63.3530 O.2   251  SER251     -0.2863
     95  CB       -23.6840  -31.5920   60.4050 C.3   251  SER251      0.2116
     96  OG       -25.0080  -31.7790   60.8660 O.3   251  SER251     -0.2180
     97  N        -25.9900  -32.2560   63.4020 N.3   253  GLY253     -0.1210
     98  CA       -26.8780  -33.3890   63.2170 C.3   253  GLY253      0.1956
     99  C        -28.3180  -32.9790   63.0010 C.2   253  GLY253      0.2612
    100  O        -28.6150  -31.8270   62.6770 O.2   253  GLY253     -0.2717
    101  N        -29.2060  -33.9450   63.1890 N.am  254  TRP254     -0.1962
    102  CA       -30.6290  -33.7780   62.9550 C.3   254  TRP254      0.1771
    103  C        -31.3800  -34.5420   64.0420 C.2   254  TRP254      0.2619
    104  O        -30.7560  -35.1130   64.9430 O.2   254  TRP254     -0.2715
    105  CB       -30.9840  -34.3200   61.5680 C.3   254  TRP254      0.0590
    106  CG       -30.4110  -35.6900   61.3060 C.ar  254  TRP254      0.0006
    107  CD1      -30.9830  -36.8900   61.6160 C.ar  254  TRP254      0.0946
    108  CD2      -29.1530  -35.9920   60.6910 C.ar  254  TRP254      0.0152
    109  NE1      -30.1630  -37.9220   61.2310 N.ar  254  TRP254     -0.2442
    110  CE2      -29.0330  -37.4000   60.6590 C.ar  254  TRP254      0.0810
    111  CE3      -28.1160  -35.2110   60.1630 C.ar  254  TRP254      0.0012
    112  CZ2      -27.9130  -38.0490   60.1170 C.ar  254  TRP254      0.0191
    113  CZ3      -27.0000  -35.8570   59.6230 C.ar  254  TRP254      0.0001
    114  CH2      -26.9130  -37.2640   59.6040 C.ar  254  TRP254      0.0015
    115  N        -32.7080  -34.5620   63.9590 N.am  255  TRP255     -0.1974
    116  CA       -33.5120  -35.2830   64.9400 C.3   255  TRP255      0.1640
    117  C        -33.0500  -36.7330   65.0910 C.2   255  TRP255      0.2290
    118  O        -33.0340  -37.4910   64.1210 O.2   255  TRP255     -0.2864
    119  CB       -34.9950  -35.2510   64.5780 C.3   255  TRP255      0.0576
    120  CG       -35.8370  -35.6320   65.7420 C.ar  255  TRP255      0.0006
    121  CD1      -36.1380  -36.8960   66.1580 C.ar  255  TRP255      0.0946
    122  CD2      -36.4560  -34.7420   66.6770 C.ar  255  TRP255      0.0152
    123  NE1      -36.9150  -36.8480   67.2890 N.ar  255  TRP255     -0.2442
    124  CE2      -37.1270  -35.5370   67.6270 C.ar  255  TRP255      0.0810
    125  CE3      -36.5140  -33.3470   66.7980 C.ar  255  TRP255      0.0012
    126  CZ2      -37.8510  -34.9860   68.6850 C.ar  255  TRP255      0.0191
    127  CZ3      -37.2360  -32.7990   67.8510 C.ar  255  TRP255      0.0001
    128  CH2      -37.8960  -33.6190   68.7810 C.ar  255  TRP255      0.0015
    129  N        -21.3290  -28.0580   56.1910 N.3   277  GLY277     -0.1210
    130  CA       -22.0620  -28.8860   55.2350 C.3   277  GLY277      0.1956
    131  C        -22.7690  -28.0980   54.1480 C.2   277  GLY277      0.2611
    132  O        -23.1190  -28.6480   53.1050 O.2   277  GLY277     -0.2717
    133  N        -22.9790  -26.8050   54.3980 N.am  278  ASP278     -0.1973
    134  CA       -23.5630  -25.8920   53.4170 C.3   278  ASP278      0.1709
    135  C        -22.7610  -25.8350   52.1200 C.2   278  ASP278      0.2293
    136  O        -23.3290  -25.6310   51.0460 O.2   278  ASP278     -0.2864
    137  CB       -23.6790  -24.4840   54.0020 C.3   278  ASP278      0.1436
    138  CG       -24.8170  -24.3500   55.0020 C.2   278  ASP278      0.3671
    139  OD1      -25.5080  -25.3550   55.2840 O.co2 278  ASP278     -0.2456
    140  OD2      -25.0170  -23.2280   55.5120 O.co2 278  ASP278     -0.2456
    141  N        -21.1080  -28.3240   50.8710 N.3   280  TYR280     -0.1241
    142  CA       -20.9990  -29.6930   50.3610 C.3   280  TYR280      0.1605
    143  C        -21.4810  -29.8350   48.9260 C.2   280  TYR280      0.2264
    144  O        -22.4940  -29.2460   48.5340 O.2   280  TYR280     -0.2867
    145  CB       -21.7880  -30.6650   51.2440 C.3   280  TYR280      0.0534
    146  CG       -21.0230  -31.2150   52.4240 C.ar  280  TYR280     -0.0201
    147  CD1      -19.8740  -30.5860   52.8950 C.ar  280  TYR280     -0.0009
    148  CD2      -21.4670  -32.3530   53.0860 C.ar  280  TYR280     -0.0009
    149  CE1      -19.1760  -31.0860   53.9830 C.ar  280  TYR280      0.0417
    150  CE2      -20.7800  -32.8600   54.1800 C.ar  280  TYR280      0.0417
    151  CZ       -19.6330  -32.2220   54.6200 C.ar  280  TYR280      0.1957
    152  OH       -18.9390  -32.7140   55.6950 O.3   280  TYR280     -0.2866
    153  N        -22.0700  -33.2390   46.3720 N.3   282  ILE282     -0.1245
    154  CA       -22.0450  -34.6430   45.9840 C.3   282  ILE282      0.1561
    155  C        -22.0870  -34.6910   44.4610 C.2   282  ILE282      0.2260
    156  O        -22.9180  -34.0230   43.8440 O.2   282  ILE282     -0.2867
    157  CB       -23.2480  -35.4260   46.5860 C.3   282  ILE282      0.0252
    158  CG1      -23.2260  -35.3750   48.1150 C.3   282  ILE282      0.0019
    159  CG2      -23.2520  -36.8800   46.1290 C.3   282  ILE282      0.0019
    160  CD1      -23.9650  -34.1990   48.7100 C.3   282  ILE282      0.0001
    161  N        -25.3330  -34.8760   42.0150 N.3   285  GLN285     -0.1245
    162  CA       -26.4940  -34.4830   42.8160 C.3   285  GLN285      0.1566
    163  C        -27.2480  -33.3430   42.1330 C.2   285  GLN285      0.2260
    164  O        -26.6420  -32.3770   41.6590 O.2   285  GLN285     -0.2867
    165  CB       -26.0580  -34.0780   44.2310 C.3   285  GLN285      0.0367
    166  CG       -27.1970  -33.8140   45.2210 C.3   285  GLN285      0.0905
    167  CD       -27.6800  -35.0630   45.9430 C.2   285  GLN285      0.2608
    168  OE1      -28.6450  -35.0160   46.7050 O.2   285  GLN285     -0.2717
    169  NE2      -27.0070  -36.1830   45.7150 N.am  285  GLN285     -0.0878
    170  N        -30.4190  -31.5150   49.2710 N.3   291  GLY291     -0.1210
    171  CA       -29.1020  -31.6370   49.8900 C.3   291  GLY291      0.1956
    172  C        -28.0230  -30.8820   49.1330 C.2   291  GLY291      0.2612
    173  O        -28.2730  -29.8020   48.5960 O.2   291  GLY291     -0.2717
    174  N        -26.8280  -31.4650   49.0730 N.am  292  GLY292     -0.1956
    175  CA       -25.6600  -30.7870   48.5180 C.3   292  GLY292      0.1869
    176  C        -25.4980  -30.8360   47.0100 C.2   292  GLY292      0.2309
    177  O        -24.5230  -31.4050   46.5110 O.2   292  GLY292     -0.2863
    178  N        -26.7470  -25.0520   45.0530 N.3   296  LYS296     -0.1245
    179  CA       -26.8740  -24.7680   46.4780 C.3   296  LYS296      0.1561
    180  C        -25.5170  -24.4310   47.1000 C.2   296  LYS296      0.2260
    181  O        -25.4000  -23.4680   47.8640 O.2   296  LYS296     -0.2867
    182  CB       -27.4930  -25.9630   47.1990 C.3   296  LYS296      0.0271
    183  CG       -28.1680  -25.6200   48.5140 C.3   296  LYS296      0.0035
    184  CD       -28.3410  -26.8670   49.3560 C.3   296  LYS296      0.0206
    185  CE       -29.7700  -27.0110   49.8470 C.3   296  LYS296      0.1093
    186  NZ       -29.9880  -28.3410   50.4760 N.3   296  LYS296     -0.1314
    187  N        -17.9180  -34.6590   47.5820 N.3   329  TRP329     -0.1241
    188  CA       -18.2000  -36.0430   47.9510 C.3   329  TRP329      0.1605
    189  C        -18.6570  -36.8670   46.7580 C.2   329  TRP329      0.2264
    190  O        -19.1880  -36.3260   45.7900 O.2   329  TRP329     -0.2867
    191  CB       -19.2570  -36.0920   49.0540 C.3   329  TRP329      0.0550
    192  CG       -18.8450  -35.3570   50.2820 C.ar  329  TRP329      0.0003
    193  CD1      -19.2190  -34.1000   50.6460 C.ar  329  TRP329      0.0946
    194  CD2      -17.9540  -35.8240   51.3030 C.ar  329  TRP329      0.0152
    195  NE1      -18.6260  -33.7550   51.8360 N.ar  329  TRP329     -0.2442
    196  CE2      -17.8430  -34.7950   52.2610 C.ar  329  TRP329      0.0810
    197  CE3      -17.2390  -37.0130   51.5010 C.ar  329  TRP329      0.0012
    198  CZ2      -17.0450  -34.9170   53.4040 C.ar  329  TRP329      0.0191
    199  CZ3      -16.4530  -37.1360   52.6390 C.ar  329  TRP329      0.0001
    200  CH2      -16.3620  -36.0930   53.5750 C.ar  329  TRP329      0.0015
    201  N        -20.7210  -39.9340   47.0740 N.3   331  ASP331     -0.1239
    202  CA       -21.6390  -40.9260   47.6810 C.3   331  ASP331      0.1674
    203  C        -22.0900  -42.0200   46.7130 C.2   331  ASP331      0.2266
    204  O        -22.1820  -43.1910   47.0850 O.2   331  ASP331     -0.2867
    205  CB       -22.8770  -40.2370   48.2690 C.3   331  ASP331      0.1410
    206  CG       -22.5440  -39.3140   49.4280 C.2   331  ASP331      0.3668
    207  OD1      -21.5550  -38.5550   49.3310 O.co2 331  ASP331     -0.2456
    208  OD2      -23.2870  -39.3390   50.4320 O.co2 331  ASP331     -0.2456
@<TRIPOS>BOND
     1   164   163    2
     2   161   162    1
     3   163   162    1
     4   162   165    1
     5   156   155    2
     6   165   166    1
     7   155   154    1
     8   178   179    1
     9   166   167    1
    10     4     3    2
    11   169   167   am
    12   190   189    2
    13     3     2    1
    14   167   168    2
    15   154   153    1
    16   154   157    1
    17   159   157    1
    18   179   180    1
    19   179   182    1
    20   177   176    2
    21   157   158    1
    22   203   204    2
    23   203   202    1
    24   189   188    1
    25   176   175    1
    26   201   202    1
    27   180   181    2
    28   182   183    1
    29     2     5    1
    30     2     1    1
    31     5     6    1
    32   187   188    1
    33   202   205    1
    34   188   191    1
    35   158   160    1
    36   205   206    1
    37   183   184    1
    38   175   174    1
    39   144   143    2
    40   173   172    2
    41   143   142    1
    42     6     7    1
    43     7     8    1
    44   191   192    1
    45   174   172   am
    46   172   171    1
    47   170   171    1
    48   207   206   ar
    49   184   185    1
    50   206   208   ar
    51   185   186    1
    52     8     9    2
    53   192   193   ar
    54   192   194   ar
    55   142   141    1
    56   142   145    1
    57   193   195   ar
    58    15    14    2
    59    10     9    1
    60   136   135    2
    61     9    11    1
    62   145   146    1
    63   194   197   ar
    64   194   196   ar
    65   197   199   ar
    66   195   196   ar
    67    18    17    2
    68    14    13    1
    69   135   134    1
    70   196   198   ar
    71    16    17    1
    72    16    13    1
    73   146   147   ar
    74   146   148   ar
    75    12    13    1
    76   199   200   ar
    77    17    19   am
    78   147   149   ar
    79   148   150   ar
    80   132   131    2
    81   198   200   ar
    82   134   137    1
    83   134   133    1
    84   149   151   ar
    85   137   138    1
    86   131   133   am
    87   131   130    1
    88   150   151   ar
    89   151   152    1
    90   138   139   ar
    91   138   140   ar
    92   130   129    1
    93    23    22    2
    94    26    28   ar
    95    26    25   ar
    96    28    29   ar
    97    22    21    1
    98    24    21    1
    99    24    25    1
   100    21    20    1
   101    25    27   ar
   102    29    27   ar
   103    76    74   ar
   104    76    75   ar
   105    45    44    2
   106    89    87   ar
   107    89    90   ar
   108    37    35   ar
   109    87    84   ar
   110    74    72   ar
   111    75    73   ar
   112    90    88   ar
   113    46    44   am
   114    44    43    1
   115    84    82   ar
   116    84    86   ar
   117    81    82    1
   118    81    78    1
   119    35    36   ar
   120    35    34    1
   121    80    79    2
   122    72    71   ar
   123    88    86   ar
   124    82    83   ar
   125    50    49    2
   126    73    71   ar
   127    49    48    1
   128    86    85   ar
   129    51    48    1
   130    51    52    1
   131    78    79    1
   132    78    77    1
   133    43    42    1
   134    34    31    1
   135   114   113   ar
   136   114   112   ar
   137   113   111   ar
   138    71    70    1
   139    79    91   am
   140    42    39    1
   141    53    52    2
   142    48    47    1
   143   112   110   ar
   144    83    85   ar
   145   111   108   ar
   146    65    62    1
   147    52    54   am
   148    95    96    1
   149    95    92    1
   150    41    40    2
   151    60    59    1
   152   110   108   ar
   153   110   109   ar
   154   108   106   ar
   155    56    57    1
   156    56    59    1
   157    56    55    1
   158    91    92    1
   159    33    32    2
   160    61    57   am
   161    61    62    1
   162    31    32    1
   163    31    30    1
   164    70    67    1
   165    32    38   am
   166    57    58    2
   167   109   107   ar
   168    62    63    1
   169    92    93    1
   170    39    38    1
   171    39    40    1
   172   106   105    1
   173   106   107   ar
   174   105   102    1
   175    67    66    1
   176    67    68    1
   177   100    99    2
   178    63    64    2
   179    93    94    2
   180   102   101    1
   181   102   103    1
   182    99   101   am
   183    99    98    1
   184    98    97    1
   185    68    69    2
   186   115   103   am
   187   115   116    1
   188   103   104    2
   189   118   117    2
   190   119   116    1
   191   119   120    1
   192   116   117    1
   193   120   121   ar
   194   120   122   ar
   195   121   123   ar
   196   122   125   ar
   197   122   124   ar
   198   125   127   ar
   199   123   124   ar
   200   124   126   ar
   201   127   128   ar
   202   126   128   ar
