@<TRIPOS>MOLECULE
tmp/2ylaC00.pdb
 160 158 0 0 0
SMALL
GASTEIGER

@<TRIPOS>ATOM
      1  N        -48.0290  -17.4350   82.4100 N.3    17  ARG17      -0.1245
      2  CA       -49.1690  -16.7920   83.0500 C.3    17  ARG17       0.1563
      3  C        -48.9380  -16.6520   84.5500 C.2    17  ARG17       0.2260
      4  O        -49.1870  -15.5940   85.1260 O.2    17  ARG17      -0.2867
      5  CB       -50.4520  -17.5820   82.7910 C.3    17  ARG17       0.0307
      6  CG       -50.9190  -17.5770   81.3480 C.3    17  ARG17       0.0489
      7  CD       -52.2620  -18.2610   81.2510 C.3    17  ARG17       0.2205
      8  NE       -52.9130  -18.1050   79.9530 N.pl3  17  ARG17      -0.0865
      9  CZ       -53.0870  -19.0870   79.0720 C.cat  17  ARG17       0.5346
     10  NH1      -52.6420  -20.3130   79.3280 N.pl3  17  ARG17       0.1354
     11  NH2      -53.7070  -18.8410   77.9270 N.pl3  17  ARG17       0.1354
     12  N        -46.0120  -16.4910   77.8250 N.3    46  ASN46      -0.1240
     13  CA       -47.3630  -16.9470   77.5540 C.3    46  ASN46       0.1653
     14  C        -48.2750  -16.0170   78.3320 C.2    46  ASN46       0.2266
     15  O        -48.4110  -16.1530   79.5520 O.2    46  ASN46      -0.2867
     16  CB       -47.5350  -18.4060   78.0030 C.3    46  ASN46       0.1155
     17  CG       -48.8200  -19.0470   77.4870 C.2    46  ASN46       0.2627
     18  OD1      -49.5390  -19.6980   78.2440 O.2    46  ASN46      -0.2716
     19  ND2      -49.1000  -18.8860   76.1970 N.am   46  ASN46      -0.0877
     20  N        -51.0460  -14.5300   72.6750 N.3   118  HIS118     -0.1241
     21  CA       -50.6090  -14.8240   74.0420 C.3   118  HIS118      0.1621
     22  C        -49.3730  -14.0060   74.4440 C.2   118  HIS118      0.2264
     23  O        -48.4090  -14.5480   74.9940 O.2   118  HIS118     -0.2867
     24  CB       -50.3170  -16.3250   74.2060 C.3   118  HIS118      0.0745
     25  CG       -51.5230  -17.2010   74.0920 C.ar  118  HIS118      0.0817
     26  ND1      -52.3800  -17.4220   75.1470 N.ar  118  HIS118     -0.2268
     27  CD2      -52.0060  -17.9250   73.0570 C.ar  118  HIS118      0.1154
     28  CE1      -53.3450  -18.2360   74.7630 C.ar  118  HIS118      0.1986
     29  NE2      -53.1400  -18.5600   73.5000 N.ar  118  HIS118     -0.2212
     30  N        -50.2210  -19.9410   68.7140 N.3   180  ASP180     -0.1225
     31  CA       -51.5990  -20.4040   68.8970 C.3   180  ASP180      0.1805
     32  C        -52.6020  -19.2660   69.1130 C.2   180  ASP180      0.2597
     33  O        -52.2560  -18.2140   69.6520 O.2   180  ASP180     -0.2718
     34  CB       -51.6890  -21.4130   70.0500 C.3   180  ASP180      0.1424
     35  CG       -51.2330  -20.8320   71.3810 C.2   180  ASP180      0.3668
     36  OD1      -50.0970  -20.3170   71.4470 O.co2 180  ASP180     -0.2456
     37  OD2      -52.0050  -20.9030   72.3630 O.co2 180  ASP180     -0.2456
     38  N        -53.8380  -19.4980   68.6710 N.am  181  GLN181     -0.1979
     39  CA       -54.9940  -18.6380   68.9620 C.3   181  GLN181      0.1601
     40  C        -54.7610  -17.1400   68.7400 C.2   181  GLN181      0.2287
     41  O        -54.7140  -16.3590   69.6950 O.2   181  GLN181     -0.2864
     42  CB       -55.5140  -18.9140   70.3790 C.3   181  GLN181      0.0394
     43  CG       -55.6990  -20.3970   70.6780 C.3   181  GLN181      0.0908
     44  CD       -56.4210  -20.6580   71.9840 C.2   181  GLN181      0.2608
     45  OE1      -56.0210  -20.1640   73.0420 O.2   181  GLN181     -0.2717
     46  NE2      -57.4890  -21.4500   71.9180 N.am  181  GLN181     -0.0878
     47  N        -57.7770  -14.1150   69.8970 N.3   184  ASN184     -0.1240
     48  CA       -58.9950  -14.7750   70.3710 C.3   184  ASN184      0.1653
     49  C        -59.9130  -13.8850   71.2040 C.2   184  ASN184      0.2266
     50  O        -61.1150  -14.1340   71.2830 O.2   184  ASN184     -0.2867
     51  CB       -58.6720  -16.0790   71.1100 C.3   184  ASN184      0.1155
     52  CG       -58.8250  -17.3060   70.2210 C.2   184  ASN184      0.2627
     53  OD1      -59.1710  -18.3870   70.6990 O.2   184  ASN184     -0.2716
     54  ND2      -58.5860  -17.1400   68.9180 N.am  184  ASN184     -0.0877
     55  N        -63.8430  -13.2170   68.9940 N.3   188  SER188     -0.1202
     56  CA       -64.6900  -14.2760   69.5580 C.3   188  SER188      0.2020
     57  C        -64.1430  -15.6640   69.2020 C.2   188  SER188      0.2618
     58  O        -64.8800  -16.5380   68.7360 O.2   188  SER188     -0.2717
     59  CB       -66.1540  -14.1210   69.1170 C.3   188  SER188      0.2103
     60  OG       -66.6940  -12.8790   69.5370 O.3   188  SER188     -0.2182
     61  N        -62.8400  -15.8430   69.4240 N.am  189  ALA189     -0.1979
     62  CA       -62.1210  -17.0870   69.1220 C.3   189  ALA189      0.1597
     63  C        -62.2640  -17.5430   67.6640 C.2   189  ALA189      0.2287
     64  O        -62.5480  -18.7120   67.3920 O.2   189  ALA189     -0.2864
     65  CB       -62.5280  -18.2050   70.0960 C.3   189  ALA189      0.0319
     66  N        -47.4370  -24.5950   68.1090 N.3   225  PHE225     -0.1241
     67  CA       -48.7220  -25.2710   68.2500 C.3   225  PHE225      0.1605
     68  C        -49.4070  -25.3190   66.8860 C.2   225  PHE225      0.2264
     69  O        -49.1040  -24.5040   66.0090 O.2   225  PHE225     -0.2867
     70  CB       -49.6040  -24.5800   69.2960 C.3   225  PHE225      0.0534
     71  CG       -49.0110  -24.5610   70.6840 C.ar  225  PHE225     -0.0203
     72  CD1      -48.8290  -25.7430   71.4000 C.ar  225  PHE225     -0.0042
     73  CD2      -48.6510  -23.3560   71.2810 C.ar  225  PHE225     -0.0042
     74  CE1      -48.2830  -25.7270   72.6840 C.ar  225  PHE225     -0.0003
     75  CE2      -48.1060  -23.3290   72.5650 C.ar  225  PHE225     -0.0003
     76  CZ       -47.9220  -24.5220   73.2680 C.ar  225  PHE225     -0.0000
     77  N        -52.5180  -30.3090   69.6360 N.3   248  TRP248     -0.1241
     78  CA       -53.3580  -30.4040   70.8320 C.3   248  TRP248      0.1605
     79  C        -54.8590  -30.5730   70.5630 C.2   248  TRP248      0.2264
     80  O        -55.5680  -31.1750   71.3750 O.2   248  TRP248     -0.2867
     81  CB       -53.1170  -29.2040   71.7580 C.3   248  TRP248      0.0550
     82  CG       -53.7430  -27.9190   71.2980 C.ar  248  TRP248      0.0003
     83  CD1      -53.2620  -27.0700   70.3460 C.ar  248  TRP248      0.0946
     84  CD2      -54.9600  -27.3330   71.7780 C.ar  248  TRP248      0.0152
     85  NE1      -54.1060  -25.9950   70.1970 N.ar  248  TRP248     -0.2442
     86  CE2      -55.1550  -26.1310   71.0660 C.ar  248  TRP248      0.0810
     87  CE3      -55.9050  -27.7070   72.7430 C.ar  248  TRP248      0.0012
     88  CZ2      -56.2560  -25.2990   71.2850 C.ar  248  TRP248      0.0191
     89  CZ3      -57.0010  -26.8790   72.9600 C.ar  248  TRP248      0.0001
     90  CH2      -57.1660  -25.6910   72.2320 C.ar  248  TRP248      0.0015
     91  N        -63.0430  -26.6730   67.1470 N.3   252  TRP252     -0.1227
     92  CA       -64.4710  -26.8620   67.3550 C.3   252  TRP252      0.1737
     93  C        -65.2050  -26.1530   66.2260 C.2   252  TRP252      0.2595
     94  O        -64.5910  -25.7850   65.2250 O.2   252  TRP252     -0.2718
     95  CB       -64.8890  -26.2890   68.7150 C.3   252  TRP252      0.0564
     96  CG       -64.2930  -24.9380   68.9920 C.ar  252  TRP252      0.0003
     97  CD1      -64.8090  -23.7230   68.6410 C.ar  252  TRP252      0.0946
     98  CD2      -63.0560  -24.6710   69.6600 C.ar  252  TRP252      0.0152
     99  NE1      -63.9730  -22.7150   69.0570 N.ar  252  TRP252     -0.2442
    100  CE2      -62.8880  -23.2690   69.6840 C.ar  252  TRP252      0.0810
    101  CE3      -62.0720  -25.4820   70.2440 C.ar  252  TRP252      0.0012
    102  CZ2      -61.7760  -22.6560   70.2730 C.ar  252  TRP252      0.0191
    103  CZ3      -60.9640  -24.8730   70.8260 C.ar  252  TRP252      0.0001
    104  CH2      -60.8280  -23.4730   70.8360 C.ar  252  TRP252      0.0015
    105  N        -66.5100  -25.9550   66.3830 N.am  253  TRP253     -0.1976
    106  CA       -67.2980  -25.2790   65.3630 C.3   253  TRP253      0.1640
    107  C        -66.8570  -23.8260   65.1910 C.2   253  TRP253      0.2290
    108  O        -66.8760  -23.0460   66.1460 O.2   253  TRP253     -0.2864
    109  CB       -68.7900  -25.3420   65.6850 C.3   253  TRP253      0.0576
    110  CG       -69.6230  -24.9410   64.5130 C.ar  253  TRP253      0.0006
    111  CD1      -69.8950  -23.6670   64.0920 C.ar  253  TRP253      0.0946
    112  CD2      -70.2700  -25.8150   63.5860 C.ar  253  TRP253      0.0152
    113  NE1      -70.6760  -23.6990   62.9640 N.ar  253  TRP253     -0.2442
    114  CE2      -70.9240  -25.0050   62.6340 C.ar  253  TRP253      0.0810
    115  CE3      -70.3680  -27.2070   63.4710 C.ar  253  TRP253      0.0012
    116  CZ2      -71.6640  -25.5380   61.5810 C.ar  253  TRP253      0.0191
    117  CZ3      -71.1080  -27.7390   62.4210 C.ar  253  TRP253      0.0001
    118  CH2      -71.7470  -26.9030   61.4900 C.ar  253  TRP253      0.0015
    119  N        -54.9700  -32.2330   79.4980 N.3   278  TYR278     -0.1241
    120  CA       -54.8400  -30.8700   80.0180 C.3   278  TYR278      0.1605
    121  C        -55.3600  -30.7130   81.4410 C.2   278  TYR278      0.2264
    122  O        -56.4720  -31.1380   81.7590 O.2   278  TYR278     -0.2867
    123  CB       -55.5920  -29.8840   79.1190 C.3   278  TYR278      0.0534
    124  CG       -54.8330  -29.3710   77.9130 C.ar  278  TYR278     -0.0201
    125  CD1      -53.7160  -30.0420   77.4150 C.ar  278  TYR278     -0.0009
    126  CD2      -55.2610  -28.2240   77.2480 C.ar  278  TYR278     -0.0009
    127  CE1      -53.0360  -29.5720   76.3020 C.ar  278  TYR278      0.0417
    128  CE2      -54.5890  -27.7470   76.1340 C.ar  278  TYR278      0.0417
    129  CZ       -53.4790  -28.4230   75.6670 C.ar  278  TYR278      0.1957
    130  OH       -52.8100  -27.9510   74.5650 O.3   278  TYR278     -0.2866
    131  N        -55.9710  -27.4560   83.9800 N.3   280  ILE280     -0.1245
    132  CA       -56.0030  -26.0300   84.2880 C.3   280  ILE280      0.1561
    133  C        -56.0800  -25.8950   85.8080 C.2   280  ILE280      0.2260
    134  O        -56.9700  -26.4670   86.4430 O.2   280  ILE280     -0.2867
    135  CB       -57.2140  -25.3260   83.6180 C.3   280  ILE280      0.0252
    136  CG1      -57.0560  -25.2870   82.0950 C.3   280  ILE280      0.0019
    137  CG2      -57.3830  -23.9090   84.1370 C.3   280  ILE280      0.0019
    138  CD1      -57.6150  -26.5000   81.3630 C.3   280  ILE280      0.0001
    139  N        -51.8100  -25.9530   82.6900 N.3   327  TRP327     -0.1241
    140  CA       -52.0870  -24.5670   82.3180 C.3   327  TRP327      0.1605
    141  C        -52.5830  -23.7270   83.4890 C.2   327  TRP327      0.2264
    142  O        -53.2350  -24.2390   84.4030 O.2   327  TRP327     -0.2867
    143  CB       -53.1130  -24.5150   81.1830 C.3   327  TRP327      0.0550
    144  CG       -52.6910  -25.2720   79.9590 C.ar  327  TRP327      0.0003
    145  CD1      -53.0810  -26.5280   79.6030 C.ar  327  TRP327      0.0946
    146  CD2      -51.7890  -24.8250   78.9360 C.ar  327  TRP327      0.0152
    147  NE1      -52.4830  -26.8920   78.4220 N.ar  327  TRP327     -0.2442
    148  CE2      -51.6840  -25.8670   77.9910 C.ar  327  TRP327      0.0810
    149  CE3      -51.0590  -23.6480   78.7290 C.ar  327  TRP327      0.0012
    150  CZ2      -50.8800  -25.7690   76.8530 C.ar  327  TRP327      0.0191
    151  CZ3      -50.2660  -23.5490   77.5940 C.ar  327  TRP327      0.0001
    152  CH2      -50.1820  -24.6050   76.6730 C.ar  327  TRP327      0.0015
    153  N        -54.6170  -20.7250   83.2400 N.3   329  ASP329     -0.1239
    154  CA       -55.5640  -19.7630   82.6460 C.3   329  ASP329      0.1674
    155  C        -56.0040  -18.6690   83.6150 C.2   329  ASP329      0.2266
    156  O        -56.0360  -17.4890   83.2540 O.2   329  ASP329     -0.2867
    157  CB       -56.7980  -20.4850   82.0980 C.3   329  ASP329      0.1410
    158  CG       -56.4790  -21.3620   80.9090 C.2   329  ASP329      0.3668
    159  OD1      -55.4810  -22.1120   80.9710 O.co2 329  ASP329     -0.2456
    160  OD2      -57.2310  -21.3050   79.9130 O.co2 329  ASP329     -0.2456
@<TRIPOS>BOND
     1   118   116   ar
     2   118   117   ar
     3   116   114   ar
     4   117   115   ar
     5   114   113   ar
     6   114   112   ar
     7   113   111   ar
     8   115   112   ar
     9   112   110   ar
    10   111   110   ar
    11   110   109    1
    12   107   106    1
    13   107   108    2
    14    94    93    2
    15   106   109    1
    16   106   105    1
    17    69    68    2
    18    93   105   am
    19    93    92    1
    20    68    67    1
    21    91    92    1
    22    92    95    1
    23    64    63    2
    24    63    62    1
    25    66    67    1
    26    67    70    1
    27    97    96   ar
    28    97    99   ar
    29    38    39    1
    30    38    32   am
    31    30    31    1
    32    95    96    1
    33    58    57    2
    34    40    39    1
    35    40    41    2
    36    31    32    1
    37    31    34    1
    38    54    52   am
    39    39    42    1
    40    96    98   ar
    41    55    56    1
    42    99   100   ar
    43    32    33    2
    44    59    60    1
    45    59    56    1
    46    62    61    1
    47    62    65    1
    48    57    61   am
    49    57    56    1
    50    70    71    1
    51    77    78    1
    52    98   100   ar
    53    98   101   ar
    54   100   102   ar
    55    47    48    1
    56    34    35    1
    57    85    83   ar
    58    85    86   ar
    59    52    53    2
    60    52    51    1
    61   101   103   ar
    62   102   104   ar
    63    83    82   ar
    64    48    51    1
    65    48    49    1
    66    42    43    1
    67    79    78    1
    68    79    80    2
    69    43    44    1
    70    71    73   ar
    71    71    72   ar
    72   103   104   ar
    73    78    81    1
    74    86    88   ar
    75    86    84   ar
    76    49    50    2
    77    73    75   ar
    78    88    90   ar
    79    82    81    1
    80    82    84   ar
    81    35    36   ar
    82    35    37   ar
    83    72    74   ar
    84    84    87   ar
    85    46    44   am
    86    44    45    2
    87    90    89   ar
    88    75    76   ar
    89    20    21    1
    90    74    76   ar
    91    87    89   ar
    92    27    29   ar
    93    27    25   ar
    94    29    28   ar
    95    21    24    1
    96    21    22    1
    97    25    24    1
    98    25    26   ar
    99    22    23    2
   100   130   129    1
   101    28    26   ar
   102   129   128   ar
   103   129   127   ar
   104   128   126   ar
   105    19    17   am
   106   127   125   ar
   107   152   150   ar
   108   152   151   ar
   109   150   148   ar
   110   126   124   ar
   111   125   124   ar
   112    17    16    1
   113    17    18    2
   114    13    12    1
   115    13    16    1
   116    13    14    1
   117   151   149   ar
   118   124   123    1
   119    11     9    1
   120   148   147   ar
   121   148   146   ar
   122    14    15    2
   123   147   145   ar
   124   149   146   ar
   125   146   144   ar
   126     9    10    1
   127     9     8    2
   128   123   120    1
   129   119   120    1
   130   145   144   ar
   131   160   158   ar
   132     8     7    1
   133   144   143    1
   134   120   121    1
   135   158   159   ar
   136   158   157    1
   137   143   140    1
   138     7     6    1
   139     6     5    1
   140   138   136    1
   141   121   122    2
   142   136   135    1
   143   157   154    1
   144   140   139    1
   145   140   141    1
   146     1     2    1
   147   154   153    1
   148   154   155    1
   149     5     2    1
   150     2     3    1
   151   156   155    2
   152   141   142    2
   153   135   137    1
   154   135   132    1
   155   131   132    1
   156   132   133    1
   157     3     4    2
   158   133   134    2
