@<TRIPOS>MOLECULE
tmp/2yllA00.pdb
 126 123 0 0 0
SMALL
GASTEIGER

@<TRIPOS>ATOM
      1  N          8.1300   45.1380   29.2650 N.3   139  TYR139     -0.1227
      2  CA         9.3820   45.8660   29.2650 C.3   139  TYR139      0.1736
      3  C          9.4910   46.6800   27.9830 C.2   139  TYR139      0.2595
      4  O          9.7240   46.1330   26.9020 O.2   139  TYR139     -0.2718
      5  CB        10.5540   44.8940   29.3860 C.3   139  TYR139      0.0548
      6  CG        11.9090   45.5480   29.3760 C.ar  139  TYR139     -0.0200
      7  CD1       12.2880   46.4090   30.3970 C.ar  139  TYR139     -0.0009
      8  CD2       12.8240   45.2880   28.3540 C.ar  139  TYR139     -0.0009
      9  CE1       13.5400   47.0150   30.4000 C.ar  139  TYR139      0.0417
     10  CE2       14.0850   45.8810   28.3520 C.ar  139  TYR139      0.0417
     11  CZ        14.4270   46.7480   29.3810 C.ar  139  TYR139      0.1957
     12  OH        15.6670   47.3460   29.4020 O.3   139  TYR139     -0.2866
     13  N          9.2990   47.9870   28.1290 N.am  140  PHE140     -0.1976
     14  CA         9.3100   48.9290   26.9990 C.3   140  PHE140      0.1639
     15  C          8.5130   48.4500   25.7800 C.2   140  PHE140      0.2290
     16  O          9.0390   48.3610   24.6620 O.2   140  PHE140     -0.2864
     17  CB        10.7520   49.3040   26.6350 C.3   140  PHE140      0.0560
     18  CG        11.4430   50.1040   27.7010 C.ar  140  PHE140     -0.0200
     19  CD1       11.2190   51.4770   27.8190 C.ar  140  PHE140     -0.0042
     20  CD2       12.2970   49.4860   28.6050 C.ar  140  PHE140     -0.0042
     21  CE1       11.8450   52.2230   28.8210 C.ar  140  PHE140     -0.0003
     22  CE2       12.9320   50.2260   29.6150 C.ar  140  PHE140     -0.0003
     23  CZ        12.7040   51.5950   29.7190 C.ar  140  PHE140     -0.0000
     24  N         15.2290   39.6960   26.4500 N.3   190  ASP190     -0.1225
     25  CA        16.3560   39.0220   25.8080 C.3   190  ASP190      0.1805
     26  C         17.3750   38.5300   26.8540 C.2   190  ASP190      0.2598
     27  O         18.5850   38.7890   26.7600 O.2   190  ASP190     -0.2718
     28  CB        17.0000   39.9410   24.7610 C.3   190  ASP190      0.1424
     29  CG        17.9950   39.2140   23.8560 C.2   190  ASP190      0.3668
     30  OD1       18.0660   37.9590   23.8950 O.co2 190  ASP190     -0.2456
     31  OD2       18.7160   39.9140   23.0980 O.co2 190  ASP190     -0.2456
     32  N         16.8550   37.8460   27.8690 N.am  191  ALA191     -0.1966
     33  CA        17.6630   37.2920   28.9500 C.3   191  ALA191      0.1728
     34  C         18.4240   38.3370   29.7660 C.2   191  ALA191      0.2616
     35  O         19.5320   38.0740   30.2220 O.2   191  ALA191     -0.2715
     36  CB        18.6100   36.2100   28.4090 C.3   191  ALA191      0.0334
     37  N         17.8260   39.5170   29.9530 N.am  192  LYS192     -0.1977
     38  CA        18.4130   40.5620   30.8020 C.3   192  LYS192      0.1596
     39  C         17.4920   40.9050   31.9740 C.2   192  LYS192      0.2287
     40  O         17.5460   42.0130   32.5000 O.2   192  LYS192     -0.2864
     41  CB        18.6940   41.8560   30.0060 C.3   192  LYS192      0.0298
     42  CG        19.6260   41.7380   28.8080 C.3   192  LYS192      0.0038
     43  CD        18.8850   41.8750   27.4610 C.3   192  LYS192      0.0206
     44  CE        18.5000   43.3260   27.0790 C.3   192  LYS192      0.1093
     45  NZ        17.1620   43.4210   26.3730 N.3   192  LYS192     -0.1314
     46  N         18.9670   42.0790   35.4870 N.3   195  SER195     -0.1202
     47  CA        19.5820   43.4050   35.2670 C.3   195  SER195      0.2020
     48  C         18.5130   44.4650   35.2050 C.2   195  SER195      0.2618
     49  O         18.6690   45.5470   35.7580 O.2   195  SER195     -0.2717
     50  CB        20.3820   43.4530   33.9590 C.3   195  SER195      0.2103
     51  OG        21.4920   42.5890   34.0140 O.3   195  SER195     -0.2182
     52  N         17.4300   44.1490   34.5030 N.am  196  VAL196     -0.1979
     53  CA        16.3170   45.0650   34.3530 C.3   196  VAL196      0.1595
     54  C         15.7010   45.3910   35.7170 C.2   196  VAL196      0.2287
     55  O         15.4340   46.5550   36.0060 O.2   196  VAL196     -0.2864
     56  CB        15.2620   44.5130   33.3520 C.3   196  VAL196      0.0276
     57  CG1       13.9440   45.2390   33.5000 C.3   196  VAL196      0.0022
     58  CG2       15.7850   44.6380   31.9100 C.3   196  VAL196      0.0022
     59  N         18.0160   47.6300   37.7060 N.3   199  ALA199     -0.1245
     60  CA        18.5400   48.8170   36.9970 C.3   199  ALA199      0.1562
     61  C         18.1250   50.1900   37.5330 C.2   199  ALA199      0.2260
     62  O         18.9290   51.1420   37.4860 O.2   199  ALA199     -0.2867
     63  CB        18.2510   48.7250   35.5020 C.3   199  ALA199      0.0290
     64  N         20.3460   53.3830   37.7320 N.3   203  TYR203     -0.1241
     65  CA        20.0870   54.2030   36.5540 C.3   203  TYR203      0.1605
     66  C         18.6710   54.7610   36.6360 C.2   203  TYR203      0.2264
     67  O         17.8010   54.3570   35.8710 O.2   203  TYR203     -0.2867
     68  CB        20.2920   53.3950   35.2700 C.3   203  TYR203      0.0534
     69  CG        21.6240   52.6870   35.2120 C.ar  203  TYR203     -0.0201
     70  CD1       22.7450   53.3130   34.6750 C.ar  203  TYR203     -0.0009
     71  CD2       21.7640   51.3900   35.7070 C.ar  203  TYR203     -0.0009
     72  CE1       23.9740   52.6660   34.6260 C.ar  203  TYR203      0.0417
     73  CE2       22.9870   50.7320   35.6670 C.ar  203  TYR203      0.0417
     74  CZ        24.0850   51.3730   35.1250 C.ar  203  TYR203      0.1957
     75  OH        25.2890   50.7160   35.0840 O.3   203  TYR203     -0.2866
     76  N         15.0990   56.4500   33.9140 N.3   206  GLU206     -0.1245
     77  CA        15.3100   55.8780   32.5880 C.3   206  GLU206      0.1567
     78  C         14.2060   54.8860   32.2440 C.2   206  GLU206      0.2260
     79  O         14.2910   54.1760   31.2360 O.2   206  GLU206     -0.2867
     80  CB        16.6830   55.2110   32.4940 C.3   206  GLU206      0.0388
     81  CG        17.8720   56.1760   32.5630 C.3   206  GLU206      0.1160
     82  CD        18.1570   56.9170   31.2520 C.2   206  GLU206      0.3649
     83  OE1       17.2840   56.9540   30.3510 O.co2 206  GLU206     -0.2457
     84  OE2       19.2730   57.4690   31.1270 O.co2 206  GLU206     -0.2457
     85  N         13.1690   52.2030   34.0350 N.3   208  TYR208     -0.1241
     86  CA        13.3130   50.8400   34.5790 C.3   208  TYR208      0.1605
     87  C         12.3330   50.6350   35.7370 C.2   208  TYR208      0.2264
     88  O         11.9370   51.6110   36.3750 O.2   208  TYR208     -0.2867
     89  CB        14.7620   50.5580   34.9940 C.3   208  TYR208      0.0534
     90  CG        15.7610   50.6340   33.8540 C.ar  208  TYR208     -0.0201
     91  CD1       15.7110   49.7290   32.7910 C.ar  208  TYR208     -0.0009
     92  CD2       16.7670   51.6130   33.8420 C.ar  208  TYR208     -0.0009
     93  CE1       16.6340   49.7940   31.7430 C.ar  208  TYR208      0.0417
     94  CE2       17.6870   51.6870   32.7930 C.ar  208  TYR208      0.0417
     95  CZ        17.6130   50.7790   31.7520 C.ar  208  TYR208      0.1957
     96  OH        18.5210   50.8360   30.7190 O.3   208  TYR208     -0.2866
     97  N         26.7890   33.5950   32.1490 N.3   265  TRP265     -0.1227
     98  CA        27.4390   33.7320   30.8380 C.3   265  TRP265      0.1737
     99  C         27.6990   35.2130   30.5740 C.2   265  TRP265      0.2596
    100  O         27.4520   36.0480   31.4520 O.2   265  TRP265     -0.2718
    101  CB        26.5820   33.1080   29.7330 C.3   265  TRP265      0.0564
    102  CG        25.1300   33.5610   29.7010 C.ar  265  TRP265      0.0003
    103  CD1       24.6270   34.6530   29.0380 C.ar  265  TRP265      0.0946
    104  CD2       24.0080   32.9210   30.3300 C.ar  265  TRP265      0.0152
    105  NE1       23.2660   34.7350   29.2240 N.ar  265  TRP265     -0.2442
    106  CE2       22.8600   33.6880   30.0150 C.ar  265  TRP265      0.0810
    107  CE3       23.8620   31.7790   31.1390 C.ar  265  TRP265      0.0012
    108  CZ2       21.5780   33.3490   30.4700 C.ar  265  TRP265      0.0191
    109  CZ3       22.5780   31.4390   31.5960 C.ar  265  TRP265      0.0001
    110  CH2       21.4560   32.2270   31.2610 C.ar  265  TRP265      0.0015
    111  N         28.2410   35.5360   29.3970 N.am  266  GLY266     -0.1942
    112  CA        28.5580   36.9290   29.0740 C.3   266  GLY266      0.2014
    113  C         27.3360   37.8160   29.1870 C.2   266  GLY266      0.2639
    114  O         26.3430   37.5940   28.4900 O.2   266  GLY266     -0.2714
    115  N         27.4070   38.7980   30.0840 N.am  267  GLY267     -0.1954
    116  CA        26.3010   39.7160   30.3420 C.3   267  GLY267      0.1869
    117  C         25.2430   39.1770   31.2920 C.2   267  GLY267      0.2309
    118  O         24.1760   39.7720   31.4450 O.2   267  GLY267     -0.2863
    119  N         25.6170   37.8890   34.9600 N.3   269  ASP269     -0.1239
    120  CA        26.5560   37.6750   36.0430 C.3   269  ASP269      0.1674
    121  C         25.8280   37.2380   37.2830 C.2   269  ASP269      0.2266
    122  O         25.2550   38.0630   37.9890 O.2   269  ASP269     -0.2867
    123  CB        27.3150   38.9680   36.3280 C.3   269  ASP269      0.1410
    124  CG        27.8940   39.5700   35.0790 C.2   269  ASP269      0.3668
    125  OD1       28.7440   38.9050   34.4350 O.co2 269  ASP269     -0.2456
    126  OD2       27.4930   40.7020   34.7270 O.co2 269  ASP269     -0.2456
@<TRIPOS>BOND
     1    31    29   ar
     2    29    30   ar
     3    29    28    1
     4    16    15    2
     5    28    25    1
     6    15    14    1
     7    25    24    1
     8    25    26    1
     9    45    44    1
    10    17    14    1
    11    17    18    1
    12    27    26    2
    13    26    32   am
    14     4     3    2
    15    14    13    1
    16    44    43    1
    17    43    42    1
    18    18    19   ar
    19    18    20   ar
    20    19    21   ar
    21    32    33    1
    22     3    13   am
    23     3     2    1
    24    10     8   ar
    25    10    11   ar
    26     8     6   ar
    27    36    33    1
    28   114   113    2
    29    20    22   ar
    30    42    41    1
    31    21    23   ar
    32    33    34    1
    33   103   105   ar
    34   103   102   ar
    35   112   113    1
    36   112   111    1
    37   113   115   am
    38   105   106   ar
    39     1     2    1
    40     2     5    1
    41     6     5    1
    42     6     7   ar
    43    11    12    1
    44    11     9   ar
    45   111    99   am
    46    22    23   ar
    47   102   101    1
    48   102   104   ar
    49   101    98    1
    50    34    37   am
    51    34    35    2
    52    37    38    1
    53    41    38    1
    54   106   104   ar
    55   106   108   ar
    56   115   116    1
    57   104   107   ar
    58   116   117    1
    59    83    82   ar
    60     7     9   ar
    61   108   110   ar
    62    99    98    1
    63    99   100    2
    64    96    95    1
    65    38    39    1
    66    98    97    1
    67    84    82   ar
    68   107   109   ar
    69    79    78    2
    70    82    81    1
    71   110   109   ar
    72   117   118    2
    73    93    95   ar
    74    93    91   ar
    75    95    94   ar
    76    58    56    1
    77    39    40    2
    78    78    77    1
    79    80    81    1
    80    80    77    1
    81    77    76    1
    82    91    90   ar
    83    94    92   ar
    84    56    57    1
    85    56    53    1
    86    92    90   ar
    87    90    89    1
    88    50    51    1
    89    50    47    1
    90    85    86    1
    91    53    52    1
    92    53    54    1
    93   125   124   ar
    94    52    48   am
    95    86    89    1
    96    86    87    1
    97    72    70   ar
    98    72    74   ar
    99    70    69   ar
   100   126   124   ar
   101   119   120    1
   102   124   123    1
   103    75    74    1
   104    74    73   ar
   105    48    47    1
   106    48    49    2
   107    69    68    1
   108    69    71   ar
   109    47    46    1
   110    68    65    1
   111    63    60    1
   112    73    71   ar
   113    54    55    2
   114    87    88    2
   115    67    66    2
   116   120   123    1
   117   120   121    1
   118    65    66    1
   119    65    64    1
   120    60    61    1
   121    60    59    1
   122   121   122    2
   123    62    61    2
