@<TRIPOS>MOLECULE
tmp/2ylnA00.pdb
 107 104 0 0 0
SMALL
GASTEIGER

@<TRIPOS>ATOM
      1  N          5.2340   -2.8580    6.6610 N.3    21  GLU21      -0.1245
      2  CA         4.1190   -3.6500    6.1010 C.3    21  GLU21       0.1567
      3  C          4.0360   -5.0450    6.6150 C.2    21  GLU21       0.2260
      4  O          2.9480   -5.5390    6.9060 O.2    21  GLU21      -0.2867
      5  CB         4.1710   -3.7000    4.5750 C.3    21  GLU21       0.0388
      6  CG         3.8670   -2.3800    3.8490 C.3    21  GLU21       0.1160
      7  CD         3.9810   -2.5450    2.3650 C.2    21  GLU21       0.3649
      8  OE1        5.1290   -2.4460    1.8750 O.co2  21  GLU21      -0.2457
      9  OE2        2.9920   -2.8910    1.7010 O.co2  21  GLU21      -0.2457
     10  N          5.8560   -7.6270    2.2790 N.3    24  TYR24      -0.1241
     11  CA         6.6360   -7.1030    1.1470 C.3    24  TYR24       0.1605
     12  C          8.0260   -7.7310    1.1460 C.2    24  TYR24       0.2264
     13  O          9.0050   -7.0640    1.5380 O.2    24  TYR24      -0.2867
     14  CB         6.6530   -5.6050    1.1780 C.3    24  TYR24       0.0534
     15  CG         7.3130   -4.8800    0.0440 C.ar   24  TYR24      -0.0201
     16  CD1        7.1740   -5.2590   -1.2870 C.ar   24  TYR24      -0.0009
     17  CD2        8.0300   -3.7380    0.3020 C.ar   24  TYR24      -0.0009
     18  CE1        7.6840   -4.5270   -2.3040 C.ar   24  TYR24       0.0417
     19  CE2        8.5450   -2.9450   -0.7330 C.ar   24  TYR24       0.0417
     20  CZ         8.3170   -3.3380   -2.0580 C.ar   24  TYR24       0.1957
     21  OH         8.7950   -2.5050   -3.0570 O.3    24  TYR24      -0.2866
     22  N          0.1360   -0.3710    3.3480 N.3    62  TRP62      -0.1241
     23  CA         0.9280    0.6730    2.7260 C.3    62  TRP62       0.1605
     24  C          0.1860    1.9850    2.6300 C.2    62  TRP62       0.2264
     25  O          0.7090    3.0510    2.9450 O.2    62  TRP62      -0.2867
     26  CB         1.5010    0.2830    1.3210 C.3    62  TRP62       0.0550
     27  CG         2.1980    1.4930    0.8390 C.ar   62  TRP62       0.0003
     28  CD1        1.6780    2.5000    0.0670 C.ar   62  TRP62       0.0946
     29  CD2        3.3610    2.0800    1.4110 C.ar   62  TRP62       0.0152
     30  NE1        2.4420    3.6150    0.1010 N.ar   62  TRP62      -0.2442
     31  CE2        3.4610    3.3890    0.9780 C.ar   62  TRP62       0.0810
     32  CE3        4.3220    1.6190    2.3440 C.ar   62  TRP62       0.0012
     33  CZ2        4.4070    4.2490    1.4250 C.ar   62  TRP62       0.0191
     34  CZ3        5.2830    2.4840    2.7750 C.ar   62  TRP62       0.0001
     35  CH2        5.3000    3.7680    2.3640 C.ar   62  TRP62       0.0015
     36  N         10.4610    1.0490    5.5230 N.3    79  ASN79      -0.1225
     37  CA         9.7040    0.3760    4.4870 C.3    79  ASN79       0.1785
     38  C         10.0910    0.8480    3.0840 C.2    79  ASN79       0.2597
     39  O          9.2520    1.1890    2.2540 O.2    79  ASN79      -0.2718
     40  CB         8.2230    0.5780    4.7090 C.3    79  ASN79       0.1169
     41  CG         7.3780   -0.5850    4.2260 C.2    79  ASN79       0.2627
     42  OD1        6.9360   -1.3840    5.0420 O.2    79  ASN79      -0.2716
     43  ND2        7.1390   -0.7140    2.9350 N.am   79  ASN79      -0.0877
     44  N         11.4190    0.8680    2.8030 N.am   80  GLN80      -0.1965
     45  CA        11.9020    1.2290    1.4820 C.3    80  GLN80       0.1733
     46  C         11.3670    2.6050    1.0340 C.2    80  GLN80       0.2616
     47  O         11.0210    2.7940   -0.1370 O.2    80  GLN80      -0.2715
     48  CB        11.6200    0.1570    0.4510 C.3    80  GLN80       0.0408
     49  CG        12.4380   -1.1190    0.6660 C.3    80  GLN80       0.0908
     50  CD        13.9050   -0.8580    0.4430 C.2    80  GLN80       0.2608
     51  OE1       14.3010   -0.4650   -0.6630 O.2    80  GLN80      -0.2717
     52  NE2       14.7410   -0.9900    1.4610 N.am   80  GLN80      -0.0878
     53  N         11.4210    3.5630    1.9480 N.am   81  VAL81      -0.1963
     54  CA        10.9180    4.9030    1.6680 C.3    81  VAL81       0.1727
     55  C         12.0590    5.9070    1.4800 C.2    81  VAL81       0.2616
     56  O         12.9300    6.0220    2.3220 O.2    81  VAL81      -0.2715
     57  CB         9.9790    5.4190    2.8310 C.3    81  VAL81       0.0290
     58  CG1        9.4360    6.7640    2.5610 C.3    81  VAL81       0.0023
     59  CG2        8.8520    4.4310    3.0210 C.3    81  VAL81       0.0023
     60  N         11.9520    6.6610    0.4040 N.am   82  GLY82      -0.1955
     61  CA        12.6880    7.9060    0.2170 C.3    82  GLY82       0.1869
     62  C         11.7100    9.0720    0.1800 C.2    82  GLY82       0.2309
     63  O         10.4890    8.9300    0.1000 O.2    82  GLY82      -0.2863
     64  N         10.4060   11.1210   -1.9750 N.3    84  THR84      -0.1218
     65  CA        10.2430   11.0870   -3.4100 C.3    84  THR84       0.1862
     66  C          9.0640   11.9110   -3.9160 C.2    84  THR84       0.2287
     67  O          8.6970   11.7770   -5.1050 O.2    84  THR84      -0.2866
     68  CB        10.2090    9.6520   -3.8770 C.3    84  THR84       0.1770
     69  OG1        9.2800    8.9070   -3.0640 O.3    84  THR84      -0.2211
     70  CG2       11.5550    9.0190   -3.8720 C.3    84  THR84       0.0375
     71  N          6.5060   14.7610    0.6350 N.3    88  ARG88      -0.1245
     72  CA         7.2860   14.0300    1.6430 C.3    88  ARG88       0.1563
     73  C          8.4530   14.8870    2.1040 C.2    88  ARG88       0.2260
     74  O          8.8080   14.9040    3.2380 O.2    88  ARG88      -0.2867
     75  CB         7.7610   12.6900    1.1070 C.3    88  ARG88       0.0307
     76  CG         6.7530   11.5920    1.1840 C.3    88  ARG88       0.0489
     77  CD         7.2300   10.4080    0.3700 C.3    88  ARG88       0.2205
     78  NE         6.2420    9.3590    0.3320 N.pl3  88  ARG88      -0.0865
     79  CZ         6.4990    8.1410   -0.1220 C.cat  88  ARG88       0.5346
     80  NH1        7.6870    7.7430   -0.4510 N.pl3  88  ARG88       0.1354
     81  NH2        5.5160    7.2550   -0.1870 N.pl3  88  ARG88       0.1354
     82  N          1.8750    4.8730   -2.8910 N.3   130  SER130     -0.1202
     83  CA         3.3110    4.6070   -3.0090 C.3   130  SER130      0.2020
     84  C          3.9160    5.5190   -4.0220 C.2   130  SER130      0.2619
     85  O          3.2360    6.0590   -4.9050 O.2   130  SER130     -0.2717
     86  CB         3.5590    3.1170   -3.3370 C.3   130  SER130      0.2103
     87  OG         3.0180    2.8070   -4.5900 O.3   130  SER130     -0.2182
     88  N          5.2290    5.6460   -4.0250 N.am  131  ASN131     -0.1960
     89  CA         5.8760    6.3120   -5.0990 C.3   131  ASN131      0.1819
     90  C          5.5400    5.7250   -6.4420 C.2   131  ASN131      0.2621
     91  O          5.4170    6.4310   -7.4570 O.2   131  ASN131     -0.2715
     92  CB         7.3890    6.4710   -4.8900 C.3   131  ASN131      0.1195
     93  CG         8.1600    5.1750   -4.9160 C.2   131  ASN131      0.2630
     94  OD1        7.8880    4.2390   -4.1760 O.2   131  ASN131     -0.2716
     95  ND2        9.1120    5.1270   -5.8370 N.am  131  ASN131     -0.0877
     96  N          5.3680    4.3910   -6.4980 N.am  132  TYR132     -0.1974
     97  CA         5.0080    3.7050   -7.7310 C.3   132  TYR132      0.1639
     98  C          3.6040    4.0940   -8.1780 C.2   132  TYR132      0.2290
     99  O          3.3730    4.3600   -9.3660 O.2   132  TYR132     -0.2864
    100  CB         5.1360    2.2030   -7.5260 C.3   132  TYR132      0.0560
    101  CG         6.4490    1.7590   -6.9550 C.ar  132  TYR132     -0.0198
    102  CD1        7.6260    2.0580   -7.6440 C.ar  132  TYR132     -0.0009
    103  CD2        6.5370    1.1280   -5.7640 C.ar  132  TYR132     -0.0009
    104  CE1        8.8610    1.7260   -7.0890 C.ar  132  TYR132      0.0417
    105  CE2        7.7490    0.7880   -5.2170 C.ar  132  TYR132      0.0417
    106  CZ         8.9170    1.1450   -5.8360 C.ar  132  TYR132      0.1957
    107  OH        10.1380    0.8510   -5.3440 O.3   132  TYR132     -0.2866
@<TRIPOS>BOND
     1    99    98    2
     2    98    97    1
     3    97   100    1
     4    97    96    1
     5   102   104   ar
     6   102   101   ar
     7   100   101    1
     8    91    90    2
     9   104   106   ar
    10   101   103   ar
    11    96    90   am
    12    90    89    1
    13    95    93   am
    14   106   107    1
    15   106   105   ar
    16   103   105   ar
    17    67    66    2
    18    89    92    1
    19    89    88    1
    20    93    92    1
    21    93    94    2
    22    85    84    2
    23    87    86    1
    24    88    84   am
    25    84    83    1
    26    66    65    1
    27    68    70    1
    28    68    65    1
    29    68    69    1
    30    65    64    1
    31    86    83    1
    32    21    20    1
    33    83    82    1
    34    18    20   ar
    35    18    16   ar
    36    20    19   ar
    37    16    15   ar
    38    19    17   ar
    39    51    50    2
    40    80    79    1
    41    81    79    1
    42    47    46    2
    43    79    78    2
    44    15    17   ar
    45    15    14    1
    46    28    30   ar
    47    28    27   ar
    48    63    62    2
    49    30    31   ar
    50    62    61    1
    51    61    60    1
    52    78    77    1
    53    77    76    1
    54    60    55   am
    55    50    49    1
    56    50    52   am
    57    48    49    1
    58    48    45    1
    59    71    72    1
    60    27    26    1
    61    27    29   ar
    62    31    29   ar
    63    31    33   ar
    64    46    45    1
    65    46    53   am
    66    75    76    1
    67    75    72    1
    68    12    11    1
    69    12    13    2
    70    11    14    1
    71    11    10    1
    72    26    23    1
    73    29    32   ar
    74    33    35   ar
    75    55    54    1
    76    55    56    2
    77    45    44    1
    78    72    73    1
    79    54    53    1
    80    54    57    1
    81     9     7   ar
    82     8     7   ar
    83    73    74    2
    84    39    38    2
    85    32    34   ar
    86    35    34   ar
    87     7     6    1
    88    58    57    1
    89    24    23    1
    90    24    25    2
    91    23    22    1
    92    44    38   am
    93    57    59    1
    94    43    41   am
    95    38    37    1
    96     6     5    1
    97    41    40    1
    98    41    42    2
    99    37    40    1
   100    37    36    1
   101     5     2    1
   102     2     3    1
   103     2     1    1
   104     3     4    2
