@<TRIPOS>MOLECULE
tmp/2ylnA01.pdb
 113 109 0 0 0
SMALL
GASTEIGER

@<TRIPOS>ATOM
      1  N          5.2340   -2.8580    6.6610 N.3    21  GLU21      -0.1245
      2  CA         4.1190   -3.6500    6.1010 C.3    21  GLU21       0.1567
      3  C          4.0360   -5.0450    6.6150 C.2    21  GLU21       0.2260
      4  O          2.9480   -5.5390    6.9060 O.2    21  GLU21      -0.2867
      5  CB         4.1710   -3.7000    4.5750 C.3    21  GLU21       0.0388
      6  CG         3.8670   -2.3800    3.8490 C.3    21  GLU21       0.1160
      7  CD         3.9810   -2.5450    2.3650 C.2    21  GLU21       0.3649
      8  OE1        5.1290   -2.4460    1.8750 O.co2  21  GLU21      -0.2457
      9  OE2        2.9920   -2.8910    1.7010 O.co2  21  GLU21      -0.2457
     10  N          5.8560   -7.6270    2.2790 N.3    24  TYR24      -0.1241
     11  CA         6.6360   -7.1030    1.1470 C.3    24  TYR24       0.1605
     12  C          8.0260   -7.7310    1.1460 C.2    24  TYR24       0.2264
     13  O          9.0050   -7.0640    1.5380 O.2    24  TYR24      -0.2867
     14  CB         6.6530   -5.6050    1.1780 C.3    24  TYR24       0.0534
     15  CG         7.3130   -4.8800    0.0440 C.ar   24  TYR24      -0.0201
     16  CD1        7.1740   -5.2590   -1.2870 C.ar   24  TYR24      -0.0009
     17  CD2        8.0300   -3.7380    0.3020 C.ar   24  TYR24      -0.0009
     18  CE1        7.6840   -4.5270   -2.3040 C.ar   24  TYR24       0.0417
     19  CE2        8.5450   -2.9450   -0.7330 C.ar   24  TYR24       0.0417
     20  CZ         8.3170   -3.3380   -2.0580 C.ar   24  TYR24       0.1957
     21  OH         8.7950   -2.5050   -3.0570 O.3    24  TYR24      -0.2866
     22  N          0.1360   -0.3710    3.3480 N.3    62  TRP62      -0.1241
     23  CA         0.9280    0.6730    2.7260 C.3    62  TRP62       0.1605
     24  C          0.1860    1.9850    2.6300 C.2    62  TRP62       0.2264
     25  O          0.7090    3.0510    2.9450 O.2    62  TRP62      -0.2867
     26  CB         1.5010    0.2830    1.3210 C.3    62  TRP62       0.0550
     27  CG         2.1980    1.4930    0.8390 C.ar   62  TRP62       0.0003
     28  CD1        1.6780    2.5000    0.0670 C.ar   62  TRP62       0.0946
     29  CD2        3.3610    2.0800    1.4110 C.ar   62  TRP62       0.0152
     30  NE1        2.4420    3.6150    0.1010 N.ar   62  TRP62      -0.2442
     31  CE2        3.4610    3.3890    0.9780 C.ar   62  TRP62       0.0810
     32  CE3        4.3220    1.6190    2.3440 C.ar   62  TRP62       0.0012
     33  CZ2        4.4070    4.2490    1.4250 C.ar   62  TRP62       0.0191
     34  CZ3        5.2830    2.4840    2.7750 C.ar   62  TRP62       0.0001
     35  CH2        5.3000    3.7680    2.3640 C.ar   62  TRP62       0.0015
     36  N         10.4610    1.0490    5.5230 N.3    79  ASN79      -0.1225
     37  CA         9.7040    0.3760    4.4870 C.3    79  ASN79       0.1785
     38  C         10.0910    0.8480    3.0840 C.2    79  ASN79       0.2597
     39  O          9.2520    1.1890    2.2540 O.2    79  ASN79      -0.2718
     40  CB         8.2230    0.5780    4.7090 C.3    79  ASN79       0.1169
     41  CG         7.3780   -0.5850    4.2260 C.2    79  ASN79       0.2627
     42  OD1        6.9360   -1.3840    5.0420 O.2    79  ASN79      -0.2716
     43  ND2        7.1390   -0.7140    2.9350 N.am   79  ASN79      -0.0877
     44  N         11.4190    0.8680    2.8030 N.am   80  GLN80      -0.1979
     45  CA        11.9020    1.2290    1.4820 C.3    80  GLN80       0.1601
     46  C         11.3670    2.6050    1.0340 C.2    80  GLN80       0.2287
     47  O         11.0210    2.7940   -0.1370 O.2    80  GLN80      -0.2864
     48  CB        11.6200    0.1570    0.4510 C.3    80  GLN80       0.0394
     49  CG        12.4380   -1.1190    0.6660 C.3    80  GLN80       0.0908
     50  CD        13.9050   -0.8580    0.4430 C.2    80  GLN80       0.2608
     51  OE1       14.3010   -0.4650   -0.6630 O.2    80  GLN80      -0.2717
     52  NE2       14.7410   -0.9900    1.4610 N.am   80  GLN80      -0.0878
     53  N         -1.4800   -0.8980   -8.5540 N.3   126  GLN126     -0.1231
     54  CA        -0.5700   -0.2800   -7.6010 C.3   126  GLN126      0.1698
     55  C         -1.2110   -0.0390   -6.2680 C.2   126  GLN126      0.2592
     56  O         -2.4390    0.1420   -6.1910 O.2   126  GLN126     -0.2718
     57  CB        -0.1240    1.1170   -8.0890 C.3   126  GLN126      0.0381
     58  CG         0.4500    1.2100   -9.4850 C.3   126  GLN126      0.0905
     59  CD         1.8450    0.6210   -9.7310 C.2   126  GLN126      0.2608
     60  OE1        2.2370    0.5710  -10.8930 O.2   126  GLN126     -0.2717
     61  NE2        2.5670    0.2200   -8.6840 N.am  126  GLN126     -0.0878
     62  N         -0.4120    0.0310   -5.2270 N.am  127  SER127     -0.1952
     63  CA        -0.7850    0.7350   -4.0510 C.3   127  SER127      0.1924
     64  C         -0.8400    2.2390   -4.3790 C.2   127  SER127      0.2314
     65  O          0.0840    2.7860   -4.9700 O.2   127  SER127     -0.2863
     66  CB         0.1390    0.4460   -2.8780 C.3   127  SER127      0.2116
     67  OG         1.4730    0.8510   -3.1710 O.3   127  SER127     -0.2180
     68  N          1.8750    4.8730   -2.8910 N.3   130  SER130     -0.1202
     69  CA         3.3110    4.6070   -3.0090 C.3   130  SER130      0.2020
     70  C          3.9160    5.5190   -4.0220 C.2   130  SER130      0.2619
     71  O          3.2360    6.0590   -4.9050 O.2   130  SER130     -0.2717
     72  CB         3.5590    3.1170   -3.3370 C.3   130  SER130      0.2103
     73  OG         3.0180    2.8070   -4.5900 O.3   130  SER130     -0.2182
     74  N          5.2290    5.6460   -4.0250 N.am  131  ASN131     -0.1960
     75  CA         5.8760    6.3120   -5.0990 C.3   131  ASN131      0.1819
     76  C          5.5400    5.7250   -6.4420 C.2   131  ASN131      0.2621
     77  O          5.4170    6.4310   -7.4570 O.2   131  ASN131     -0.2715
     78  CB         7.3890    6.4710   -4.8900 C.3   131  ASN131      0.1195
     79  CG         8.1600    5.1750   -4.9160 C.2   131  ASN131      0.2630
     80  OD1        7.8880    4.2390   -4.1760 O.2   131  ASN131     -0.2716
     81  ND2        9.1120    5.1270   -5.8370 N.am  131  ASN131     -0.0877
     82  N          5.3680    4.3910   -6.4980 N.am  132  TYR132     -0.1974
     83  CA         5.0080    3.7050   -7.7310 C.3   132  TYR132      0.1639
     84  C          3.6040    4.0940   -8.1780 C.2   132  TYR132      0.2290
     85  O          3.3730    4.3600   -9.3660 O.2   132  TYR132     -0.2864
     86  CB         5.1360    2.2030   -7.5260 C.3   132  TYR132      0.0560
     87  CG         6.4490    1.7590   -6.9550 C.ar  132  TYR132     -0.0198
     88  CD1        7.6260    2.0580   -7.6440 C.ar  132  TYR132     -0.0009
     89  CD2        6.5370    1.1280   -5.7640 C.ar  132  TYR132     -0.0009
     90  CE1        8.8610    1.7260   -7.0890 C.ar  132  TYR132      0.0417
     91  CE2        7.7490    0.7880   -5.2170 C.ar  132  TYR132      0.0417
     92  CZ         8.9170    1.1450   -5.8360 C.ar  132  TYR132      0.1957
     93  OH        10.1380    0.8510   -5.3440 O.3   132  TYR132     -0.2866
     94  N         -0.1940   -4.1370   -2.6360 N.3   148  GLY148     -0.1210
     95  CA         1.2120   -4.1680   -2.9420 C.3   148  GLY148      0.1956
     96  C          1.5340   -5.1600   -4.0030 C.2   148  GLY148      0.2611
     97  O          0.6720   -5.5730   -4.7880 O.2   148  GLY148     -0.2717
     98  N          2.7940   -5.5260   -4.0150 N.am  149  LEU149     -0.1979
     99  CA         3.3940   -6.0750   -5.1720 C.3   149  LEU149      0.1596
    100  C          2.8470   -7.4460   -5.5120 C.2   149  LEU149      0.2287
    101  O          2.5090   -7.7200   -6.6680 O.2   149  LEU149     -0.2864
    102  CB         4.9160   -6.1740   -4.9790 C.3   149  LEU149      0.0297
    103  CG         5.6680   -6.8410   -6.1190 C.3   149  LEU149      0.0022
    104  CD1        5.4170   -6.1750   -7.4960 C.3   149  LEU149      0.0001
    105  CD2        7.1670   -6.9480   -5.8240 C.3   149  LEU149      0.0001
    106  N          7.3440   -1.3030   -9.6850 N.3   166  ASN166     -0.1240
    107  CA         7.7320   -1.5880   -8.3290 C.3   166  ASN166      0.1653
    108  C          9.2550   -1.6370   -8.2850 C.2   166  ASN166      0.2266
    109  O          9.9390   -1.2570   -9.2210 O.2   166  ASN166     -0.2867
    110  CB         7.0480   -2.8390   -7.8100 C.3   166  ASN166      0.1155
    111  CG         6.8100   -2.8170   -6.3180 C.2   166  ASN166      0.2627
    112  OD1        7.7470   -2.9090   -5.4940 O.2   166  ASN166     -0.2716
    113  ND2        5.5410   -2.6800   -5.9300 N.am  166  ASN166     -0.0877
@<TRIPOS>BOND
     1    60    59    2
     2    59    58    1
     3    59    61   am
     4   106   107    1
     5    58    57    1
     6    85    84    2
     7   109   108    2
     8    53    54    1
     9   107   108    1
    10   107   110    1
    11    84    83    1
    12    57    54    1
    13   110   111    1
    14    83    86    1
    15    83    82    1
    16    88    90   ar
    17    88    87   ar
    18    54    55    1
    19    86    87    1
    20   104   103    1
    21    77    76    2
    22    90    92   ar
    23    87    89   ar
    24   101   100    2
    25    82    76   am
    26    76    75    1
    27   111   113   am
    28   111   112    2
    29    55    56    2
    30    55    62   am
    31   103   105    1
    32   103   102    1
    33    81    79   am
    34    92    93    1
    35    92    91   ar
    36    89    91   ar
    37   100    99    1
    38    62    63    1
    39    99   102    1
    40    99    98    1
    41    75    78    1
    42    75    74    1
    43    65    64    2
    44    79    78    1
    45    79    80    2
    46    71    70    2
    47    97    96    2
    48    73    72    1
    49    64    63    1
    50    63    66    1
    51    74    70   am
    52    70    69    1
    53    98    96   am
    54    96    95    1
    55    72    69    1
    56    67    66    1
    57    21    20    1
    58    69    68    1
    59    95    94    1
    60    18    20   ar
    61    18    16   ar
    62    20    19   ar
    63    16    15   ar
    64    19    17   ar
    65    51    50    2
    66    47    46    2
    67    15    17   ar
    68    15    14    1
    69    28    30   ar
    70    28    27   ar
    71    30    31   ar
    72    50    49    1
    73    50    52   am
    74    48    49    1
    75    48    45    1
    76    27    26    1
    77    27    29   ar
    78    31    29   ar
    79    31    33   ar
    80    46    45    1
    81    12    11    1
    82    12    13    2
    83    11    14    1
    84    11    10    1
    85    26    23    1
    86    29    32   ar
    87    33    35   ar
    88    45    44    1
    89     9     7   ar
    90     8     7   ar
    91    39    38    2
    92    32    34   ar
    93    35    34   ar
    94     7     6    1
    95    24    23    1
    96    24    25    2
    97    23    22    1
    98    44    38   am
    99    43    41   am
   100    38    37    1
   101     6     5    1
   102    41    40    1
   103    41    42    2
   104    37    40    1
   105    37    36    1
   106     5     2    1
   107     2     3    1
   108     2     1    1
   109     3     4    2
