@<TRIPOS>MOLECULE
tmp/2yloA01.pdb
 131 130 0 0 0
SMALL
GASTEIGER

@<TRIPOS>ATOM
      1  N        -14.2360   22.6750  -23.4990 N.3     4  PHE4       -0.1241
      2  CA       -14.7270   21.3380  -23.0780 C.3     4  PHE4        0.1605
      3  C        -14.8600   21.1210  -21.5530 C.2     4  PHE4        0.2264
      4  O        -15.8810   20.6210  -21.0930 O.2     4  PHE4       -0.2867
      5  CB       -13.9160   20.1990  -23.7330 C.3     4  PHE4        0.0534
      6  CG       -14.3370   18.8170  -23.2850 C.ar    4  PHE4       -0.0203
      7  CD1      -15.5360   18.2590  -23.7220 C.ar    4  PHE4       -0.0042
      8  CD2      -13.5340   18.0710  -22.4120 C.ar    4  PHE4       -0.0042
      9  CE1      -15.9280   16.9610  -23.2990 C.ar    4  PHE4       -0.0003
     10  CE2      -13.9290   16.7870  -21.9820 C.ar    4  PHE4       -0.0003
     11  CZ       -15.1170   16.2370  -22.4220 C.ar    4  PHE4       -0.0000
     12  N        -27.8290   14.3100  -21.0100 N.3    51  LYS51      -0.1231
     13  CA       -28.4580   15.1050  -22.0890 C.3    51  LYS51       0.1693
     14  C        -27.7910   16.4820  -22.3350 C.2    51  LYS51       0.2592
     15  O        -27.7840   16.9820  -23.4710 O.2    51  LYS51      -0.2718
     16  CB       -29.9950   15.2410  -21.9210 C.3    51  LYS51       0.0285
     17  CG       -30.7140   13.9250  -22.1910 C.3    51  LYS51       0.0035
     18  CD       -32.1800   14.0760  -22.6540 C.3    51  LYS51       0.0206
     19  CE       -32.9110   12.6950  -22.6900 C.3    51  LYS51       0.1093
     20  NZ       -32.7180   11.7560  -23.8900 N.3    51  LYS51      -0.1314
     21  N        -27.2060   17.0910  -21.3090 N.am   52  ALA52      -0.1966
     22  CA       -26.5120   18.3490  -21.5500 C.3    52  ALA52       0.1728
     23  C        -25.0170   18.1580  -21.7900 C.2    52  ALA52       0.2616
     24  O        -24.2480   19.1190  -21.6320 O.2    52  ALA52      -0.2715
     25  CB       -26.7490   19.3170  -20.4380 C.3    52  ALA52       0.0334
     26  N        -24.6080   16.9420  -22.1800 N.am   53  LEU53      -0.1964
     27  CA       -23.2050   16.6970  -22.4840 C.3    53  LEU53       0.1713
     28  C        -22.8730   17.0210  -23.9460 C.2    53  LEU53       0.2458
     29  O        -23.7600   16.9340  -24.8280 O.2    53  LEU53      -0.2730
     30  CB       -22.8110   15.2710  -22.1620 C.3    53  LEU53       0.0310
     31  CG       -22.3110   14.9150  -20.7640 C.3    53  LEU53       0.0022
     32  CD1      -22.4090   13.3970  -20.6670 C.3    53  LEU53       0.0001
     33  CD2      -20.8300   15.4180  -20.4490 C.3    53  LEU53       0.0001
     34  N        -21.6110   17.4230  -24.2130 N.am   54  PRO54      -0.2716
     35  CA       -21.2480   17.7530  -25.5880 C.3    54  PRO54       0.1536
     36  C        -21.3150   16.5260  -26.5240 C.2    54  PRO54       0.2599
     37  O        -20.7400   15.4910  -26.2360 O.2    54  PRO54      -0.2715
     38  CB       -19.8150   18.3130  -25.4780 C.3    54  PRO54       0.0310
     39  CG       -19.6040   18.6790  -24.0790 C.3    54  PRO54       0.0237
     40  CD       -20.5980   17.8690  -23.2430 C.3    54  PRO54       0.0939
     41  N        -22.0520   16.6490  -27.6220 N.am   55  GLY55      -0.1941
     42  CA       -22.2080   15.5660  -28.5880 C.3    55  GLY55       0.2014
     43  C        -23.2940   14.5610  -28.2750 C.2    55  GLY55       0.2639
     44  O        -23.6240   13.7160  -29.1200 O.2    55  GLY55      -0.2714
     45  N        -23.8610   14.6460  -27.0770 N.am   56  PHE56      -0.1959
     46  CA       -24.7040   13.5770  -26.6120 C.3    56  PHE56       0.1771
     47  C        -26.0300   13.4440  -27.3570 C.2    56  PHE56       0.2623
     48  O        -26.3750   12.3280  -27.7320 O.2    56  PHE56      -0.2715
     49  CB       -24.8990   13.6460  -25.1040 C.3    56  PHE56       0.0574
     50  CG       -25.5910   12.4390  -24.5250 C.ar   56  PHE56      -0.0200
     51  CD1      -24.8850   11.2550  -24.3010 C.ar   56  PHE56      -0.0042
     52  CD2      -26.9500   12.4740  -24.2250 C.ar   56  PHE56      -0.0042
     53  CE1      -25.5280   10.1370  -23.7760 C.ar   56  PHE56      -0.0003
     54  CE2      -27.5780   11.3630  -23.6840 C.ar   56  PHE56      -0.0003
     55  CZ       -26.8790   10.2010  -23.4580 C.ar   56  PHE56      -0.0000
     56  N        -26.7810   14.5370  -27.5590 N.am   57  ARG57      -0.1918
     57  CA       -28.0590   14.4880  -28.3300 C.3    57  ARG57       0.1945
     58  C        -27.8010   14.0520  -29.8240 C.2    57  ARG57       0.2658
     59  O        -28.7290   13.6560  -30.5530 O.2    57  ARG57      -0.2711
     60  CB       -28.8330   15.8290  -28.2480 C.2    57  ARG57       0.0033
     61  CG       -29.1550   16.4120  -26.8090 C.2    57  ARG57       0.0179
     62  CD       -29.8320   17.8430  -26.7950 C.3    57  ARG57       0.2464
     63  NE       -29.0010   18.9930  -27.2410 N.pl3  57  ARG57      -0.0815
     64  CZ       -28.6930   20.0940  -26.5130 C.cat  57  ARG57       0.5349
     65  NH1      -29.1140   20.2610  -25.2560 N.pl3  57  ARG57       0.1354
     66  NH2      -27.9450   21.0560  -27.0390 N.pl3  57  ARG57       0.1354
     67  N        -26.5350   14.1300  -30.2560 N.am   58  ASN58      -0.1969
     68  CA       -26.0580   13.4660  -31.4770 C.3    58  ASN58       0.1688
     69  C        -26.5740   12.0160  -31.5900 C.2    58  ASN58       0.2292
     70  O        -27.2240   11.6620  -32.5630 O.2    58  ASN58      -0.2864
     71  CB       -24.5090   13.5500  -31.5460 C.3    58  ASN58       0.1181
     72  CG       -23.9870   14.8610  -32.1620 C.2    58  ASN58       0.2629
     73  OD1      -24.7520   15.6610  -32.7120 O.2    58  ASN58      -0.2716
     74  ND2      -22.6630   15.0600  -32.1050 N.am   58  ASN58      -0.0877
     75  N        -22.0370    6.7210  -34.6770 N.3   157  PHE157     -0.1241
     76  CA       -22.1130    7.9540  -33.9020 C.3   157  PHE157      0.1605
     77  C        -21.5010    7.6400  -32.5340 C.2   157  PHE157      0.2264
     78  O        -20.5120    8.2690  -32.1160 O.2   157  PHE157     -0.2867
     79  CB       -23.5700    8.4040  -33.7550 C.3   157  PHE157      0.0534
     80  CG       -24.1860    8.9870  -35.0270 C.ar  157  PHE157     -0.0203
     81  CD1      -23.3900    9.3670  -36.1240 C.ar  157  PHE157     -0.0042
     82  CD2      -25.5790    9.1750  -35.1200 C.ar  157  PHE157     -0.0042
     83  CE1      -23.9730    9.9260  -37.2910 C.ar  157  PHE157     -0.0003
     84  CE2      -26.1730    9.7480  -36.2790 C.ar  157  PHE157     -0.0003
     85  CZ       -25.3660   10.1150  -37.3620 C.ar  157  PHE157     -0.0000
     86  N        -17.6010    7.2970  -32.5870 N.3   160  GLU160     -0.1231
     87  CA       -17.0450    8.6470  -32.6930 C.3   160  GLU160      0.1699
     88  C        -17.1330    9.4110  -31.3680 C.2   160  GLU160      0.2592
     89  O        -16.1310    9.9460  -30.8810 O.2   160  GLU160     -0.2718
     90  CB       -17.7390    9.4590  -33.7910 C.3   160  GLU160      0.0402
     91  CG       -17.0010   10.7930  -34.0840 C.3   160  GLU160      0.1161
     92  CD       -17.6360   11.6660  -35.1670 C.2   160  GLU160      0.3649
     93  OE1      -18.7040   11.3010  -35.7120 O.co2 160  GLU160     -0.2457
     94  OE2      -17.0420   12.7280  -35.4700 O.co2 160  GLU160     -0.2457
     95  N        -18.3320    9.4740  -30.8000 N.am  161  LEU161     -0.1980
     96  CA       -18.5140   10.1370  -29.5240 C.3   161  LEU161      0.1596
     97  C        -17.4620    9.6390  -28.5270 C.2   161  LEU161      0.2287
     98  O        -16.6670   10.4180  -28.0020 O.2   161  LEU161     -0.2864
     99  CB       -19.9270    9.8900  -29.0120 C.3   161  LEU161      0.0297
    100  CG       -20.4440   10.9010  -28.0160 C.3   161  LEU161      0.0022
    101  CD1      -20.0930   12.2930  -28.4710 C.3   161  LEU161      0.0001
    102  CD2      -21.9790   10.7630  -27.7980 C.3   161  LEU161      0.0001
    103  N        -13.8860   10.6630  -28.9490 N.3   164  ASN164     -0.1225
    104  CA       -13.6750   12.0870  -28.6760 C.3   164  ASN164      0.1785
    105  C        -13.4060   12.3600  -27.2090 C.2   164  ASN164      0.2597
    106  O        -12.4430   13.0580  -26.8700 O.2   164  ASN164     -0.2718
    107  CB       -14.8470   12.9280  -29.1980 C.3   164  ASN164      0.1169
    108  CG       -14.7570   13.1720  -30.6880 C.2   164  ASN164      0.2627
    109  OD1      -15.7540   13.5230  -31.3370 O.2   164  ASN164     -0.2716
    110  ND2      -13.5720   12.9970  -31.2450 N.am  164  ASN164     -0.0877
    111  N        -14.2470   11.7600  -26.3610 N.am  165  TYR165     -0.1976
    112  CA       -14.0700   11.7520  -24.9080 C.3   165  TYR165      0.1639
    113  C        -12.7410   11.1330  -24.4940 C.2   165  TYR165      0.2290
    114  O        -12.1120   11.5960  -23.5500 O.2   165  TYR165     -0.2864
    115  CB       -15.2560   11.0780  -24.2180 C.3   165  TYR165      0.0560
    116  CG       -16.4380   12.0180  -24.1730 C.ar  165  TYR165     -0.0198
    117  CD1      -17.2980   12.1650  -25.2750 C.ar  165  TYR165     -0.0009
    118  CD2      -16.6590   12.8310  -23.0490 C.ar  165  TYR165     -0.0009
    119  CE1      -18.3770   13.0670  -25.2450 C.ar  165  TYR165      0.0417
    120  CE2      -17.7250   13.7420  -23.0090 C.ar  165  TYR165      0.0417
    121  CZ       -18.5890   13.8540  -24.1080 C.ar  165  TYR165      0.1957
    122  OH       -19.6450   14.7600  -24.0410 O.3   165  TYR165     -0.2866
    123  N        -10.2120   13.8250  -25.3940 N.3   168  GLU168     -0.1245
    124  CA       -10.3340   14.9020  -24.4060 C.3   168  GLU168      0.1567
    125  C         -9.6590   14.6010  -23.0770 C.2   168  GLU168      0.2260
    126  O         -9.1440   15.5060  -22.4250 O.2   168  GLU168     -0.2867
    127  CB       -11.7990   15.2700  -24.1460 C.3   168  GLU168      0.0388
    128  CG       -12.4550   16.1240  -25.2400 C.3   168  GLU168      0.1160
    129  CD       -11.6710   17.3860  -25.5980 C.2   168  GLU168      0.3649
    130  OE1      -11.0850   18.0480  -24.7050 O.co2 168  GLU168     -0.2457
    131  OE2      -11.6410   17.7120  -26.7890 O.co2 168  GLU168     -0.2457
@<TRIPOS>BOND
     1    85    83   ar
     2    85    84   ar
     3    83    81   ar
     4    84    82   ar
     5    81    80   ar
     6    93    92   ar
     7    94    92   ar
     8    92    91    1
     9    82    80   ar
    10    80    79    1
    11    75    76    1
    12    91    90    1
    13    76    79    1
    14    76    77    1
    15    90    87    1
    16    73    72    2
    17    87    86    1
    18    87    88    1
    19    70    69    2
    20    77    78    2
    21    72    74   am
    22    72    71    1
    23    69    68    1
    24    71    68    1
    25    68    67    1
    26    88    89    2
    27    88    95   am
    28   109   108    2
    29   110   108   am
    30    95    96    1
    31   108   107    1
    32    59    58    2
    33    67    58   am
    34    58    57    1
    35    96    99    1
    36    96    97    1
    37   107   104    1
    38    44    43    2
    39    99   100    1
    40   103   104    1
    41   104   105    1
    42    42    43    1
    43    42    41    1
    44    97    98    2
    45   101   100    1
    46    57    60    1
    47    57    56    1
    48    43    45   am
    49    60    61    2
    50   100   102    1
    51    48    47    2
    52    41    36   am
    53    56    47   am
    54    47    46    1
    55    63    62    1
    56    63    64    2
    57   105   106    2
    58   105   111   am
    59    45    46    1
    60    66    64    1
    61    61    62    1
    62   131   129   ar
    63    46    49    1
    64    36    37    2
    65    36    35    1
    66    64    65    1
    67   111   112    1
    68   129   128    1
    69   129   130   ar
    70    35    38    1
    71    35    34    1
    72    38    39    1
    73   123   124    1
    74   117   119   ar
    75   117   116   ar
    76   119   121   ar
    77   128   127    1
    78    49    50    1
    79   112   113    1
    80   112   115    1
    81    29    28    2
    82    50    51   ar
    83    50    52   ar
    84   113   114    2
    85   124   127    1
    86   124   125    1
    87    51    53   ar
    88    52    54   ar
    89   115   116    1
    90    34    28   am
    91    34    40    1
    92   116   118   ar
    93   121   122    1
    94   121   120   ar
    95    39    40    1
    96    28    27    1
    97    20    19    1
    98    53    55   ar
    99     5     6    1
   100     5     2    1
   101     7     9   ar
   102     7     6   ar
   103    54    55   ar
   104     1     2    1
   105    15    14    2
   106     9    11   ar
   107     6     8   ar
   108     2     3    1
   109   125   126    2
   110   118   120   ar
   111    19    18    1
   112    18    17    1
   113    27    26    1
   114    27    30    1
   115    11    10   ar
   116     8    10   ar
   117    14    13    1
   118    14    21   am
   119    17    16    1
   120    26    23   am
   121    30    31    1
   122    13    16    1
   123    13    12    1
   124    23    24    2
   125    23    22    1
   126     3     4    2
   127    22    21    1
   128    22    25    1
   129    31    32    1
   130    31    33    1
