@<TRIPOS>MOLECULE
tmp/2ylpA01.pdb
 112 109 0 0 0
SMALL
GASTEIGER

@<TRIPOS>ATOM
      1  N         13.9220  -25.0380  -23.8420 N.3     2  ILE2       -0.1231
      2  CA        15.3580  -24.8430  -23.9610 C.3     2  ILE2        0.1692
      3  C         15.8220  -23.5130  -23.4070 C.2     2  ILE2        0.2592
      4  O         16.7660  -23.4960  -22.6240 O.2     2  ILE2       -0.2718
      5  CB        15.8860  -25.0580  -25.4220 C.3     2  ILE2        0.0266
      6  CG1       15.8340  -26.5490  -25.7910 C.3     2  ILE2        0.0019
      7  CG2       17.3310  -24.5170  -25.6140 C.3     2  ILE2        0.0020
      8  CD1       15.6870  -26.8020  -27.3180 C.3     2  ILE2        0.0001
      9  N         15.2140  -22.4030  -23.8270 N.am    3  PHE3       -0.1976
     10  CA        15.6400  -21.0760  -23.3440 C.3     3  PHE3        0.1639
     11  C         15.7790  -20.9640  -21.8050 C.2     3  PHE3        0.2290
     12  O         16.8060  -20.4890  -21.3200 O.2     3  PHE3       -0.2864
     13  CB        14.7380  -19.9730  -23.8770 C.3     3  PHE3        0.0560
     14  CG        15.1290  -18.5970  -23.4060 C.ar    3  PHE3       -0.0200
     15  CD1       16.3010  -17.9800  -23.9130 C.ar    3  PHE3       -0.0042
     16  CD2       14.3320  -17.9120  -22.4590 C.ar    3  PHE3       -0.0042
     17  CE1       16.6910  -16.6740  -23.4760 C.ar    3  PHE3       -0.0003
     18  CE2       14.7020  -16.6120  -22.0020 C.ar    3  PHE3       -0.0003
     19  CZ        15.8830  -15.9980  -22.5040 C.ar    3  PHE3       -0.0000
     20  N         22.1250  -17.4220  -24.2870 N.3    53  PRO53      -0.2102
     21  CA        21.8450  -17.6760  -25.7150 C.3    53  PRO53       0.1504
     22  C         22.0530  -16.4630  -26.6110 C.2    53  PRO53       0.2576
     23  O         21.4940  -15.4080  -26.3500 O.2    53  PRO53      -0.2718
     24  CB        20.3430  -18.1120  -25.7190 C.3    53  PRO53       0.0282
     25  CG        20.1740  -18.7710  -24.3700 C.3    53  PRO53       0.0208
     26  CD        21.0730  -18.0080  -23.4100 C.3    53  PRO53       0.0893
     27  N         22.8120  -16.6190  -27.6870 N.am   54  GLY54      -0.1957
     28  CA        22.9360  -15.5350  -28.6610 C.3    54  GLY54       0.1869
     29  C         23.9340  -14.4370  -28.2980 C.2    54  GLY54       0.2309
     30  O         24.2340  -13.5430  -29.1530 O.2    54  GLY54      -0.2863
     31  N         26.9620  -13.8610  -30.6470 N.3    57  ASN57      -0.1225
     32  CA        26.6170  -13.2280  -31.9150 C.3    57  ASN57       0.1785
     33  C         27.0530  -11.7510  -31.9220 C.2    57  ASN57       0.2597
     34  O         27.2930  -11.1910  -32.9730 O.2    57  ASN57      -0.2718
     35  CB        25.1090  -13.3040  -32.1840 C.3    57  ASN57       0.1169
     36  CG        24.6440  -14.7120  -32.6350 C.2    57  ASN57       0.2627
     37  OD1       25.4710  -15.5610  -33.0240 O.2    57  ASN57      -0.2716
     38  ND2       23.3160  -14.9610  -32.5880 N.am   57  ASN57      -0.0877
     39  N         27.1570  -11.1120  -30.7630 N.am   58  LEU58      -0.1980
     40  CA        27.4720   -9.6980  -30.7280 C.3    58  LEU58       0.1596
     41  C         28.9370   -9.4870  -31.0260 C.2    58  LEU58       0.2287
     42  O         29.7880  -10.2950  -30.6240 O.2    58  LEU58      -0.2864
     43  CB        27.1780   -9.0820  -29.3490 C.3    58  LEU58       0.0297
     44  CG        25.7580   -9.0520  -28.8040 C.3    58  LEU58       0.0022
     45  CD1       25.7890   -8.4000  -27.4270 C.3    58  LEU58       0.0001
     46  CD2       24.8090   -8.3070  -29.7520 C.3    58  LEU58       0.0001
     47  N         22.6350   -3.6190  -35.2570 N.3   155  LYS155     -0.1231
     48  CA        21.6070   -4.4910  -35.8440 C.3   155  LYS155      0.1693
     49  C         21.4920   -5.8340  -35.1090 C.2   155  LYS155      0.2592
     50  O         20.3800   -6.2810  -34.7970 O.2   155  LYS155     -0.2718
     51  CB        21.7990   -4.6880  -37.3780 C.3   155  LYS155      0.0285
     52  CG        22.0570   -3.4070  -38.1640 C.3   155  LYS155      0.0035
     53  CD        20.9730   -2.3730  -37.9800 C.3   155  LYS155      0.0206
     54  CE        19.6140   -2.7800  -38.4500 C.3   155  LYS155      0.1093
     55  NZ        18.7040   -3.2020  -37.3260 N.3   155  LYS155     -0.1314
     56  N         22.6470   -6.4550  -34.8270 N.am  156  PHE156     -0.1976
     57  CA        22.6660   -7.6870  -34.0020 C.3   156  PHE156      0.1639
     58  C         22.0640   -7.4490  -32.5800 C.2   156  PHE156      0.2290
     59  O         21.2960   -8.2720  -32.0800 O.2   156  PHE156     -0.2864
     60  CB        24.0710   -8.3040  -33.8950 C.3   156  PHE156      0.0560
     61  CG        24.5890   -8.9110  -35.1950 C.ar  156  PHE156     -0.0200
     62  CD1       23.7680   -9.0220  -36.3320 C.ar  156  PHE156     -0.0042
     63  CD2       25.9290   -9.3390  -35.3010 C.ar  156  PHE156     -0.0042
     64  CE1       24.2620   -9.5680  -37.5680 C.ar  156  PHE156     -0.0003
     65  CE2       26.4390   -9.8990  -36.5200 C.ar  156  PHE156     -0.0003
     66  CZ        25.5960  -10.0080  -37.6480 C.ar  156  PHE156     -0.0000
     67  N         18.2430   -7.3340  -32.6700 N.3   159  GLU159     -0.1231
     68  CA        17.6360   -8.6270  -32.8660 C.3   159  GLU159      0.1699
     69  C         17.6610   -9.4420  -31.5530 C.2   159  GLU159      0.2592
     70  O         16.6520  -10.0210  -31.1460 O.2   159  GLU159     -0.2718
     71  CB        18.4120   -9.3580  -33.9590 C.3   159  GLU159      0.0402
     72  CG        17.9340  -10.7930  -34.2310 C.3   159  GLU159      0.1161
     73  CD        16.8590  -10.9210  -35.3170 C.2   159  GLU159      0.3649
     74  OE1       16.4940   -9.9010  -35.9490 O.co2 159  GLU159     -0.2457
     75  OE2       16.3830  -12.0650  -35.5400 O.co2 159  GLU159     -0.2457
     76  N         18.8150   -9.4720  -30.9020 N.am  160  LEU160     -0.1980
     77  CA        18.9850  -10.2240  -29.6630 C.3   160  LEU160      0.1596
     78  C         17.9910   -9.7220  -28.6130 C.2   160  LEU160      0.2287
     79  O         17.2150  -10.5080  -28.0230 O.2   160  LEU160     -0.2864
     80  CB        20.4180  -10.0590  -29.1670 C.3   160  LEU160      0.0297
     81  CG        20.9420  -11.0730  -28.1610 C.3   160  LEU160      0.0022
     82  CD1       20.7500  -12.5140  -28.6630 C.3   160  LEU160      0.0001
     83  CD2       22.4290  -10.7910  -27.8220 C.3   160  LEU160      0.0001
     84  N         14.5250  -10.6970  -29.2840 N.3   163  ASN163     -0.1225
     85  CA        14.3410  -12.1030  -28.8830 C.3   163  ASN163      0.1785
     86  C         14.1630  -12.2920  -27.3780 C.2   163  ASN163      0.2597
     87  O         13.3350  -13.1170  -26.9530 O.2   163  ASN163     -0.2718
     88  CB        15.4560  -13.0090  -29.4060 C.3   163  ASN163      0.1169
     89  CG        15.4140  -13.1580  -30.9430 C.2   163  ASN163      0.2627
     90  OD1       14.3830  -12.9350  -31.5550 O.2   163  ASN163     -0.2716
     91  ND2       16.5450  -13.5130  -31.5500 N.am  163  ASN163     -0.0877
     92  N         14.9130  -11.5190  -26.5800 N.am  164  TYR164     -0.1976
     93  CA        14.8110  -11.6230  -25.1220 C.3   164  TYR164      0.1639
     94  C         13.4790  -11.0740  -24.6210 C.2   164  TYR164      0.2290
     95  O         12.9290  -11.6010  -23.6600 O.2   164  TYR164     -0.2864
     96  CB        16.0040  -11.0060  -24.3980 C.3   164  TYR164      0.0560
     97  CG        17.1250  -11.9860  -24.3010 C.ar  164  TYR164     -0.0198
     98  CD1       17.9900  -12.1880  -25.3980 C.ar  164  TYR164     -0.0009
     99  CD2       17.3500  -12.7210  -23.1330 C.ar  164  TYR164     -0.0009
    100  CE1       19.0370  -13.1040  -25.3620 C.ar  164  TYR164      0.0417
    101  CE2       18.4200  -13.6300  -23.0790 C.ar  164  TYR164      0.0417
    102  CZ        19.2610  -13.8120  -24.2260 C.ar  164  TYR164      0.1957
    103  OH        20.3160  -14.7040  -24.2160 O.3   164  TYR164     -0.2866
    104  N         10.9600  -13.9240  -25.3430 N.3   167  GLU167     -0.1245
    105  CA        11.1160  -14.9820  -24.3380 C.3   167  GLU167      0.1567
    106  C         10.3790  -14.6460  -23.0300 C.2   167  GLU167      0.2260
    107  O          9.6740  -15.4640  -22.4960 O.2   167  GLU167     -0.2867
    108  CB        12.5910  -15.2990  -24.0890 C.3   167  GLU167      0.0388
    109  CG        13.2550  -16.0590  -25.2390 C.3   167  GLU167      0.1160
    110  CD        12.5520  -17.3670  -25.6610 C.2   167  GLU167      0.3649
    111  OE1       11.9600  -18.0980  -24.8360 O.co2 167  GLU167     -0.2457
    112  OE2       12.5760  -17.6640  -26.8580 O.co2 167  GLU167     -0.2457
@<TRIPOS>BOND
     1    54    53    1
     2    54    55    1
     3    52    53    1
     4    52    51    1
     5    66    64   ar
     6    66    65   ar
     7    64    62   ar
     8    51    48    1
     9    65    63   ar
    10    62    61   ar
    11    74    73   ar
    12    48    47    1
    13    48    49    1
    14    75    73   ar
    15    73    72    1
    16    63    61   ar
    17    61    60    1
    18    49    56   am
    19    49    50    2
    20    56    57    1
    21    72    71    1
    22    57    60    1
    23    57    58    1
    24    71    68    1
    25    37    36    2
    26    34    33    2
    27    68    67    1
    28    68    69    1
    29    36    38   am
    30    36    35    1
    31    58    59    2
    32    35    32    1
    33    33    32    1
    34    33    39   am
    35    32    31    1
    36    90    89    2
    37    69    70    2
    38    69    76   am
    39    91    89   am
    40    41    40    1
    41    41    42    2
    42    89    88    1
    43    76    77    1
    44    39    40    1
    45    40    43    1
    46    46    44    1
    47    77    80    1
    48    77    78    1
    49    88    85    1
    50    43    44    1
    51    84    85    1
    52    80    81    1
    53    30    29    2
    54    85    86    1
    55    44    45    1
    56    82    81    1
    57    28    29    1
    58    28    27    1
    59    78    79    2
    60    81    83    1
    61    27    22   am
    62    86    87    2
    63    86    92   am
    64     8     6    1
    65   112   110   ar
    66    22    23    2
    67    22    21    1
    68    92    93    1
    69     6     5    1
    70    24    21    1
    71    24    25    1
    72    21    20    1
    73   110   109    1
    74   110   111   ar
    75     7     5    1
    76     5     2    1
    77    98   100   ar
    78    98    97   ar
    79   100   102   ar
    80   104   105    1
    81   109   108    1
    82    93    94    1
    83    93    96    1
    84    94    95    2
    85    96    97    1
    86    25    26    1
    87   105   108    1
    88   105   106    1
    89    97    99   ar
    90    20    26    1
    91   102   103    1
    92   102   101   ar
    93     2     1    1
    94     2     3    1
    95    15    17   ar
    96    15    14   ar
    97    13    14    1
    98    13    10    1
    99     9     3   am
   100     9    10    1
   101    17    19   ar
   102     3     4    2
   103    14    16   ar
   104    10    11    1
   105    99   101   ar
   106   106   107    2
   107    19    18   ar
   108    16    18   ar
   109    11    12    2
