@<TRIPOS>MOLECULE
tmp/2ylpA02.pdb
 88 80 0 0 0
SMALL
GASTEIGER

@<TRIPOS>ATOM
      1  N         31.3540   -9.0790  -10.5860 N.3    42  LEU42      -0.1231
      2  CA        31.6830   -8.7790  -11.9890 C.3    42  LEU42       0.1693
      3  C         32.3060   -9.9800  -12.7210 C.2    42  LEU42       0.2591
      4  O         31.9790  -10.2590  -13.8610 O.2    42  LEU42      -0.2718
      5  CB        32.6560   -7.6030  -12.0470 C.3    42  LEU42       0.0284
      6  CG        32.6590   -6.6140  -13.2160 C.3    42  LEU42       0.0019
      7  CD1       31.3370   -6.5880  -14.0160 C.3    42  LEU42       0.0001
      8  CD2       32.9440   -5.2180  -12.6010 C.3    42  LEU42       0.0001
      9  N         33.2140  -10.6850  -12.0640 N.am   43  VAL43      -0.1980
     10  CA        33.7330  -11.9300  -12.6100 C.3    43  VAL43       0.1595
     11  C         32.5570  -12.8480  -12.9630 C.2    43  VAL43       0.2287
     12  O         32.5200  -13.3720  -14.0520 O.2    43  VAL43      -0.2864
     13  CB        34.6810  -12.6320  -11.5940 C.3    43  VAL43       0.0276
     14  CG1       34.9880  -14.1160  -12.0190 C.3    43  VAL43       0.0022
     15  CG2       35.9730  -11.7950  -11.3580 C.3    43  VAL43       0.0022
     16  N         30.3420  -11.6550  -15.9730 N.3    46  VAL46      -0.1245
     17  CA        31.0240  -11.7830  -17.2310 C.3    46  VAL46       0.1561
     18  C         30.8040  -13.2220  -17.7190 C.2    46  VAL46       0.2260
     19  O         30.2450  -13.4580  -18.8030 O.2    46  VAL46      -0.2867
     20  CB        32.5780  -11.3830  -17.0910 C.3    46  VAL46       0.0252
     21  CG1       33.3940  -11.8850  -18.2900 C.3    46  VAL46       0.0019
     22  CG2       32.7530   -9.8490  -16.8750 C.3    46  VAL46       0.0019
     23  N         28.3940  -14.2850  -21.0880 N.3    50  LYS50      -0.1245
     24  CA        28.9560  -15.0410  -22.2200 C.3    50  LYS50       0.1561
     25  C         28.3660  -16.4560  -22.4750 C.2    50  LYS50       0.2260
     26  O         28.5090  -16.9890  -23.5650 O.2    50  LYS50      -0.2867
     27  CB        30.4880  -15.0930  -22.1540 C.3    50  LYS50       0.0271
     28  CG        31.1550  -13.7210  -22.0990 C.3    50  LYS50       0.0035
     29  CD        32.5360  -13.6960  -22.8140 C.3    50  LYS50       0.0206
     30  CE        33.5220  -14.7880  -22.2710 C.3    50  LYS50       0.1093
     31  NZ        34.9580  -14.6430  -22.7560 N.3    50  LYS50      -0.1314
     32  N         32.5280   -8.4250  -30.4180 N.3    60  VAL60      -0.1245
     33  CA        33.3110   -8.6340  -29.2170 C.3    60  VAL60       0.1561
     34  C         33.4070   -7.3850  -28.3220 C.2    60  VAL60       0.2260
     35  O         33.2860   -7.5070  -27.0750 O.2    60  VAL60      -0.2867
     36  CB        34.7230   -9.3260  -29.5310 C.3    60  VAL60       0.0252
     37  CG1       35.6190   -8.4940  -30.4800 C.3    60  VAL60       0.0019
     38  CG2       35.4800   -9.5830  -28.2860 C.3    60  VAL60       0.0019
     39  N         30.1440   -6.7810  -26.6560 N.3    63  GLN63      -0.1231
     40  CA        30.0000   -7.6630  -25.5160 C.3    63  GLN63       0.1698
     41  C         30.5570   -6.9630  -24.2510 C.2    63  GLN63       0.2592
     42  O         29.8440   -6.8500  -23.2690 O.2    63  GLN63      -0.2718
     43  CB        30.7100   -8.9960  -25.7410 C.3    63  GLN63       0.0381
     44  CG        30.0910   -9.9050  -26.7990 C.3    63  GLN63       0.0905
     45  CD        30.8950  -11.2210  -26.9730 C.2    63  GLN63       0.2608
     46  OE1       31.0740  -11.7060  -28.0770 O.2    63  GLN63      -0.2717
     47  NE2       31.3680  -11.7760  -25.8830 N.am   63  GLN63      -0.0878
     48  N         31.8020   -6.4880  -24.2880 N.am   64  MET64      -0.1979
     49  CA        32.3980   -5.8100  -23.1340 C.3    64  MET64       0.1605
     50  C         31.5970   -4.5570  -22.7520 C.2    64  MET64       0.2287
     51  O         31.3130   -4.3390  -21.5910 O.2    64  MET64      -0.2864
     52  CB        33.8700   -5.4730  -23.4140 C.3    64  MET64       0.0413
     53  CG        34.6230   -4.7880  -22.2190 C.3    64  MET64       0.0598
     54  SD        36.4420   -4.5050  -22.4680 S.3    64  MET64      -0.1393
     55  CE        37.2380   -5.7700  -21.4070 C.3    64  MET64       0.0692
     56  N         28.0730   -5.3680  -20.9210 N.3    67  ILE67      -0.1231
     57  CA        28.4170   -5.7570  -19.5640 C.3    67  ILE67       0.1692
     58  C         28.8380   -4.5370  -18.7260 C.2    67  ILE67       0.2591
     59  O         28.3750   -4.3770  -17.5920 O.2    67  ILE67      -0.2718
     60  CB        29.4800   -6.9160  -19.4920 C.3    67  ILE67       0.0266
     61  CG1       28.9060   -8.2410  -20.0670 C.3    67  ILE67       0.0019
     62  CG2       29.9440   -7.1310  -18.0460 C.3    67  ILE67       0.0020
     63  CD1       29.9840   -9.3220  -20.4270 C.3    67  ILE67       0.0001
     64  N         29.7330   -3.6970  -19.2520 N.am   68  GLN68      -0.1979
     65  CA        30.2470   -2.5890  -18.4390 C.3    68  GLN68       0.1601
     66  C         29.2450   -1.4520  -18.1900 C.2    68  GLN68       0.2287
     67  O         29.4150   -0.6920  -17.2440 O.2    68  GLN68      -0.2864
     68  CB        31.4760   -2.0180  -19.0840 C.3    68  GLN68       0.0394
     69  CG        32.7430   -2.7370  -18.6930 C.3    68  GLN68       0.0908
     70  CD        33.8160   -2.4820  -19.6940 C.2    68  GLN68       0.2608
     71  OE1       33.5990   -1.8010  -20.6940 O.2    68  GLN68      -0.2717
     72  NE2       34.9810   -3.0490  -19.4560 N.am   68  GLN68      -0.0878
     73  N         39.2940   -3.4840  -11.2270 N.3   224  MET224     -0.1245
     74  CA        38.2140   -3.3910  -12.2310 C.3   224  MET224      0.1570
     75  C         37.1220   -2.3540  -11.9480 C.2   224  MET224      0.2261
     76  O         36.6000   -1.7300  -12.8920 O.2   224  MET224     -0.2867
     77  CB        37.5580   -4.7460  -12.5380 C.3   224  MET224      0.0387
     78  CG        38.4760   -5.7350  -13.2440 C.3   224  MET224      0.0595
     79  SD        37.6750   -7.3560  -13.4380 S.3   224  MET224     -0.1393
     80  CE        36.8200   -7.6640  -11.8410 C.3   224  MET224      0.0692
     81  N         36.2400    0.6460  -14.3760 N.3   228  ILE228     -0.1245
     82  CA        34.9130    0.8190  -14.9370 C.3   228  ILE228      0.1561
     83  C         34.2450    2.0950  -14.4140 C.2   228  ILE228      0.2260
     84  O         33.4850    2.7360  -15.1290 O.2   228  ILE228     -0.2867
     85  CB        34.0460   -0.4380  -14.6800 C.3   228  ILE228      0.0252
     86  CG1       34.5800   -1.5700  -15.5660 C.3   228  ILE228      0.0019
     87  CG2       32.5580   -0.1800  -15.0160 C.3   228  ILE228      0.0019
     88  CD1       34.2140   -3.0130  -15.1130 C.3   228  ILE228      0.0001
@<TRIPOS>BOND
     1    37    36    1
     2    32    33    1
     3    36    33    1
     4    36    38    1
     5    33    34    1
     6    34    35    2
     7    46    45    2
     8    45    44    1
     9    45    47   am
    10    44    43    1
    11    39    40    1
    12    43    40    1
    13    40    41    1
    14    48    41   am
    15    48    49    1
    16    41    42    2
    17    26    25    2
    18    52    49    1
    19    52    53    1
    20    49    50    1
    21    29    30    1
    22    29    28    1
    23    31    30    1
    24    50    51    2
    25    25    24    1
    26    54    53    1
    27    54    55    1
    28    24    27    1
    29    24    23    1
    30    27    28    1
    31    56    57    1
    32    71    70    2
    33    63    61    1
    34    61    60    1
    35    70    72   am
    36    70    69    1
    37    57    60    1
    38    57    58    1
    39    60    62    1
    40    64    58   am
    41    64    65    1
    42    68    69    1
    43    68    65    1
    44    19    18    2
    45    58    59    2
    46    65    66    1
    47    21    20    1
    48    66    67    2
    49    18    17    1
    50    17    20    1
    51    17    16    1
    52    20    22    1
    53    86    88    1
    54    86    85    1
    55    84    83    2
    56    87    85    1
    57    82    85    1
    58    82    83    1
    59    82    81    1
    60    12    11    2
    61     7     6    1
    62     4     3    2
    63    79    78    1
    64    79    80    1
    65    78    77    1
    66     6     8    1
    67     6     5    1
    68    11    10    1
    69    76    75    2
    70     3     9   am
    71     3     2    1
    72    10     9    1
    73    10    13    1
    74    77    74    1
    75    74    75    1
    76    74    73    1
    77     5     2    1
    78    14    13    1
    79     2     1    1
    80    13    15    1
