@<TRIPOS>MOLECULE
tmp/2ylqA01.pdb
 112 109 0 0 0
SMALL
GASTEIGER

@<TRIPOS>ATOM
      1  N         14.8020  -22.4600  -23.5690 N.3     3  PHE3       -0.1241
      2  CA        15.3350  -21.1420  -23.1360 C.3     3  PHE3        0.1605
      3  C         15.4460  -20.9600  -21.5940 C.2     3  PHE3        0.2264
      4  O         16.4600  -20.4780  -21.0930 O.2     3  PHE3       -0.2867
      5  CB        14.5430  -20.0080  -23.7770 C.3     3  PHE3        0.0534
      6  CG        14.9290  -18.6490  -23.3020 C.ar    3  PHE3       -0.0203
      7  CD1       16.0590  -18.0090  -23.8260 C.ar    3  PHE3       -0.0042
      8  CD2       14.1380  -17.9730  -22.3460 C.ar    3  PHE3       -0.0042
      9  CE1       16.4210  -16.6990  -23.3960 C.ar    3  PHE3       -0.0003
     10  CE2       14.4840  -16.6790  -21.8920 C.ar    3  PHE3       -0.0003
     11  CZ        15.6270  -16.0350  -22.4210 C.ar    3  PHE3       -0.0000
     12  N         21.8810  -17.3720  -24.1200 N.3    53  PRO53      -0.2102
     13  CA        21.6360  -17.6440  -25.5490 C.3    53  PRO53       0.1504
     14  C         21.8050  -16.4330  -26.5070 C.2    53  PRO53       0.2576
     15  O         21.1930  -15.3900  -26.3040 O.2    53  PRO53      -0.2718
     16  CB        20.1780  -18.1810  -25.5500 C.3    53  PRO53       0.0282
     17  CG        20.0250  -18.8150  -24.1840 C.3    53  PRO53       0.0208
     18  CD        20.7980  -17.9050  -23.2530 C.3    53  PRO53       0.0893
     19  N         22.6410  -16.5680  -27.5370 N.am   54  GLY54      -0.1957
     20  CA        22.7980  -15.5210  -28.5630 C.3    54  GLY54       0.1869
     21  C         23.8680  -14.4740  -28.2660 C.2    54  GLY54       0.2309
     22  O         24.2980  -13.7380  -29.1800 O.2    54  GLY54      -0.2863
     23  N         27.1550  -13.9950  -30.4380 N.3    57  ASN57      -0.1225
     24  CA        26.7470  -13.3560  -31.6940 C.3    57  ASN57       0.1785
     25  C         27.0370  -11.8590  -31.7520 C.2    57  ASN57       0.2597
     26  O         27.2360  -11.3220  -32.8330 O.2    57  ASN57      -0.2718
     27  CB        25.2170  -13.4780  -31.8970 C.3    57  ASN57       0.1169
     28  CG        24.7760  -14.8660  -32.4180 C.2    57  ASN57       0.2627
     29  OD1       25.6250  -15.7450  -32.6870 O.2    57  ASN57      -0.2716
     30  ND2       23.4530  -15.0740  -32.5540 N.am   57  ASN57      -0.0877
     31  N         26.9810  -11.1690  -30.6160 N.am   58  LEU58      -0.1980
     32  CA        27.2800   -9.7670  -30.5990 C.3    58  LEU58       0.1596
     33  C         28.7540   -9.5940  -30.8680 C.2    58  LEU58       0.2287
     34  O         29.5800  -10.4370  -30.4620 O.2    58  LEU58      -0.2864
     35  CB        26.9690   -9.1310  -29.2480 C.3    58  LEU58       0.0297
     36  CG        25.5690   -9.1330  -28.6670 C.3    58  LEU58       0.0022
     37  CD1       25.6360   -8.5060  -27.2610 C.3    58  LEU58       0.0001
     38  CD2       24.5380   -8.4300  -29.5750 C.3    58  LEU58       0.0001
     39  N         22.4400   -6.5680  -34.7100 N.3   156  PHE156     -0.1241
     40  CA        22.4870   -7.7900  -33.9100 C.3   156  PHE156      0.1605
     41  C         21.9610   -7.5480  -32.4760 C.2   156  PHE156      0.2264
     42  O         21.1840   -8.3600  -31.9410 O.2   156  PHE156     -0.2867
     43  CB        23.9090   -8.3880  -33.9100 C.3   156  PHE156      0.0534
     44  CG        24.3200   -9.0460  -35.2500 C.ar  156  PHE156     -0.0203
     45  CD1       23.5480   -8.8800  -36.4310 C.ar  156  PHE156     -0.0042
     46  CD2       25.4900   -9.8350  -35.3410 C.ar  156  PHE156     -0.0042
     47  CE1       23.9380   -9.4830  -37.6740 C.ar  156  PHE156     -0.0003
     48  CE2       25.8800  -10.4310  -36.5710 C.ar  156  PHE156     -0.0003
     49  CZ        25.0910  -10.2500  -37.7330 C.ar  156  PHE156     -0.0000
     50  N         17.9760   -7.4110  -32.6810 N.3   159  GLU159     -0.1231
     51  CA        17.3240   -8.7100  -32.8170 C.3   159  GLU159      0.1699
     52  C         17.4170   -9.5060  -31.5020 C.2   159  GLU159      0.2592
     53  O         16.4480  -10.1270  -31.0480 O.2   159  GLU159     -0.2718
     54  CB        17.8570   -9.4800  -34.0420 C.3   159  GLU159      0.0402
     55  CG        18.0630  -11.0130  -33.8910 C.3   159  GLU159      0.1161
     56  CD        17.5960  -11.8430  -35.0970 C.2   159  GLU159      0.3649
     57  OE1       16.4820  -11.5770  -35.6230 O.co2 159  GLU159     -0.2457
     58  OE2       18.3300  -12.7830  -35.4920 O.co2 159  GLU159     -0.2457
     59  N         18.5710   -9.4350  -30.8700 N.am  160  LEU160     -0.1980
     60  CA        18.7960  -10.1480  -29.6480 C.3   160  LEU160      0.1596
     61  C         17.8430   -9.6560  -28.5710 C.2   160  LEU160      0.2287
     62  O         17.0910  -10.4420  -27.9590 O.2   160  LEU160     -0.2864
     63  CB        20.2430   -9.9490  -29.2440 C.3   160  LEU160      0.0297
     64  CG        20.7300  -10.9180  -28.1870 C.3   160  LEU160      0.0022
     65  CD1       20.2580  -12.3810  -28.5050 C.3   160  LEU160      0.0001
     66  CD2       22.2610  -10.7930  -27.9770 C.3   160  LEU160      0.0001
     67  N         15.0880   -8.0380  -28.9650 N.3   162  MET162     -0.1230
     68  CA        13.7010   -8.4190  -29.3390 C.3   162  MET162      0.1702
     69  C         13.4000   -9.8600  -28.9100 C.2   162  MET162      0.2592
     70  O         12.3080  -10.1390  -28.4070 O.2   162  MET162     -0.2718
     71  CB        13.4560   -8.2680  -30.8470 C.3   162  MET162      0.0401
     72  CG        12.2220   -9.0090  -31.3960 C.3   162  MET162      0.0596
     73  SD        12.1020   -8.7790  -33.2450 S.3   162  MET162     -0.1393
     74  CE        13.5290   -9.7270  -33.8060 C.3   162  MET162      0.0692
     75  N         14.3730  -10.7680  -29.1020 N.am  163  ASN163     -0.1960
     76  CA        14.1630  -12.1690  -28.7130 C.3   163  ASN163      0.1819
     77  C         13.9830  -12.3320  -27.1990 C.2   163  ASN163      0.2621
     78  O         13.1130  -13.1100  -26.7500 O.2   163  ASN163     -0.2715
     79  CB        15.2550  -13.1140  -29.2460 C.3   163  ASN163      0.1195
     80  CG        15.1530  -13.3440  -30.7790 C.2   163  ASN163      0.2630
     81  OD1       14.0930  -13.1700  -31.3730 O.2   163  ASN163     -0.2716
     82  ND2       16.2690  -13.7090  -31.4070 N.am  163  ASN163     -0.0877
     83  N         14.7600  -11.5730  -26.4120 N.am  164  TYR164     -0.1974
     84  CA        14.5680  -11.6360  -24.9570 C.3   164  TYR164      0.1639
     85  C         13.2080  -11.1380  -24.5300 C.2   164  TYR164      0.2290
     86  O         12.5930  -11.7220  -23.6400 O.2   164  TYR164     -0.2864
     87  CB        15.7010  -10.9800  -24.2030 C.3   164  TYR164      0.0560
     88  CG        16.8590  -11.9290  -24.1590 C.ar  164  TYR164     -0.0198
     89  CD1       17.6590  -12.1480  -25.2960 C.ar  164  TYR164     -0.0009
     90  CD2       17.1360  -12.6600  -23.0070 C.ar  164  TYR164     -0.0009
     91  CE1       18.7400  -13.0580  -25.2850 C.ar  164  TYR164      0.0417
     92  CE2       18.2030  -13.5630  -22.9750 C.ar  164  TYR164      0.0417
     93  CZ        19.0070  -13.7610  -24.1190 C.ar  164  TYR164      0.1957
     94  OH        20.0670  -14.6580  -24.0550 O.3   164  TYR164     -0.2866
     95  N         10.5610  -11.4050  -26.3930 N.3   166  LYS166     -0.1231
     96  CA         9.6230  -12.4200  -26.8350 C.3   166  LYS166      0.1693
     97  C          9.5930  -13.5010  -25.7680 C.2   166  LYS166      0.2591
     98  O          8.5190  -14.0320  -25.4100 O.2   166  LYS166     -0.2718
     99  CB        10.0210  -12.9440  -28.2180 C.3   166  LYS166      0.0285
    100  CG         8.9650  -13.9650  -28.6430 C.3   166  LYS166      0.0035
    101  CD         8.9520  -14.3410  -30.1050 C.3   166  LYS166      0.0206
    102  CE         9.9100  -15.4920  -30.3550 C.3   166  LYS166      0.1093
    103  NZ        11.2120  -15.2620  -29.6480 N.3   166  LYS166     -0.1314
    104  N         10.7660  -13.7540  -25.1930 N.am  167  GLU167     -0.1979
    105  CA        10.9010  -14.8370  -24.2200 C.3   167  GLU167      0.1602
    106  C         10.1730  -14.5960  -22.9040 C.2   167  GLU167      0.2287
    107  O          9.5190  -15.4960  -22.3860 O.2   167  GLU167     -0.2864
    108  CB        12.3520  -15.2310  -23.9930 C.3   167  GLU167      0.0415
    109  CG        12.9930  -16.0240  -25.1490 C.3   167  GLU167      0.1163
    110  CD        12.1460  -17.2070  -25.7090 C.2   167  GLU167      0.3649
    111  OE1       11.2660  -17.7820  -25.0070 O.co2 167  GLU167     -0.2457
    112  OE2       12.3890  -17.5660  -26.8840 O.co2 167  GLU167     -0.2457
@<TRIPOS>BOND
     1    49    47   ar
     2    49    48   ar
     3    47    45   ar
     4    48    46   ar
     5    45    44   ar
     6    57    56   ar
     7    58    56   ar
     8    46    44   ar
     9    44    43    1
    10    56    55    1
    11    39    40    1
    12    54    55    1
    13    54    51    1
    14    43    40    1
    15    40    41    1
    16    74    73    1
    17    73    72    1
    18    26    25    2
    19    51    50    1
    20    51    52    1
    21    29    28    2
    22    30    28   am
    23    41    42    2
    24    28    27    1
    25    27    24    1
    26    25    24    1
    27    25    31   am
    28    24    23    1
    29    52    53    2
    30    52    59   am
    31    82    80   am
    32    72    71    1
    33    81    80    2
    34    59    60    1
    35    33    32    1
    36    33    34    2
    37    71    68    1
    38    80    79    1
    39    31    32    1
    40    32    35    1
    41   102   101    1
    42   102   103    1
    43   101   100    1
    44    60    63    1
    45    60    61    1
    46    38    36    1
    47    68    67    1
    48    68    69    1
    49    35    36    1
    50    79    76    1
    51    63    64    1
    52    22    21    2
    53    75    69   am
    54    75    76    1
    55    69    70    2
    56    76    77    1
    57    36    37    1
    58   100    99    1
    59    61    62    2
    60    20    21    1
    61    20    19    1
    62    65    64    1
    63    99    96    1
    64    64    66    1
    65    19    14   am
    66    77    78    2
    67    77    83   am
    68   112   110   ar
    69    96    95    1
    70    96    97    1
    71    14    15    2
    72    14    13    1
    73    83    84    1
    74    97    98    2
    75    97   104   am
    76   110   109    1
    77   110   111   ar
    78    16    13    1
    79    16    17    1
    80    13    12    1
    81    89    91   ar
    82    89    88   ar
    83    91    93   ar
    84   104   105    1
    85   109   108    1
    86    84    85    1
    87    84    87    1
    88    85    86    2
    89   105   108    1
    90   105   106    1
    91    87    88    1
    92    17    18    1
    93    88    90   ar
    94    12    18    1
    95    93    94    1
    96    93    92   ar
    97     7     9   ar
    98     7     6   ar
    99     5     6    1
   100     5     2    1
   101     1     2    1
   102     9    11   ar
   103     6     8   ar
   104     2     3    1
   105    90    92   ar
   106   106   107    2
   107    11    10   ar
   108     8    10   ar
   109     3     4    2
