@<TRIPOS>MOLECULE
tmp/2ylwA02.pdb
 128 122 0 0 0
SMALL
GASTEIGER

@<TRIPOS>ATOM
      1  N         48.4480  -19.6970   21.2890 N.3    56  ASP56      -0.1225
      2  CA        49.3930  -18.7460   20.7070 C.3    56  ASP56       0.1805
      3  C         48.9130  -17.2790   20.8090 C.2    56  ASP56       0.2597
      4  O         49.6790  -16.3310   20.6470 O.2    56  ASP56      -0.2718
      5  CB        49.7400  -19.1150   19.2610 C.3    56  ASP56       0.1424
      6  CG        50.9310  -20.0710   19.1590 C.2    56  ASP56       0.3668
      7  OD1       51.3600  -20.6630   20.1600 O.co2  56  ASP56      -0.2456
      8  OD2       51.4630  -20.2490   18.0530 O.co2  56  ASP56      -0.2456
      9  N         47.6370  -17.0830   21.0750 N.am   57  ILE57      -0.1980
     10  CA        47.1410  -15.7570   21.3670 C.3    57  ILE57       0.1595
     11  C         47.2590  -15.5630   22.8650 C.2    57  ILE57       0.2287
     12  O         46.9430  -16.4590   23.6470 O.2    57  ILE57      -0.2864
     13  CB        45.6530  -15.6480   20.9100 C.3    57  ILE57       0.0276
     14  CG1       45.5440  -15.6560   19.3670 C.3    57  ILE57       0.0022
     15  CG2       44.8990  -14.4890   21.6010 C.3    57  ILE57       0.0022
     16  CD1       46.0350  -14.3590   18.6690 C.3    57  ILE57       0.0001
     17  N         39.1500  -27.2430   13.6790 N.3   143  LEU143     -0.1245
     18  CA        40.2250  -28.2060   13.7250 C.3   143  LEU143      0.1561
     19  C         39.7920  -29.2980   14.6710 C.2   143  LEU143      0.2260
     20  O         40.2810  -29.4100   15.8190 O.2   143  LEU143     -0.2867
     21  CB        41.5210  -27.4950   14.1550 C.3   143  LEU143      0.0270
     22  CG        42.0120  -26.4640   13.1250 C.3   143  LEU143      0.0019
     23  CD1       42.5350  -25.2240   13.8310 C.3   143  LEU143      0.0001
     24  CD2       43.0480  -27.0360   12.1650 C.3   143  LEU143      0.0001
     25  N         48.0440   -6.6150   17.9290 N.3   248  ARG248     -0.1245
     26  CA        49.1760   -6.4090   17.0130 C.3   248  ARG248      0.1563
     27  C         49.4210   -4.9950   16.4450 C.2   248  ARG248      0.2260
     28  O         48.5720   -4.3990   15.7950 O.2   248  ARG248     -0.2867
     29  CB        49.0010   -7.3450   15.8080 C.3   248  ARG248      0.0307
     30  CG        50.2490   -7.9520   15.1800 C.3   248  ARG248      0.0489
     31  CD        49.8310   -9.2110   14.4660 C.3   248  ARG248      0.2205
     32  NE        49.4790  -10.2700   15.4310 N.pl3 248  ARG248     -0.0865
     33  CZ        48.6850  -11.3000   15.1430 C.cat 248  ARG248      0.5346
     34  NH1       48.1820  -11.3910   13.9110 N.pl3 248  ARG248      0.1354
     35  NH2       48.3920  -12.2250   16.0780 N.pl3 248  ARG248      0.1354
     36  N         53.4420  -13.5200   17.9660 N.3   276  PRO276     -0.2116
     37  CA        53.1960  -13.6290   16.5400 C.3   276  PRO276      0.1372
     38  C         53.3250  -12.2540   15.8510 C.2   276  PRO276      0.2244
     39  O         53.2450  -12.1260   14.6060 O.2   276  PRO276     -0.2868
     40  CB        51.7690  -14.1100   16.5220 C.3   276  PRO276      0.0268
     41  CG        51.1340  -13.3110   17.7030 C.3   276  PRO276      0.0207
     42  CD        52.1980  -13.4020   18.7530 C.3   276  PRO276      0.0892
     43  N         54.5130  -10.9100   12.3870 N.3   279  LEU279     -0.1245
     44  CA        53.7620  -11.1060   11.1570 C.3   279  LEU279      0.1561
     45  C         53.3120   -9.8220   10.4320 C.2   279  LEU279      0.2260
     46  O         53.0160   -9.8380    9.2320 O.2   279  LEU279     -0.2867
     47  CB        52.5460  -11.9370   11.4760 C.3   279  LEU279      0.0270
     48  CG        52.5130  -13.2490   10.7470 C.3   279  LEU279      0.0019
     49  CD1       51.1300  -13.8420   11.0110 C.3   279  LEU279      0.0001
     50  CD2       52.7830  -13.0030    9.2300 C.3   279  LEU279      0.0001
     51  N         50.3920  -21.3520    9.1660 N.3   327  LYS327     -0.1231
     52  CA        50.2090  -20.7480   10.5190 C.3   327  LYS327      0.1693
     53  C         51.5850  -20.5770   11.1920 C.2   327  LYS327      0.2591
     54  O         52.4010  -21.5570   11.2470 O.2   327  LYS327     -0.2718
     55  CB        49.3020  -21.5980   11.3640 C.3   327  LYS327      0.0285
     56  CG        49.0550  -21.0420   12.6770 C.3   327  LYS327      0.0035
     57  CD        49.9840  -21.6310   13.7410 C.3   327  LYS327      0.0206
     58  CE        49.8100  -20.8910   15.0790 C.3   327  LYS327      0.1093
     59  NZ        49.5390  -21.8970   16.1420 N.3   327  LYS327     -0.1314
     60  N         51.8820  -19.3500   11.6300 N.am  328  LEU328     -0.1980
     61  CA        53.1980  -19.0770   12.1810 C.3   328  LEU328      0.1596
     62  C         53.1910  -19.5580   13.6030 C.2   328  LEU328      0.2287
     63  O         52.3780  -19.0980   14.4020 O.2   328  LEU328     -0.2864
     64  CB        53.5040  -17.5920   12.1280 C.3   328  LEU328      0.0297
     65  CG        54.6720  -17.0110   12.9260 C.3   328  LEU328      0.0022
     66  CD1       56.0440  -17.2160   12.2560 C.3   328  LEU328      0.0001
     67  CD2       54.3780  -15.5230   13.1000 C.3   328  LEU328      0.0001
     68  N         54.4150  -20.4160   17.5730 N.3   330  LEU330     -0.1245
     69  CA        55.2410  -19.9360   18.7060 C.3   330  LEU330      0.1561
     70  C         55.8950  -21.1030   19.3720 C.2   330  LEU330      0.2260
     71  O         55.1840  -21.9680   19.8710 O.2   330  LEU330     -0.2867
     72  CB        54.4470  -19.1790   19.7630 C.3   330  LEU330      0.0270
     73  CG        53.7080  -17.9530   19.2620 C.3   330  LEU330      0.0019
     74  CD1       52.9750  -17.3400   20.4500 C.3   330  LEU330      0.0001
     75  CD2       54.6030  -16.9550   18.5920 C.3   330  LEU330      0.0001
     76  N         40.2030  -18.6540   11.6750 N.3   432  ALA432     -0.1231
     77  CA        41.4400  -18.8120   12.3990 C.3   432  ALA432      0.1694
     78  C         42.4970  -17.8220   11.9440 C.2   432  ALA432      0.2592
     79  O         43.6580  -17.9340   12.3000 O.2   432  ALA432     -0.2718
     80  CB        41.9620  -20.2410   12.2520 C.3   432  ALA432      0.0304
     81  N         42.1300  -16.8630   11.1230 N.am  433  LEU433     -0.1966
     82  CA        43.1100  -15.8630   10.7180 C.3   433  LEU433      0.1728
     83  C         43.0490  -14.7580   11.7370 C.2   433  LEU433      0.2616
     84  O         43.5480  -13.6840   11.5160 O.2   433  LEU433     -0.2715
     85  CB        42.8090  -15.3100    9.3340 C.3   433  LEU433      0.0311
     86  CG        43.2400  -16.1590    8.1450 C.3   433  LEU433      0.0022
     87  CD1       43.4380  -15.2650    6.9660 C.3   433  LEU433      0.0001
     88  CD2       44.5470  -17.0150    8.3560 C.3   433  LEU433      0.0001
     89  N         42.3760  -15.0010   12.8500 N.am  434  SER434     -0.1950
     90  CA        42.2350  -14.0000   13.8690 C.3   434  SER434      0.1924
     91  C         42.1050  -14.7390   15.1850 C.2   434  SER434      0.2314
     92  O         41.7590  -15.9430   15.2170 O.2   434  SER434     -0.2863
     93  CB        40.9830  -13.1450   13.5870 C.3   434  SER434      0.2116
     94  OG        39.8550  -13.4900   14.3960 O.3   434  SER434     -0.2180
     95  N         40.4880  -16.3630   17.7840 N.3   436  MET436     -0.1245
     96  CA        39.2720  -17.0780   17.4980 C.3   436  MET436      0.1570
     97  C         38.1970  -16.6870   18.4680 C.2   436  MET436      0.2261
     98  O         37.0140  -16.8260   18.1380 O.2   436  MET436     -0.2867
     99  CB        39.4730  -18.5810   17.3760 C.3   436  MET436      0.0387
    100  CG        40.1710  -18.8780   16.0770 C.3   436  MET436      0.0595
    101  SD        39.4290  -20.1950   15.1560 S.3   436  MET436     -0.1393
    102  CE        37.9090  -19.5300   14.4940 C.3   436  MET436      0.0692
    103  N         46.8520  -26.3040    5.6960 N.3   491  TRP491     -0.1227
    104  CA        45.5290  -26.8160    5.9590 C.3   491  TRP491      0.1737
    105  C         44.4590  -25.7360    5.6070 C.2   491  TRP491      0.2595
    106  O         43.3150  -26.0440    5.3190 O.2   491  TRP491     -0.2718
    107  CB        45.4430  -27.3570    7.3960 C.3   491  TRP491      0.0564
    108  CG        45.6580  -26.3380    8.4840 C.ar  491  TRP491      0.0003
    109  CD1       46.7730  -26.1860    9.2770 C.ar  491  TRP491      0.0946
    110  CD2       44.7190  -25.3630    8.9230 C.ar  491  TRP491      0.0152
    111  NE1       46.5790  -25.1680   10.1770 N.ar  491  TRP491     -0.2442
    112  CE2       45.3210  -24.6460    9.9780 C.ar  491  TRP491      0.0810
    113  CE3       43.4030  -25.0310    8.5460 C.ar  491  TRP491      0.0012
    114  CZ2       44.6380  -23.6040   10.6530 C.ar  491  TRP491      0.0191
    115  CZ3       42.7290  -23.9670    9.2230 C.ar  491  TRP491      0.0001
    116  CH2       43.3430  -23.2940   10.2460 C.ar  491  TRP491      0.0015
    117  N         44.8680  -24.4710    5.5910 N.am  492  TYR492     -0.1976
    118  CA        44.0000  -23.3690    5.1820 C.3   492  TYR492      0.1639
    119  C         43.4790  -23.6720    3.8010 C.2   492  TYR492      0.2290
    120  O         42.4160  -23.2610    3.4030 O.2   492  TYR492     -0.2864
    121  CB        44.8380  -22.0860    5.0510 C.3   492  TYR492      0.0560
    122  CG        45.4270  -21.4670    6.3270 C.ar  492  TYR492     -0.0198
    123  CD1       44.6560  -21.3160    7.4680 C.ar  492  TYR492     -0.0009
    124  CD2       46.7480  -21.0000    6.3650 C.ar  492  TYR492     -0.0009
    125  CE1       45.1570  -20.7240    8.6020 C.ar  492  TYR492      0.0417
    126  CE2       47.2620  -20.3880    7.5230 C.ar  492  TYR492      0.0417
    127  CZ        46.4500  -20.2520    8.6320 C.ar  492  TYR492      0.1957
    128  OH        46.8890  -19.6760    9.7950 O.3   492  TYR492     -0.2866
@<TRIPOS>BOND
     1   120   119    2
     2   119   118    1
     3   121   118    1
     4   121   122    1
     5   118   117    1
     6   106   105    2
     7   117   105   am
     8   105   104    1
     9   103   104    1
    10   104   107    1
    11   122   124   ar
    12   122   123   ar
    13   124   126   ar
    14    87    86    1
    15   107   108    1
    16   123   125   ar
    17   126   127   ar
    18    86    88    1
    19    86    85    1
    20   108   110   ar
    21   108   109   ar
    22   113   110   ar
    23   113   115   ar
    24   125   127   ar
    25   127   128    1
    26   110   112   ar
    27    51    52    1
    28   115   116   ar
    29    50    48    1
    30    46    45    2
    31   109   111   ar
    32    85    82    1
    33   112   111   ar
    34   112   114   ar
    35   116   114   ar
    36    45    44    1
    37    52    53    1
    38    52    55    1
    39    82    81    1
    40    82    83    1
    41    48    49    1
    42    48    47    1
    43    81    78   am
    44    44    47    1
    45    44    43    1
    46    53    54    2
    47    53    60   am
    48    55    56    1
    49    84    83    2
    50    60    61    1
    51    76    77    1
    52    83    89   am
    53    78    79    2
    54    78    77    1
    55    64    61    1
    56    64    65    1
    57    24    22    1
    58    61    62    1
    59    80    77    1
    60    66    65    1
    61    56    57    1
    62    89    90    1
    63    65    67    1
    64    22    23    1
    65    22    21    1
    66    93    90    1
    67    93    94    1
    68    62    63    2
    69    17    18    1
    70    18    21    1
    71    18    19    1
    72    57    58    1
    73    90    91    1
    74    34    33    1
    75    31    30    1
    76    31    32    1
    77   102   101    1
    78    39    38    2
    79    19    20    2
    80    58    59    1
    81    33    32    2
    82    33    35    1
    83   101   100    1
    84    30    29    1
    85    91    92    2
    86    28    27    2
    87    29    26    1
    88    38    37    1
    89   100    99    1
    90    27    26    1
    91    40    37    1
    92    40    41    1
    93    37    36    1
    94    26    25    1
    95    99    96    1
    96    96    95    1
    97    96    97    1
    98    68    69    1
    99    41    42    1
   100    36    42    1
   101     8     6   ar
   102    98    97    2
   103    75    73    1
   104    16    14    1
   105    69    70    1
   106    69    72    1
   107     6     5    1
   108     6     7   ar
   109     5     2    1
   110    73    72    1
   111    73    74    1
   112    14    13    1
   113    70    71    2
   114     4     3    2
   115     2     3    1
   116     2     1    1
   117     3     9   am
   118    13    10    1
   119    13    15    1
   120     9    10    1
   121    10    11    1
   122    11    12    2
