@<TRIPOS>MOLECULE
tmp/2ylxA02.pdb
 150 144 0 0 0
SMALL
GASTEIGER

@<TRIPOS>ATOM
      1  N        -38.5740   32.5750  -21.7670 N.3    55  ILE55      -0.1245
      2  CA       -37.1360   32.7680  -21.9840 C.3    55  ILE55       0.1561
      3  C        -36.9690   32.9470  -23.5120 C.2    55  ILE55       0.2260
      4  O        -37.6350   32.2860  -24.3400 O.2    55  ILE55      -0.2867
      5  CB       -36.2790   31.5550  -21.5100 C.3    55  ILE55       0.0252
      6  CG1      -36.4930   31.2290  -20.0240 C.3    55  ILE55       0.0019
      7  CG2      -34.8040   31.7940  -21.7390 C.3    55  ILE55       0.0019
      8  CD1      -35.8880   32.3130  -19.0380 C.3    55  ILE55       0.0001
      9  N        -26.2520   33.2470  -12.4900 N.3   241  PRO241     -0.2102
     10  CA       -27.2560   32.6610  -11.5980 C.3   241  PRO241      0.1504
     11  C        -28.4760   32.1160  -12.3670 C.2   241  PRO241      0.2576
     12  O        -28.9550   31.0240  -12.0650 O.2   241  PRO241     -0.2718
     13  CB       -27.6920   33.8300  -10.7180 C.3   241  PRO241      0.0282
     14  CG       -26.6270   34.8220  -10.8110 C.3   241  PRO241      0.0208
     15  CD       -26.0180   34.6780  -12.1900 C.3   241  PRO241      0.0893
     16  N        -28.9240   32.8480  -13.4030 N.am  242  GLY242     -0.1957
     17  CA       -30.1280   32.4840  -14.1310 C.3   242  GLY242      0.1869
     18  C        -30.0800   31.6120  -15.3530 C.2   242  GLY242      0.2309
     19  O        -31.1100   31.2020  -15.8190 O.2   242  GLY242     -0.2863
     20  N        -29.3870   38.0500  -18.7030 N.3   246  ARG246     -0.1245
     21  CA       -29.9660   38.9990  -17.7850 C.3   246  ARG246      0.1563
     22  C        -28.8850   39.7590  -17.1030 C.2   246  ARG246      0.2260
     23  O        -27.9590   39.1740  -16.5850 O.2   246  ARG246     -0.2867
     24  CB       -30.7880   38.2530  -16.7130 C.3   246  ARG246      0.0307
     25  CG       -31.4420   39.1670  -15.6580 C.3   246  ARG246      0.0489
     26  CD       -32.5320   38.4650  -14.9380 C.3   246  ARG246      0.2205
     27  NE       -33.3450   37.6400  -15.8530 N.pl3 246  ARG246     -0.0865
     28  CZ       -34.1290   36.6140  -15.4740 C.cat 246  ARG246      0.5346
     29  NH1      -34.2600   36.2560  -14.1610 N.pl3 246  ARG246      0.1354
     30  NH2      -34.8000   35.9330  -16.4030 N.pl3 246  ARG246      0.1354
     31  N        -27.1910   41.6160  -14.1920 N.3   248  GLN248     -0.1245
     32  CA       -27.0850   41.4340  -12.7550 C.3   248  GLN248      0.1566
     33  C        -26.8610   42.8480  -12.2130 C.2   248  GLN248      0.2260
     34  O        -25.7280   43.3180  -12.1450 O.2   248  GLN248     -0.2867
     35  CB       -25.8850   40.5170  -12.5250 C.3   248  GLN248      0.0367
     36  CG       -26.1000   39.2510  -11.6590 C.3   248  GLN248      0.0905
     37  CD       -27.4080   38.4560  -11.8430 C.2   248  GLN248      0.2608
     38  OE1      -28.0610   38.0470  -10.8320 O.2   248  GLN248     -0.2717
     39  NE2      -27.7930   38.1960  -13.1180 N.am  248  GLN248     -0.0878
     40  N        -36.3530   41.2590  -12.6850 N.3   277  LEU277     -0.1231
     41  CA       -36.1150   40.4560  -11.4560 C.3   277  LEU277      0.1693
     42  C        -34.7190   40.7150  -10.8970 C.2   277  LEU277      0.2591
     43  O        -34.4870   40.5920   -9.6950 O.2   277  LEU277     -0.2718
     44  CB       -36.2490   38.9500  -11.7250 C.3   277  LEU277      0.0284
     45  CG       -37.6400   38.3640  -11.9160 C.3   277  LEU277      0.0019
     46  CD1      -37.5460   36.9790  -12.5990 C.3   277  LEU277      0.0001
     47  CD2      -38.3730   38.3100  -10.5710 C.3   277  LEU277      0.0001
     48  N        -33.7610   41.0200  -11.7670 N.am  278  ALA278     -0.1980
     49  CA       -32.4110   41.3460  -11.2980 C.3   278  ALA278      0.1597
     50  C        -32.0450   42.8130  -11.5100 C.2   278  ALA278      0.2287
     51  O        -30.8850   43.1220  -11.7460 O.2   278  ALA278     -0.2864
     52  CB       -31.3560   40.4250  -11.9350 C.3   278  ALA278      0.0319
     53  N        -35.0080   39.9420   -4.2160 N.3   284  LEU284     -0.1245
     54  CA       -35.4650   38.6720   -3.6500 C.3   284  LEU284      0.1561
     55  C        -34.9390   38.3690   -2.2560 C.2   284  LEU284      0.2260
     56  O        -35.1890   37.2760   -1.7700 O.2   284  LEU284     -0.2867
     57  CB       -35.1830   37.4800   -4.6050 C.3   284  LEU284      0.0270
     58  CG       -36.2170   37.4920   -5.7650 C.3   284  LEU284      0.0019
     59  CD1      -35.7220   36.7220   -6.9980 C.3   284  LEU284      0.0001
     60  CD2      -37.5170   36.9010   -5.2690 C.3   284  LEU284      0.0001
     61  N        -43.6620   32.6420   -9.5430 N.3   325  ARG325     -0.1245
     62  CA       -42.9860   32.8370  -10.8640 C.3   325  ARG325      0.1563
     63  C        -43.4630   34.1190  -11.5860 C.2   325  ARG325      0.2260
     64  O        -44.6750   34.3620  -11.6880 O.2   325  ARG325     -0.2867
     65  CB       -43.0960   31.5770  -11.7650 C.3   325  ARG325      0.0307
     66  CG       -42.1330   31.6150  -13.0030 C.3   325  ARG325      0.0489
     67  CD       -41.3100   30.3050  -13.1180 C.3   325  ARG325      0.2205
     68  NE       -40.2140   30.4700  -14.0510 N.pl3 325  ARG325     -0.0865
     69  CZ       -38.9830   30.8530  -13.7080 C.cat 325  ARG325      0.5346
     70  NH1      -38.6640   31.1000  -12.4270 N.pl3 325  ARG325      0.1354
     71  NH2      -38.0570   30.9980  -14.6530 N.pl3 325  ARG325      0.1354
     72  N        -31.2030   23.7510   -9.1400 N.3   428  PRO428     -0.2116
     73  CA       -31.7700   25.0200   -9.6730 C.3   428  PRO428      0.1372
     74  C        -33.1280   24.8570  -10.3970 C.2   428  PRO428      0.2244
     75  O        -34.0610   25.6140  -10.1040 O.2   428  PRO428     -0.2868
     76  CB       -30.6620   25.5360  -10.5940 C.3   428  PRO428      0.0268
     77  CG       -29.3660   25.0150   -9.8440 C.3   428  PRO428      0.0207
     78  CD       -29.7460   23.6420   -9.3730 C.3   428  PRO428      0.0892
     79  N        -35.9570   27.5010  -11.3800 N.3   431  LEU431     -0.1231
     80  CA       -35.4530   28.8320  -11.0750 C.3   431  LEU431      0.1693
     81  C        -34.3170   29.2430  -12.0150 C.2   431  LEU431      0.2593
     82  O        -33.5260   30.0640  -11.6930 O.2   431  LEU431     -0.2718
     83  CB       -34.9660   28.9290   -9.6230 C.3   431  LEU431      0.0284
     84  CG       -35.9550   28.9910   -8.4510 C.3   431  LEU431      0.0019
     85  CD1      -35.1060   28.9750   -7.1790 C.3   431  LEU431      0.0001
     86  CD2      -36.9380   30.2200   -8.4430 C.3   431  LEU431      0.0001
     87  N        -34.2360   28.6210  -13.1720 N.am  432  SER432     -0.1938
     88  CA       -33.2840   28.9990  -14.2030 C.3   432  SER432      0.2055
     89  C        -33.9930   28.8870  -15.5450 C.2   432  SER432      0.2643
     90  O        -35.1880   28.4600  -15.6270 O.2   432  SER432     -0.2714
     91  CB       -32.1970   27.9720  -14.2630 C.3   432  SER432      0.2130
     92  OG       -32.8670   26.7740  -14.6880 O.3   432  SER432     -0.2179
     93  N        -33.2630   29.2880  -16.5860 N.am  433  ASN433     -0.1971
     94  CA       -33.5950   28.9360  -17.9350 C.3   433  ASN433      0.1688
     95  C        -33.4500   27.4430  -17.9170 C.2   433  ASN433      0.2292
     96  O        -32.3800   26.9400  -17.7710 O.2   433  ASN433     -0.2864
     97  CB       -32.5590   29.5730  -18.8630 C.3   433  ASN433      0.1181
     98  CG       -32.4760   28.9210  -20.2510 C.2   433  ASN433      0.2629
     99  OD1      -33.3060   28.1000  -20.6690 O.2   433  ASN433     -0.2716
    100  ND2      -31.4250   29.2870  -20.9670 N.am  433  ASN433     -0.0877
    101  N        -38.3220   33.7990   -0.7900 N.3   483  TYR483     -0.1241
    102  CA       -39.0590   32.7380   -1.4390 C.3   483  TYR483      0.1605
    103  C        -39.9820   31.8510   -0.5430 C.2   483  TYR483      0.2264
    104  O        -41.1140   31.5360   -0.9750 O.2   483  TYR483     -0.2867
    105  CB       -38.1200   31.7960   -2.1920 C.3   483  TYR483      0.0534
    106  CG       -37.6870   32.2630   -3.5590 C.ar  483  TYR483     -0.0201
    107  CD1      -38.6270   32.4640   -4.5970 C.ar  483  TYR483     -0.0009
    108  CD2      -36.3510   32.4760   -3.8390 C.ar  483  TYR483     -0.0009
    109  CE1      -38.2330   32.8780   -5.8620 C.ar  483  TYR483      0.0417
    110  CE2      -35.9330   32.8880   -5.1370 C.ar  483  TYR483      0.0417
    111  CZ       -36.8870   33.0850   -6.1310 C.ar  483  TYR483      0.1957
    112  OH       -36.4730   33.4780   -7.3870 O.3   483  TYR483     -0.2866
    113  N        -33.2040   24.7090   -5.0920 N.3   505  TYR505     -0.1227
    114  CA       -31.9580   25.3690   -4.7900 C.3   505  TYR505      0.1736
    115  C        -31.9750   26.8210   -5.3180 C.2   505  TYR505      0.2595
    116  O        -32.2040   27.0370   -6.5150 O.2   505  TYR505     -0.2718
    117  CB       -30.8540   24.5750   -5.4570 C.3   505  TYR505      0.0548
    118  CG       -29.4660   25.1470   -5.2680 C.ar  505  TYR505     -0.0200
    119  CD1      -28.7130   24.8840   -4.1000 C.ar  505  TYR505     -0.0009
    120  CD2      -28.8750   25.9280   -6.2640 C.ar  505  TYR505     -0.0009
    121  CE1      -27.4350   25.4170   -3.9510 C.ar  505  TYR505      0.0417
    122  CE2      -27.6070   26.4300   -6.1190 C.ar  505  TYR505      0.0417
    123  CZ       -26.8900   26.1940   -4.9800 C.ar  505  TYR505      0.1957
    124  OH       -25.6300   26.7420   -4.8590 O.3   505  TYR505     -0.2866
    125  N        -31.7050   27.7970   -4.4520 N.am  506  VAL506     -0.1966
    126  CA       -31.6750   29.2130   -4.8280 C.3   506  VAL506      0.1727
    127  C        -30.3010   29.9210   -4.9690 C.2   506  VAL506      0.2617
    128  O        -30.2340   31.1550   -5.0940 O.2   506  VAL506     -0.2715
    129  CB       -32.4710   30.0370   -3.8390 C.3   506  VAL506      0.0290
    130  CG1      -33.9060   29.5890   -3.7810 C.3   506  VAL506      0.0023
    131  CG2      -31.8100   30.0360   -2.4260 C.3   506  VAL506      0.0023
    132  N        -29.2090   29.1820   -4.9080 N.am  507  GLY507     -0.1940
    133  CA       -27.9350   29.8090   -4.9310 C.3   507  GLY507      0.2014
    134  C        -27.4540   30.1580   -6.3600 C.2   507  GLY507      0.2639
    135  O        -26.3280   30.6100   -6.5250 O.2   507  GLY507     -0.2714
    136  N        -28.2740   29.9180   -7.3810 N.am  508  GLY508     -0.1939
    137  CA       -27.8920   30.2520   -8.7570 C.3   508  GLY508      0.2014
    138  C        -27.2690   29.0860   -9.4600 C.2   508  GLY508      0.2638
    139  O        -26.5230   28.2870   -8.8600 O.2   508  GLY508     -0.2714
    140  N        -27.5880   28.9460  -10.7470 N.am  509  PHE509     -0.1973
    141  CA       -27.1030   27.7940  -11.5160 C.3   509  PHE509      0.1639
    142  C        -25.5530   27.6770  -11.5320 C.2   509  PHE509      0.2290
    143  O        -24.9820   26.5620  -11.4480 O.2   509  PHE509     -0.2864
    144  CB       -27.5910   27.9120  -12.9450 C.3   509  PHE509      0.0560
    145  CG       -26.9270   26.9420  -13.8800 C.ar  509  PHE509     -0.0200
    146  CD1      -27.3870   25.6300  -13.9610 C.ar  509  PHE509     -0.0042
    147  CD2      -25.8170   27.3170  -14.6210 C.ar  509  PHE509     -0.0042
    148  CE1      -26.7570   24.6970  -14.7830 C.ar  509  PHE509     -0.0003
    149  CE2      -25.1990   26.4060  -15.4790 C.ar  509  PHE509     -0.0003
    150  CZ       -25.6690   25.0900  -15.5830 C.ar  509  PHE509     -0.0000
@<TRIPOS>BOND
     1     4     3    2
     2     3     2    1
     3     2     1    1
     4     2     5    1
     5     7     5    1
     6     5     6    1
     7   100    98   am
     8    99    98    2
     9    98    97    1
    10     6     8    1
    11    97    94    1
    12    20    21    1
    13    94    95    1
    14    94    93    1
    15    95    96    2
    16    21    22    1
    17    21    24    1
    18    22    23    2
    19    24    25    1
    20    93    89   am
    21    30    28    1
    22    27    28    2
    23    27    26    1
    24    19    18    2
    25    25    26    1
    26    90    89    2
    27   150   149   ar
    28   150   148   ar
    29    89    88    1
    30   149   147   ar
    31    28    29    1
    32    18    17    1
    33   148   146   ar
    34    92    91    1
    35    71    69    1
    36   147   145   ar
    37    91    88    1
    38    88    87    1
    39    31    32    1
    40    17    16    1
    41    68    69    2
    42    68    67    1
    43   146   145   ar
    44   145   144    1
    45    69    70    1
    46    16    11   am
    47    87    81   am
    48    39    37   am
    49    67    66    1
    50    66    65    1
    51   144   141    1
    52    32    35    1
    53    32    33    1
    54    40    41    1
    55    46    45    1
    56    35    36    1
    57     9    15    1
    58     9    10    1
    59    11    12    2
    60    11    10    1
    61    33    34    2
    62    15    14    1
    63    81    82    2
    64    81    80    1
    65    52    49    1
    66    45    44    1
    67    45    47    1
    68    37    36    1
    69    37    38    2
    70    48    49    1
    71    48    42   am
    72    65    62    1
    73    51    50    2
    74    44    41    1
    75    64    63    2
    76    10    13    1
    77    63    62    1
    78   142   141    1
    79   142   143    2
    80   141   140    1
    81    50    49    1
    82    41    42    1
    83    79    80    1
    84    80    83    1
    85    42    43    2
    86    62    61    1
    87    14    13    1
    88   140   138   am
    89    76    77    1
    90    76    73    1
    91    74    75    2
    92    74    73    1
    93    77    78    1
    94    73    72    1
    95    83    84    1
    96   138   139    2
    97   138   137    1
    98    78    72    1
    99   137   136    1
   100    84    86    1
   101    84    85    1
   102   112   111    1
   103   136   134   am
   104    59    58    1
   105   135   134    2
   106   116   115    2
   107   134   133    1
   108   120   122   ar
   109   120   118   ar
   110   111   109   ar
   111   111   110   ar
   112   122   123   ar
   113   109   107   ar
   114    58    60    1
   115    58    57    1
   116   117   118    1
   117   117   114    1
   118   115   114    1
   119   115   125   am
   120   118   119   ar
   121   110   108   ar
   122   128   127    2
   123   113   114    1
   124   123   124    1
   125   123   121   ar
   126   127   132   am
   127   127   126    1
   128   133   132    1
   129   126   125    1
   130   126   129    1
   131    57    54    1
   132   107   106   ar
   133    53    54    1
   134   119   121   ar
   135   129   130    1
   136   129   131    1
   137   108   106   ar
   138    54    55    1
   139   106   105    1
   140    55    56    2
   141   105   102    1
   142   102   101    1
   143   102   103    1
   144   104   103    2
