@<TRIPOS>MOLECULE
tmp/2ylyA00.pdb
 193 181 0 0 0
SMALL
GASTEIGER

@<TRIPOS>ATOM
      1  N        -25.2870    0.0260  -32.3840 N.3    29  MET29      -0.1245
      2  CA       -26.1870   -0.6370  -33.3390 C.3    29  MET29       0.1570
      3  C        -25.3920   -1.5920  -34.2180 C.2    29  MET29       0.2261
      4  O        -25.7730   -2.7550  -34.3520 O.2    29  MET29      -0.2867
      5  CB       -26.9320    0.3850  -34.2250 C.3    29  MET29       0.0387
      6  CG       -27.6700    1.4520  -33.4530 C.3    29  MET29       0.0595
      7  SD       -28.9280    0.7710  -32.3610 S.3    29  MET29      -0.1393
      8  CE       -30.3380    0.8880  -33.4020 C.3    29  MET29       0.0692
      9  N        -23.6370   -4.5380  -32.0670 N.3    32  LEU32      -0.1231
     10  CA       -24.6390   -5.5610  -31.7710 C.3    32  LEU32       0.1693
     11  C        -24.9750   -6.3620  -33.0200 C.2    32  LEU32       0.2592
     12  O        -25.0720   -7.5870  -32.9310 O.2    32  LEU32      -0.2718
     13  CB       -25.9200   -4.9450  -31.1730 C.3    32  LEU32       0.0284
     14  CG       -25.8720   -4.5330  -29.6970 C.3    32  LEU32       0.0019
     15  CD1      -27.0650   -3.6830  -29.3460 C.3    32  LEU32       0.0001
     16  CD2      -25.7780   -5.7430  -28.7670 C.3    32  LEU32       0.0001
     17  N        -25.1430   -5.6860  -34.1810 N.am   33  THR33      -0.1953
     18  CA       -25.4410   -6.3690  -35.4460 C.3    33  THR33       0.1897
     19  C        -24.2290   -7.1430  -35.9540 C.2    33  THR33       0.2313
     20  O        -24.4070   -8.1970  -36.5590 O.2    33  THR33      -0.2863
     21  CB       -26.1410   -5.4710  -36.4750 C.3    33  THR33       0.1794
     22  OG1      -25.3390   -4.3290  -36.7490 O.3    33  THR33      -0.2208
     23  CG2      -27.5370   -5.0510  -36.0360 C.3    33  THR33       0.0378
     24  N        -21.9520   -8.5880  -33.8910 N.3    35  LEU35      -0.1231
     25  CA       -21.9370   -9.7400  -33.0010 C.3    35  LEU35       0.1693
     26  C        -23.0030  -10.7520  -33.3920 C.2    35  LEU35       0.2591
     27  O        -22.7030  -11.9460  -33.4310 O.2    35  LEU35      -0.2718
     28  CB       -22.1190   -9.2950  -31.5450 C.3    35  LEU35       0.0284
     29  CG       -22.1330  -10.4120  -30.5010 C.3    35  LEU35       0.0019
     30  CD1      -20.7450  -10.9540  -30.2370 C.3    35  LEU35       0.0001
     31  CD2      -22.7200   -9.9270  -29.2290 C.3    35  LEU35       0.0001
     32  N        -24.2400  -10.2750  -33.6870 N.am   36  ALA36      -0.1980
     33  CA       -25.3780  -11.1050  -34.1010 C.3    36  ALA36       0.1597
     34  C        -25.0510  -11.9040  -35.3690 C.2    36  ALA36       0.2287
     35  O        -25.3310  -13.1050  -35.4030 O.2    36  ALA36      -0.2864
     36  CB       -26.6090  -10.2430  -34.3290 C.3    36  ALA36       0.0319
     37  N        -22.3230  -14.5510  -34.6910 N.3    39  GLU39      -0.1245
     38  CA       -22.9160  -15.5900  -33.8490 C.3    39  GLU39       0.1567
     39  C        -23.8660  -16.4600  -34.6430 C.2    39  GLU39       0.2260
     40  O        -23.9410  -17.6610  -34.3890 O.2    39  GLU39      -0.2867
     41  CB       -23.6300  -14.9720  -32.6450 C.3    39  GLU39       0.0388
     42  CG       -23.4580  -15.7730  -31.3680 C.3    39  GLU39       0.1160
     43  CD       -23.7540  -14.9950  -30.1000 C.2    39  GLU39       0.3649
     44  OE1      -23.2090  -13.8780  -29.9420 O.co2  39  GLU39      -0.2457
     45  OE2      -24.5220  -15.5100  -29.2560 O.co2  39  GLU39      -0.2457
     46  N        -33.7070  -17.8620  -34.4870 N.3    69  TRP69      -0.1227
     47  CA       -32.3360  -17.3880  -34.3710 C.3    69  TRP69       0.1737
     48  C        -32.2120  -16.3150  -33.2690 C.2    69  TRP69       0.2595
     49  O        -31.3580  -16.4180  -32.3950 O.2    69  TRP69      -0.2718
     50  CB       -31.7720  -16.9270  -35.7340 C.3    69  TRP69       0.0564
     51  CG       -32.4420  -15.7190  -36.3140 C.ar   69  TRP69       0.0003
     52  CD1      -33.5030  -15.6950  -37.1710 C.ar   69  TRP69       0.0946
     53  CD2      -32.0940  -14.3520  -36.0640 C.ar   69  TRP69       0.0152
     54  NE1      -33.8220  -14.3990  -37.4910 N.ar   69  TRP69      -0.2442
     55  CE2      -32.9990  -13.5510  -36.7940 C.ar   69  TRP69       0.0810
     56  CE3      -31.1350  -13.7200  -35.2470 C.ar   69  TRP69       0.0012
     57  CZ2      -32.9580  -12.1500  -36.7510 C.ar   69  TRP69       0.0191
     58  CZ3      -31.1160  -12.3380  -35.1780 C.ar   69  TRP69       0.0001
     59  CH2      -32.0140  -11.5650  -35.9300 C.ar   69  TRP69       0.0015
     60  N        -33.1610  -15.3680  -33.2600 N.am   70  MET70      -0.1979
     61  CA       -33.2940  -14.2550  -32.3260 C.3    70  MET70       0.1605
     62  C        -33.3900  -14.7820  -30.8920 C.2    70  MET70       0.2287
     63  O        -32.6250  -14.3250  -30.0520 O.2    70  MET70      -0.2864
     64  CB       -34.5290  -13.4210  -32.7370 C.3    70  MET70       0.0413
     65  CG       -34.8700  -12.2560  -31.8140 C.3    70  MET70       0.0598
     66  SD       -33.6700  -10.9030  -31.8240 S.3    70  MET70      -0.1393
     67  CE       -34.3590   -9.8610  -33.0150 C.3    70  MET70       0.0692
     68  N        -30.2760  -16.7800  -29.7990 N.3    73  LEU73      -0.1231
     69  CA       -29.2530  -15.7660  -29.5320 C.3    73  LEU73       0.1693
     70  C        -29.4570  -15.1640  -28.1620 C.2    73  LEU73       0.2591
     71  O        -28.4880  -14.9580  -27.4360 O.2    73  LEU73      -0.2718
     72  CB       -29.2840  -14.6260  -30.5600 C.3    73  LEU73       0.0284
     73  CG       -28.6470  -14.8440  -31.9200 C.3    73  LEU73       0.0019
     74  CD1      -28.6060  -13.5500  -32.6780 C.3    73  LEU73       0.0001
     75  CD2      -27.2420  -15.3790  -31.8030 C.3    73  LEU73       0.0001
     76  N        -30.7160  -14.8760  -27.8140 N.am   74  MET74      -0.1979
     77  CA       -31.0710  -14.2780  -26.5360 C.3    74  MET74       0.1605
     78  C        -30.8830  -15.2360  -25.3870 C.2    74  MET74       0.2287
     79  O        -30.4160  -14.8140  -24.3330 O.2    74  MET74      -0.2864
     80  CB       -32.4790  -13.6910  -26.5720 C.3    74  MET74       0.0413
     81  CG       -32.4980  -12.3280  -27.2130 C.3    74  MET74       0.0598
     82  SD       -34.1340  -11.6050  -27.3870 S.3    74  MET74      -0.1393
     83  CE       -33.7450  -10.1530  -28.2710 C.3    74  MET74       0.0692
     84  N        -27.3000  -15.2620  -24.5270 N.3    77  LEU77      -0.1245
     85  CA       -26.9900  -14.0560  -23.7650 C.3    77  LEU77       0.1561
     86  C        -27.4530  -14.2160  -22.3110 C.2    77  LEU77       0.2260
     87  O        -26.7660  -13.7780  -21.3960 O.2    77  LEU77      -0.2867
     88  CB       -27.6390  -12.8360  -24.4440 C.3    77  LEU77       0.0270
     89  CG       -27.7550  -11.5400  -23.6490 C.3    77  LEU77       0.0019
     90  CD1      -26.4580  -10.7660  -23.6480 C.3    77  LEU77       0.0001
     91  CD2      -28.8680  -10.6900  -24.2000 C.3    77  LEU77       0.0001
     92  N        -24.8800  -16.3430  -20.5600 N.3    80  ARG80      -0.1245
     93  CA       -23.6420  -15.5800  -20.4300 C.3    80  ARG80       0.1563
     94  C        -23.7290  -14.5780  -19.2580 C.2    80  ARG80       0.2260
     95  O        -22.7300  -14.3620  -18.5680 O.2    80  ARG80      -0.2867
     96  CB       -23.3500  -14.8590  -21.7490 C.3    80  ARG80       0.0307
     97  CG       -21.9210  -15.0250  -22.2460 C.3    80  ARG80       0.0489
     98  CD       -21.8010  -15.0420  -23.7640 C.3    80  ARG80       0.2205
     99  NE       -22.5830  -13.9910  -24.4160 N.pl3  80  ARG80      -0.0865
    100  CZ       -23.5690  -14.2180  -25.2780 C.cat  80  ARG80       0.5346
    101  NH1      -23.8880  -15.4600  -25.6230 N.pl3  80  ARG80       0.1354
    102  NH2      -24.2340  -13.2050  -25.8130 N.pl3  80  ARG80       0.1354
    103  N        -22.8210   -9.6330  -23.6350 N.3    90  PHE90      -0.1241
    104  CA       -23.0770   -9.8730  -25.0600 C.3    90  PHE90       0.1605
    105  C        -21.9110  -10.6490  -25.6610 C.2    90  PHE90       0.2264
    106  O        -22.1040  -11.6350  -26.3730 O.2    90  PHE90      -0.2867
    107  CB       -23.3580   -8.5580  -25.8100 C.3    90  PHE90       0.0534
    108  CG       -24.7790   -8.0660  -25.6510 C.ar   90  PHE90      -0.0203
    109  CD1      -25.7980   -8.5550  -26.4620 C.ar   90  PHE90      -0.0042
    110  CD2      -25.1050   -7.1420  -24.6680 C.ar   90  PHE90      -0.0042
    111  CE1      -27.1170   -8.1190  -26.2990 C.ar   90  PHE90      -0.0003
    112  CE2      -26.4220   -6.6960  -24.5120 C.ar   90  PHE90      -0.0003
    113  CZ       -27.4190   -7.1880  -25.3280 C.ar   90  PHE90      -0.0000
    114  N        -34.9080    0.8520  -27.1160 N.3   107  ILE107     -0.1245
    115  CA       -34.0710   -0.3120  -26.7900 C.3   107  ILE107      0.1561
    116  C        -33.9920   -0.6300  -25.2830 C.2   107  ILE107      0.2260
    117  O        -33.5600   -1.7220  -24.9090 O.2   107  ILE107     -0.2867
    118  CB       -32.6870   -0.2750  -27.5070 C.3   107  ILE107      0.0252
    119  CG1      -32.1190   -1.6880  -27.7540 C.3   107  ILE107      0.0019
    120  CG2      -31.6840    0.6030  -26.7760 C.3   107  ILE107      0.0019
    121  CD1      -32.8660   -2.5120  -28.7290 C.3   107  ILE107      0.0001
    122  N        -36.3700   -3.8270  -23.9540 N.3   110  ILE110     -0.1231
    123  CA       -35.8220   -5.1510  -24.2930 C.3   110  ILE110      0.1692
    124  C        -34.7450   -5.5830  -23.2810 C.2   110  ILE110      0.2592
    125  O        -34.7750   -6.7290  -22.8200 O.2   110  ILE110     -0.2718
    126  CB       -35.3280   -5.2420  -25.7700 C.3   110  ILE110      0.0266
    127  CG1      -36.4450   -4.8260  -26.7590 C.3   110  ILE110      0.0019
    128  CG2      -34.7960   -6.6580  -26.1000 C.3   110  ILE110      0.0020
    129  CD1      -35.9970   -4.5100  -28.1550 C.3   110  ILE110      0.0001
    130  N        -33.8170   -4.6600  -22.9190 N.am  111  PHE111     -0.1976
    131  CA       -32.7410   -4.9210  -21.9530 C.3   111  PHE111      0.1639
    132  C        -33.3100   -5.2600  -20.5890 C.2   111  PHE111      0.2290
    133  O        -32.7610   -6.1170  -19.8950 O.2   111  PHE111     -0.2864
    134  CB       -31.7790   -3.7270  -21.8410 C.3   111  PHE111      0.0560
    135  CG       -30.9640   -3.4170  -23.0740 C.ar  111  PHE111     -0.0200
    136  CD1      -30.2570   -4.4190  -23.7330 C.ar  111  PHE111     -0.0042
    137  CD2      -30.8470   -2.1150  -23.5390 C.ar  111  PHE111     -0.0042
    138  CE1      -29.4860   -4.1290  -24.8620 C.ar  111  PHE111     -0.0003
    139  CE2      -30.0810   -1.8260  -24.6740 C.ar  111  PHE111     -0.0003
    140  CZ       -29.4030   -2.8340  -25.3260 C.ar  111  PHE111     -0.0000
    141  N        -34.7940   -8.8390  -20.8480 N.3   114  LEU114     -0.1245
    142  CA       -33.6860   -9.7960  -20.8340 C.3   114  LEU114      0.1561
    143  C        -33.1120   -9.9840  -19.4310 C.2   114  LEU114      0.2260
    144  O        -32.9840  -11.1250  -18.9790 O.2   114  LEU114     -0.2867
    145  CB       -32.5890   -9.3870  -21.8280 C.3   114  LEU114      0.0270
    146  CG       -32.9300   -9.5680  -23.3090 C.3   114  LEU114      0.0019
    147  CD1      -32.1900   -8.5600  -24.1750 C.3   114  LEU114      0.0001
    148  CD2      -32.6580  -10.9870  -23.7670 C.3   114  LEU114      0.0001
    149  N        -37.8790   -7.8220  -29.6930 N.3   194  GLY194     -0.1225
    150  CA       -36.6000   -7.6140  -30.3600 C.3   194  GLY194      0.1811
    151  C        -36.7350   -7.6480  -31.8690 C.2   194  GLY194      0.2280
    152  O        -36.1320   -6.8260  -32.5570 O.2   194  GLY194     -0.2866
    153  N        -38.4920   -4.5520  -33.0970 N.3   197  HIS197     -0.1226
    154  CA       -37.5420   -3.4430  -33.0610 C.3   197  HIS197      0.1752
    155  C        -36.4920   -3.5960  -34.1670 C.2   197  HIS197      0.2595
    156  O        -36.2380   -2.6220  -34.8680 O.2   197  HIS197     -0.2718
    157  CB       -36.8900   -3.3040  -31.6770 C.3   197  HIS197      0.0759
    158  CG       -37.7380   -2.5640  -30.6860 C.ar  197  HIS197      0.0818
    159  ND1      -37.6630   -1.1880  -30.5600 N.ar  197  HIS197     -0.2268
    160  CD2      -38.6580   -3.0320  -29.8090 C.ar  197  HIS197      0.1154
    161  CE1      -38.5330   -0.8680  -29.6150 C.ar  197  HIS197      0.1986
    162  NE2      -39.1490   -1.9470  -29.1280 N.ar  197  HIS197     -0.2212
    163  N        -35.9230   -4.8170  -34.3530 N.am  198  LEU198     -0.1980
    164  CA       -34.9210   -5.1290  -35.3820 C.3   198  LEU198      0.1596
    165  C        -35.4410   -4.8360  -36.7840 C.2   198  LEU198      0.2287
    166  O        -34.7370   -4.1980  -37.5640 O.2   198  LEU198     -0.2864
    167  CB       -34.4810   -6.6060  -35.3010 C.3   198  LEU198      0.0297
    168  CG       -32.9750   -6.9630  -35.3740 C.3   198  LEU198      0.0022
    169  CD1      -32.2900   -6.4190  -36.6190 C.3   198  LEU198      0.0001
    170  CD2      -32.2330   -6.5670  -34.1230 C.3   198  LEU198      0.0001
    171  N        -35.7630   -1.1020  -37.1630 N.3   201  MET201     -0.1245
    172  CA       -34.4500   -0.4530  -37.3420 C.3   201  MET201      0.1570
    173  C        -33.9740   -0.6100  -38.7890 C.2   201  MET201      0.2261
    174  O        -33.3600    0.3120  -39.3230 O.2   201  MET201     -0.2867
    175  CB       -33.3880   -0.9840  -36.3500 C.3   201  MET201      0.0387
    176  CG       -33.6550   -0.6520  -34.8900 C.3   201  MET201      0.0595
    177  SD       -33.8940    1.1030  -34.5320 S.3   201  MET201     -0.1393
    178  CE       -34.6020    1.0080  -32.8840 C.3   201  MET201      0.0692
    179  N        -29.4770    0.5390  -38.0870 N.3   207  VAL207     -0.1245
    180  CA       -28.6940   -0.7040  -38.1180 C.3   207  VAL207      0.1561
    181  C        -28.2250   -0.9620  -39.5650 C.2   207  VAL207      0.2260
    182  O        -28.9890   -0.7070  -40.5060 O.2   207  VAL207     -0.2867
    183  CB       -29.3740   -1.9570  -37.4760 C.3   207  VAL207      0.0252
    184  CG1      -29.6400   -1.7580  -35.9850 C.3   207  VAL207      0.0019
    185  CG2      -30.6400   -2.3890  -38.2200 C.3   207  VAL207      0.0019
    186  N        -27.7290  -12.0800  -41.1300 N.3   213  LEU213     -0.1245
    187  CA       -28.9320  -11.7160  -40.3800 C.3   213  LEU213      0.1561
    188  C        -29.8690  -10.8340  -41.2200 C.2   213  LEU213      0.2260
    189  O        -31.0380  -10.6860  -40.8710 O.2   213  LEU213     -0.2867
    190  CB       -28.6100  -11.1080  -39.0040 C.3   213  LEU213      0.0270
    191  CG       -28.2980   -9.6320  -38.9670 C.3   213  LEU213      0.0019
    192  CD1      -29.3850   -8.8820  -38.2400 C.3   213  LEU213      0.0001
    193  CD2      -26.9630   -9.3910  -38.3330 C.3   213  LEU213      0.0001
@<TRIPOS>BOND
     1   188   189    2
     2   188   187    1
     3   186   187    1
     4   182   181    2
     5   187   190    1
     6   181   180    1
     7   174   173    2
     8   190   191    1
     9   191   193    1
    10   191   192    1
    11   173   172    1
    12   185   183    1
    13   180   179    1
    14   180   183    1
    15   166   165    2
    16    54    52   ar
    17    54    55   ar
    18   183   184    1
    19   172   171    1
    20   172   175    1
    21    52    51   ar
    22    55    57   ar
    23    55    53   ar
    24   165   164    1
    25    57    59   ar
    26    22    21    1
    27   169   168    1
    28    20    19    2
    29    21    23    1
    30    21    18    1
    31   175   176    1
    32    51    53   ar
    33    51    50    1
    34    53    56   ar
    35    19    18    1
    36    59    58   ar
    37    50    47    1
    38    18    17    1
    39    35    34    2
    40   164   167    1
    41   164   163    1
    42   168   167    1
    43   168   170    1
    44    34    33    1
    45    56    58   ar
    46   176   177    1
    47   156   155    2
    48    37    38    1
    49    39    40    2
    50    39    38    1
    51   177   178    1
    52    46    47    1
    53    47    48    1
    54   163   155   am
    55     4     3    2
    56    36    33    1
    57     5     6    1
    58     5     2    1
    59     3     2    1
    60    17    11   am
    61   155   154    1
    62    33    32    1
    63    24    25    1
    64    38    41    1
    65    32    26   am
    66     6     7    1
    67    27    26    2
    68     8     7    1
    69    26    25    1
    70     2     1    1
    71    48    60   am
    72    48    49    2
    73    60    61    1
    74   153   154    1
    75   154   157    1
    76    11    12    2
    77    11    10    1
    78    67    66    1
    79    25    28    1
    80    64    61    1
    81    64    65    1
    82    74    73    1
    83    41    42    1
    84   152   151    2
    85    61    62    1
    86     9    10    1
    87    73    75    1
    88    73    72    1
    89   151   150    1
    90    66    65    1
    91    10    13    1
    92   157   158    1
    93    28    29    1
    94    42    43    1
    95    13    14    1
    96    62    63    2
    97   158   159   ar
    98   158   160   ar
    99    72    69    1
   100   159   161   ar
   101    29    30    1
   102    29    31    1
   103   150   149    1
   104    43    44   ar
   105    43    45   ar
   106   160   162   ar
   107    68    69    1
   108    14    15    1
   109    14    16    1
   110   161   162   ar
   111    69    70    1
   112   121   119    1
   113    83    82    1
   114    70    76   am
   115    70    71    2
   116   129   127    1
   117    76    77    1
   118   119   118    1
   119   118   115    1
   120   118   120    1
   121    82    81    1
   122    81    80    1
   123   114   115    1
   124   115   116    1
   125   127   126    1
   126    80    77    1
   127    77    78    1
   128   109   111   ar
   129   109   108   ar
   130   106   105    2
   131   111   113   ar
   132   128   126    1
   133   102   100    1
   134   107   108    1
   135   107   104    1
   136   126   123    1
   137   105   104    1
   138   108   110   ar
   139   101   100    1
   140    78    79    2
   141   113   112   ar
   142   140   138   ar
   143   140   139   ar
   144   116   117    2
   145   100    99    2
   146   104   103    1
   147   138   136   ar
   148   139   137   ar
   149   110   112   ar
   150    84    85    1
   151    88    85    1
   152    88    89    1
   153    99    98    1
   154   123   122    1
   155   123   124    1
   156    91    89    1
   157   147   146    1
   158   148   146    1
   159    85    86    1
   160    98    97    1
   161   136   135   ar
   162    89    90    1
   163   137   135   ar
   164   146   145    1
   165   124   130   am
   166   124   125    2
   167   135   134    1
   168   130   131    1
   169    86    87    2
   170    97    96    1
   171   131   134    1
   172   131   132    1
   173   145   142    1
   174    96    93    1
   175   141   142    1
   176   142   143    1
   177   132   133    2
   178    92    93    1
   179    93    94    1
   180   143   144    2
   181    94    95    2
