@<TRIPOS>MOLECULE
tmp/2ym1A02.pdb
 128 126 0 0 0
SMALL
GASTEIGER

@<TRIPOS>ATOM
      1  N         26.0400  -25.1560   13.4830 N.3   138  MET138     -0.1230
      2  CA        27.1640  -26.0520   13.5490 C.3   138  MET138      0.1702
      3  C         28.3180  -25.3360   14.1960 C.2   138  MET138      0.2592
      4  O         28.9010  -24.4120   13.6020 O.2   138  MET138     -0.2718
      5  CB        27.5300  -26.5770   12.1490 C.3   138  MET138      0.0401
      6  CG        26.3950  -27.3220   11.4820 C.3   138  MET138      0.0596
      7  SD        25.9130  -28.8140   12.4150 S.3   138  MET138     -0.1393
      8  CE        27.3350  -29.8800   12.3240 C.3   138  MET138      0.0692
      9  N         28.6190  -25.7280   15.4300 N.am  139  ALA139     -0.1966
     10  CA        29.7800  -25.2170   16.1540 C.3   139  ALA139      0.1728
     11  C         30.7620  -26.3460   16.3890 C.2   139  ALA139      0.2617
     12  O         31.2850  -26.5000   17.4900 O.2   139  ALA139     -0.2715
     13  CB        29.3450  -24.5790   17.4750 C.3   139  ALA139      0.0334
     14  N         31.0540  -27.0950   15.3300 N.am  140  SER140     -0.1936
     15  CA        31.7770  -28.3340   15.4430 C.3   140  SER140      0.2055
     16  C         33.2460  -28.1590   15.2320 C.2   140  SER140      0.2644
     17  O         33.9650  -29.1560   15.0460 O.2   140  SER140     -0.2714
     18  CB        31.2280  -29.3340   14.4310 C.3   140  SER140      0.2130
     19  OG        30.5860  -28.6030   13.3890 O.3   140  SER140     -0.2179
     20  N         33.6840  -26.8910   15.1950 N.am  141  GLY141     -0.1939
     21  CA        35.1060  -26.5680   15.2610 C.3   141  GLY141      0.2014
     22  C         35.7790  -26.4950   13.9070 C.2   141  GLY141      0.2639
     23  O         35.1450  -26.7840   12.8790 O.2   141  GLY141     -0.2714
     24  N         37.0400  -26.0750   13.8970 N.am  142  GLN142     -0.1963
     25  CA        37.7590  -25.8420   12.6610 C.3   142  GLN142      0.1733
     26  C         38.8710  -26.8950   12.6090 C.2   142  GLN142      0.2616
     27  O         39.3830  -27.2280   11.5350 O.2   142  GLN142     -0.2715
     28  CB        38.4440  -24.4690   12.6690 C.3   142  GLN142      0.0408
     29  CG        37.5760  -23.2720   12.9120 C.3   142  GLN142      0.0908
     30  CD        37.0980  -23.1970   14.3430 C.2   142  GLN142      0.2608
     31  OE1       35.9100  -22.8960   14.6060 O.2   142  GLN142     -0.2717
     32  NE2       37.9950  -23.4750   15.2710 N.am  142  GLN142     -0.0878
     33  N         39.2780  -27.3820   13.7740 N.am  143  LEU143     -0.1963
     34  CA        40.4330  -28.2620   13.8730 C.3   143  LEU143      0.1728
     35  C         40.0550  -29.3290   14.8840 C.2   143  LEU143      0.2617
     36  O         40.6460  -29.4610   15.9720 O.2   143  LEU143     -0.2715
     37  CB        41.6420  -27.4610   14.3060 C.3   143  LEU143      0.0311
     38  CG        42.1030  -26.4200   13.2720 C.3   143  LEU143      0.0022
     39  CD1       42.7700  -25.2890   14.0020 C.3   143  LEU143      0.0001
     40  CD2       43.0500  -27.0810   12.2870 C.3   143  LEU143      0.0001
     41  N         38.9950  -30.0510   14.5290 N.am  144  SER144     -0.1936
     42  CA        38.3690  -30.9670   15.4560 C.3   144  SER144      0.2055
     43  C         38.2750  -32.3910   14.9690 C.2   144  SER144      0.2642
     44  O         37.7000  -33.1860   15.6740 O.2   144  SER144     -0.2714
     45  CB        36.9610  -30.4870   15.7690 C.3   144  SER144      0.2130
     46  OG        36.2160  -30.3340   14.5670 O.3   144  SER144     -0.2179
     47  N         38.7580  -32.7130   13.7650 N.am  145  VAL145     -0.1977
     48  CA        38.8140  -34.1000   13.2690 C.3   145  VAL145      0.1596
     49  C         40.2680  -34.4960   12.9910 C.2   145  VAL145      0.2287
     50  O         40.8970  -33.9700   12.0450 O.2   145  VAL145     -0.2864
     51  CB        37.9260  -34.3450   12.0120 C.3   145  VAL145      0.0276
     52  CG1       38.0590  -35.8080   11.5390 C.3   145  VAL145      0.0022
     53  CG2       36.4340  -34.0110   12.2870 C.3   145  VAL145      0.0022
     54  N         41.7450  -32.7160    9.6690 N.3   379  ASP379     -0.1239
     55  CA        41.0550  -32.5270    8.4270 C.3   379  ASP379      0.1674
     56  C         40.3030  -31.2180    8.6040 C.2   379  ASP379      0.2266
     57  O         39.1790  -31.1850    9.0750 O.2   379  ASP379     -0.2867
     58  CB        40.1420  -33.7320    8.1570 C.3   379  ASP379      0.1410
     59  CG        39.3240  -33.5860    6.8870 C.2   379  ASP379      0.3668
     60  OD1       39.3860  -32.5470    6.1680 O.co2 379  ASP379     -0.2456
     61  OD2       38.5930  -34.5390    6.6080 O.co2 379  ASP379     -0.2456
     62  N         38.5850  -27.4680    8.9200 N.3   381  LEU381     -0.1231
     63  CA        37.4920  -26.5580    8.5030 C.3   381  LEU381      0.1693
     64  C         36.2560  -27.2290    7.9710 C.2   381  LEU381      0.2593
     65  O         35.1460  -26.7920    8.2740 O.2   381  LEU381     -0.2718
     66  CB        37.9590  -25.4710    7.5450 C.3   381  LEU381      0.0284
     67  CG        38.9460  -24.4530    8.1270 C.3   381  LEU381      0.0019
     68  CD1       39.7640  -23.7720    7.0140 C.3   381  LEU381      0.0001
     69  CD2       38.1850  -23.4180    8.9590 C.3   381  LEU381      0.0001
     70  N         36.4320  -28.2680    7.1650 N.am  382  THR382     -0.1939
     71  CA        35.2890  -29.0020    6.5650 C.3   382  THR382      0.2028
     72  C         35.1520  -30.3830    7.1850 C.2   382  THR382      0.2643
     73  O         34.1010  -30.9950    7.0690 O.2   382  THR382     -0.2714
     74  CB        35.4110  -29.1900    5.0350 C.3   382  THR382      0.1808
     75  OG1       36.7210  -29.6730    4.7080 O.3   382  THR382     -0.2208
     76  CG2       35.1700  -27.8650    4.2520 C.3   382  THR382      0.0379
     77  N         36.2040  -30.8730    7.8230 N.am  383  GLY383     -0.1939
     78  CA        36.2440  -32.2430    8.3080 C.3   383  GLY383      0.2014
     79  C         35.0590  -32.6350    9.1700 C.2   383  GLY383      0.2639
     80  O         34.4200  -33.6500    8.9230 O.2   383  GLY383     -0.2714
     81  N         34.7410  -31.8290   10.1750 N.am  384  ALA384     -0.1963
     82  CA        33.6500  -32.2200   11.0680 C.3   384  ALA384      0.1728
     83  C         32.3030  -32.2430   10.3710 C.2   384  ALA384      0.2616
     84  O         31.4630  -33.1540   10.6480 O.2   384  ALA384     -0.2715
     85  CB        33.5850  -31.3230   12.3360 C.3   384  ALA384      0.0334
     86  N         32.0590  -31.2320    9.5260 N.am  385  LEU385     -0.1977
     87  CA        30.8110  -31.1870    8.7500 C.3   385  LEU385      0.1596
     88  C         30.6680  -32.4000    7.7980 C.2   385  LEU385      0.2287
     89  O         29.5530  -32.9090    7.6000 O.2   385  LEU385     -0.2864
     90  CB        30.6670  -29.9070    7.9280 C.3   385  LEU385      0.0297
     91  CG        30.5250  -28.6550    8.7560 C.3   385  LEU385      0.0022
     92  CD1       30.8440  -27.5310    7.8460 C.3   385  LEU385      0.0001
     93  CD2       29.1420  -28.5400    9.3720 C.3   385  LEU385      0.0001
     94  N         27.1760  -21.7260   10.3250 N.3   422  PHE422     -0.1227
     95  CA        28.4820  -22.2470   10.6970 C.3   422  PHE422      0.1736
     96  C         29.2370  -21.2350   11.5380 C.2   422  PHE422      0.2595
     97  O         29.3190  -20.0670   11.1660 O.2   422  PHE422     -0.2718
     98  CB        29.2870  -22.6070    9.4440 C.3   422  PHE422      0.0547
     99  CG        28.4890  -23.3720    8.3970 C.ar  422  PHE422     -0.0202
    100  CD1       28.2350  -24.7490    8.5640 C.ar  422  PHE422     -0.0042
    101  CD2       27.9750  -22.7140    7.2730 C.ar  422  PHE422     -0.0042
    102  CE1       27.4870  -25.4850    7.6170 C.ar  422  PHE422     -0.0003
    103  CE2       27.2020  -23.4290    6.2860 C.ar  422  PHE422     -0.0003
    104  CZ        26.9430  -24.8300    6.4810 C.ar  422  PHE422     -0.0000
    105  N         29.8190  -21.6750   12.6580 N.am  423  ILE423     -0.1966
    106  CA        30.4990  -20.7350   13.5440 C.3   423  ILE423      0.1727
    107  C         31.9980  -20.7940   13.2910 C.2   423  ILE423      0.2616
    108  O         32.6380  -21.8470   13.4930 O.2   423  ILE423     -0.2715
    109  CB        30.1900  -20.9870   15.0350 C.3   423  ILE423      0.0290
    110  CG1       28.6860  -20.9930   15.2750 C.3   423  ILE423      0.0022
    111  CG2       30.8570  -19.9310   15.9330 C.3   423  ILE423      0.0023
    112  CD1       27.9560  -19.6950   14.9010 C.3   423  ILE423      0.0001
    113  N         32.5120  -19.6640   12.8000 N.am  424  ALA424     -0.1963
    114  CA        33.9280  -19.4180   12.6240 C.3   424  ALA424      0.1728
    115  C         34.5620  -20.3880   11.6180 C.2   424  ALA424      0.2617
    116  O         35.6260  -20.9800   11.8650 O.2   424  ALA424     -0.2715
    117  CB        34.6500  -19.4480   13.9520 C.3   424  ALA424      0.0334
    118  N         33.9350  -20.4830   10.4610 N.am  425  GLY425     -0.1941
    119  CA        34.3110  -21.4610    9.4890 C.3   425  GLY425      0.1998
    120  C         34.7890  -20.9000    8.1820 C.2   425  GLY425      0.2480
    121  O         35.0760  -19.7000    8.0630 O.2   425  GLY425     -0.2729
    122  N         34.9110  -21.7780    7.1790 N.am  426  PRO426     -0.2726
    123  CA        35.3410  -21.3450    5.8630 C.3   426  PRO426      0.1402
    124  C         34.5270  -20.1500    5.3570 C.2   426  PRO426      0.2269
    125  O         33.3130  -20.0270    5.6260 O.2   426  PRO426     -0.2865
    126  CB        35.0720  -22.5560    4.9880 C.3   426  PRO426      0.0296
    127  CG        34.5640  -23.6510    5.9090 C.3   426  PRO426      0.0237
    128  CD        34.6900  -23.2310    7.2850 C.3   426  PRO426      0.0939
@<TRIPOS>BOND
     1    76    74    1
     2    75    74    1
     3   126   123    1
     4   126   127    1
     5    74    71    1
     6   124   125    2
     7   124   123    1
     8   123   122    1
     9   127   128    1
    10    60    59   ar
    11   103   104   ar
    12   103   101   ar
    13   104   102   ar
    14    71    70    1
    15    71    72    1
    16    61    59   ar
    17    59    58    1
    18    68    67    1
    19    73    72    2
    20    70    64   am
    21   122   128    1
    22   122   120   am
    23    72    77   am
    24   101    99   ar
    25    66    67    1
    26    66    63    1
    27    89    88    2
    28   102   100   ar
    29    88    87    1
    30    77    78    1
    31    92    91    1
    32    90    87    1
    33    90    91    1
    34    64    65    2
    35    64    63    1
    36   121   120    2
    37    67    69    1
    38    58    55    1
    39   120   119    1
    40    78    79    1
    41    99   100   ar
    42    99    98    1
    43    55    56    1
    44    55    54    1
    45    63    62    1
    46    56    57    2
    47    87    86    1
    48    91    93    1
    49    80    79    2
    50    79    81   am
    51    98    95    1
    52   119   118    1
    53    86    83   am
    54    81    82    1
    55    94    95    1
    56    83    84    2
    57    83    82    1
    58   118   115   am
    59    95    96    1
    60    82    85    1
    61    97    96    2
    62     6     5    1
    63     6     7    1
    64    27    26    2
    65    96   105   am
    66    52    51    1
    67   115   116    2
    68   115   114    1
    69    51    53    1
    70    51    48    1
    71    50    49    2
    72     5     2    1
    73    40    38    1
    74     8     7    1
    75    26    25    1
    76    26    33   am
    77   114   113    1
    78   114   117    1
    79   105   106    1
    80    25    28    1
    81    25    24    1
    82    28    29    1
    83   113   107   am
    84    23    22    2
    85    29    30    1
    86    49    48    1
    87    48    47    1
    88    38    39    1
    89    38    37    1
    90   107   108    2
    91   107   106    1
    92    19    18    1
    93     1     2    1
    94   106   109    1
    95     2     3    1
    96     4     3    2
    97    47    43   am
    98    33    34    1
    99    34    37    1
   100    34    35    1
   101    24    22   am
   102    22    21    1
   103     3     9   am
   104    30    31    2
   105    30    32   am
   106    18    15    1
   107    41    35   am
   108    41    42    1
   109    46    45    1
   110    35    36    2
   111   112   110    1
   112    43    42    1
   113    43    44    2
   114   109   110    1
   115   109   111    1
   116    17    16    2
   117    20    16   am
   118    20    21    1
   119    16    15    1
   120    14    15    1
   121    14    11   am
   122     9    10    1
   123    42    45    1
   124    10    11    1
   125    10    13    1
   126    11    12    2
