@<TRIPOS>MOLECULE
tmp/2ym1A03.pdb
 92 87 0 0 0
SMALL
GASTEIGER

@<TRIPOS>ATOM
      1  N         30.1060  -34.7610   21.1720 N.3    37  THR37      -0.1218
      2  CA        30.7440  -36.0740   21.1960 C.3    37  THR37       0.1862
      3  C         31.5450  -36.3710   22.4810 C.2    37  THR37       0.2287
      4  O         31.5590  -37.5070   22.9780 O.2    37  THR37      -0.2866
      5  CB        31.6780  -36.1760   19.9980 C.3    37  THR37       0.1770
      6  OG1       30.8790  -36.2520   18.8080 O.3    37  THR37      -0.2211
      7  CG2       32.5810  -37.3510   20.1170 C.3    37  THR37       0.0375
      8  N         40.1590  -31.9690   24.0970 N.3    47  TRP47      -0.1241
      9  CA        40.7600  -33.0710   23.3090 C.3    47  TRP47       0.1605
     10  C         42.2760  -33.0110   23.2290 C.2    47  TRP47       0.2264
     11  O         42.9290  -34.0410   23.1940 O.2    47  TRP47      -0.2867
     12  CB        40.2020  -33.1470   21.8620 C.3    47  TRP47       0.0550
     13  CG        38.7410  -33.3820   21.7270 C.ar   47  TRP47       0.0003
     14  CD1       37.7680  -32.4410   21.4330 C.ar   47  TRP47       0.0946
     15  CD2       38.0530  -34.6360   21.8700 C.ar   47  TRP47       0.0152
     16  NE1       36.5250  -33.0490   21.3660 N.ar   47  TRP47      -0.2442
     17  CE2       36.6780  -34.3910   21.6330 C.ar   47  TRP47       0.0810
     18  CE3       38.4710  -35.9460   22.1650 C.ar   47  TRP47       0.0012
     19  CZ2       35.7080  -35.4110   21.6890 C.ar   47  TRP47       0.0191
     20  CZ3       37.5060  -36.9640   22.2030 C.ar   47  TRP47       0.0001
     21  CH2       36.1440  -36.6850   21.9660 C.ar   47  TRP47       0.0015
     22  N         27.4030  -38.3110   19.2950 N.3   108  THR108     -0.1218
     23  CA        27.8290  -37.7710   18.0240 C.3   108  THR108      0.1862
     24  C         26.6760  -37.5850   17.0360 C.2   108  THR108      0.2287
     25  O         26.0240  -38.5720   16.6730 O.2   108  THR108     -0.2866
     26  CB        28.9090  -38.6680   17.4220 C.3   108  THR108      0.1770
     27  OG1       30.0230  -38.7600   18.3200 O.3   108  THR108     -0.2211
     28  CG2       29.3910  -38.1370   16.0750 C.3   108  THR108      0.0375
     29  N         38.9950  -30.0510   14.5290 N.3   144  SER144     -0.1202
     30  CA        38.3690  -30.9670   15.4560 C.3   144  SER144      0.2020
     31  C         38.2750  -32.3910   14.9690 C.2   144  SER144      0.2619
     32  O         37.7000  -33.1860   15.6740 O.2   144  SER144     -0.2717
     33  CB        36.9610  -30.4870   15.7690 C.3   144  SER144      0.2103
     34  OG        36.2160  -30.3340   14.5670 O.3   144  SER144     -0.2182
     35  N         38.7580  -32.7130   13.7650 N.am  145  VAL145     -0.1966
     36  CA        38.8140  -34.1000   13.2690 C.3   145  VAL145      0.1712
     37  C         40.2680  -34.4960   12.9910 C.2   145  VAL145      0.2458
     38  O         40.8970  -33.9700   12.0450 O.2   145  VAL145     -0.2730
     39  CB        37.9260  -34.3450   12.0120 C.3   145  VAL145      0.0289
     40  CG1       38.0590  -35.8080   11.5390 C.3   145  VAL145      0.0023
     41  CG2       36.4340  -34.0110   12.2870 C.3   145  VAL145      0.0023
     42  N         40.8390  -35.3670   13.8460 N.am  146  PRO146     -0.2727
     43  CA        42.2550  -35.6900   13.7360 C.3   146  PRO146      0.1402
     44  C         42.6020  -36.3150   12.4090 C.2   146  PRO146      0.2269
     45  O         41.8510  -37.1250   11.8940 O.2   146  PRO146     -0.2865
     46  CB        42.4670  -36.7070   14.8400 C.3   146  PRO146      0.0296
     47  CG        41.5420  -36.2700   15.8800 C.3   146  PRO146      0.0237
     48  CD        40.3110  -35.7670   15.1550 C.3   146  PRO146      0.0939
     49  N         45.0170  -38.7220   10.6740 N.3   148  LEU148     -0.1245
     50  CA        46.0630  -39.7420   10.7400 C.3   148  LEU148      0.1561
     51  C         46.6140  -39.9240    9.3290 C.2   148  LEU148      0.2260
     52  O         45.8780  -40.4090    8.4720 O.2   148  LEU148     -0.2867
     53  CB        45.5240  -41.0860   11.2780 C.3   148  LEU148      0.0270
     54  CG        44.5170  -41.3500   12.4240 C.3   148  LEU148      0.0019
     55  CD1       44.2770  -40.2010   13.4380 C.3   148  LEU148      0.0001
     56  CD2       43.1460  -41.9700   11.8850 C.3   148  LEU148      0.0001
     57  N         47.5890  -39.8990   18.9220 N.3   162  HIS162     -0.1241
     58  CA        47.4060  -38.6560   18.2210 C.3   162  HIS162      0.1621
     59  C         47.2150  -37.5180   19.2490 C.2   162  HIS162      0.2264
     60  O         46.4500  -37.6310   20.1890 O.2   162  HIS162     -0.2867
     61  CB        46.2190  -38.7170   17.2500 C.3   162  HIS162      0.0745
     62  CG        46.2370  -37.6160   16.2170 C.ar  162  HIS162      0.0817
     63  ND1       45.9420  -36.3000   16.5180 N.ar  162  HIS162     -0.2268
     64  CD2       46.5450  -37.6390   14.8970 C.ar  162  HIS162      0.1154
     65  CE1       46.0500  -35.5670   15.4240 C.ar  162  HIS162      0.1986
     66  NE2       46.4260  -36.3520   14.4300 N.ar  162  HIS162     -0.2212
     67  N         45.5850  -34.8440   19.0340 N.3   164  GLY164     -0.1210
     68  CA        44.2220  -34.3330   19.0670 C.3   164  GLY164      0.1956
     69  C         43.2670  -35.3300   19.6660 C.2   164  GLY164      0.2611
     70  O         42.0530  -35.1350   19.6870 O.2   164  GLY164     -0.2717
     71  N         43.8150  -36.4120   20.1940 N.am  165  ASN165     -0.1974
     72  CA        42.9610  -37.3620   20.9480 C.3   165  ASN165      0.1688
     73  C         43.8020  -37.9980   22.0510 C.2   165  ASN165      0.2292
     74  O         44.0360  -39.2230   22.0920 O.2   165  ASN165     -0.2864
     75  CB        42.3480  -38.4230   20.0140 C.3   165  ASN165      0.1181
     76  CG        41.2650  -39.2520   20.7040 C.2   165  ASN165      0.2629
     77  OD1       40.4350  -38.7310   21.4580 O.2   165  ASN165     -0.2716
     78  ND2       41.2660  -40.5570   20.4280 N.am  165  ASN165     -0.0877
     79  N         34.7410  -31.8290   10.1750 N.3   384  ALA384     -0.1245
     80  CA        33.6500  -32.2200   11.0680 C.3   384  ALA384      0.1562
     81  C         32.3030  -32.2430   10.3710 C.2   384  ALA384      0.2260
     82  O         31.4630  -33.1540   10.6480 O.2   384  ALA384     -0.2867
     83  CB        33.5850  -31.3230   12.3360 C.3   384  ALA384      0.0290
     84  N         31.8270  -35.3430    8.2020 N.3   387  LYS387     -0.1245
     85  CA        31.5780  -36.5650    8.9490 C.3   387  LYS387      0.1561
     86  C         30.0880  -36.7080    9.2990 C.2   387  LYS387      0.2260
     87  O         29.6900  -37.7100    9.8660 O.2   387  LYS387     -0.2867
     88  CB        32.4940  -36.7040   10.1760 C.3   387  LYS387      0.0271
     89  CG        33.9360  -37.1500    9.8000 C.3   387  LYS387      0.0035
     90  CD        34.5210  -38.1100   10.8490 C.3   387  LYS387      0.0206
     91  CE        34.4050  -37.5200   12.3270 C.3   387  LYS387      0.1093
     92  NZ        33.8430  -38.4020   13.4820 N.3   387  LYS387     -0.1314
@<TRIPOS>BOND
     1    84    85    1
     2    52    51    2
     3    85    86    1
     4    85    88    1
     5    86    87    2
     6    51    50    1
     7    89    88    1
     8    89    90    1
     9    79    80    1
    10    81    82    2
    11    81    80    1
    12    49    50    1
    13    50    53    1
    14    90    91    1
    15    80    83    1
    16    53    54    1
    17    40    39    1
    18    56    54    1
    19    45    44    2
    20    39    41    1
    21    39    36    1
    22    38    37    2
    23    91    92    1
    24    44    43    1
    25    54    55    1
    26    37    36    1
    27    37    42   am
    28    36    35    1
    29    43    42    1
    30    43    46    1
    31    35    31   am
    32    42    48    1
    33    66    64   ar
    34    66    65   ar
    35    29    30    1
    36    34    33    1
    37    46    47    1
    38    64    62   ar
    39    31    30    1
    40    31    32    2
    41    48    47    1
    42    65    63   ar
    43    30    33    1
    44    28    26    1
    45    62    63   ar
    46    62    61    1
    47    25    24    2
    48    24    23    1
    49    61    58    1
    50    26    23    1
    51    26    27    1
    52    23    22    1
    53    58    57    1
    54    58    59    1
    55     6     5    1
    56    67    68    1
    57    68    69    1
    58    59    60    2
    59    69    70    2
    60    69    71   am
    61     5     7    1
    62     5     2    1
    63    75    76    1
    64    75    72    1
    65    71    72    1
    66    78    76   am
    67    76    77    2
    68    72    73    1
    69     1     2    1
    70     2     3    1
    71    16    14   ar
    72    16    17   ar
    73    14    13   ar
    74    17    19   ar
    75    17    15   ar
    76    19    21   ar
    77    13    12    1
    78    13    15   ar
    79    12     9    1
    80    15    18   ar
    81    21    20   ar
    82    73    74    2
    83    18    20   ar
    84     3     4    2
    85    11    10    2
    86    10     9    1
    87     9     8    1
