@<TRIPOS>MOLECULE
tmp/2ym3A00.pdb
 121 113 0 0 0
SMALL
GASTEIGER

@<TRIPOS>ATOM
      1  N         17.9880   -5.5040   -0.1240 N.3     6  GLN6       -0.1245
      2  CA        18.6220   -6.4120    0.8260 C.3     6  GLN6        0.1566
      3  C         17.8320   -6.5390    2.1240 C.2     6  GLN6        0.2260
      4  O         17.0020   -5.6890    2.4450 O.2     6  GLN6       -0.2867
      5  CB        20.0460   -5.9480    1.1400 C.3     6  GLN6        0.0367
      6  CG        20.1170   -4.5840    1.8080 C.3     6  GLN6        0.0905
      7  CD        21.4890   -4.2840    2.3790 C.2     6  GLN6        0.2608
      8  OE1       22.3450   -5.1660    2.4670 O.2     6  GLN6       -0.2717
      9  NE2       21.7060   -3.0340    2.7720 N.am    6  GLN6       -0.0878
     10  N         17.6210   -6.1980    5.9860 N.3     8  LEU8       -0.1231
     11  CA        18.2790   -5.3800    6.9980 C.3     8  LEU8        0.1693
     12  C         18.4370   -6.1290    8.3190 C.2     8  LEU8        0.2592
     13  O         19.4240   -5.9490    9.0300 O.2     8  LEU8       -0.2718
     14  CB        17.5030   -4.0800    7.2170 C.3     8  LEU8        0.0284
     15  CG        17.2920   -3.2110    5.9760 C.3     8  LEU8        0.0019
     16  CD1       16.3660   -2.0450    6.2830 C.3     8  LEU8        0.0001
     17  CD2       18.6240   -2.7170    5.4340 C.3     8  LEU8        0.0001
     18  N         17.4570   -6.9670    8.6410 N.am    9  GLY9       -0.1957
     19  CA        17.4930   -7.7440    9.8670 C.3     9  GLY9        0.1869
     20  C         16.2150   -8.5260   10.0970 C.2     9  GLY9        0.2309
     21  O         15.1720   -7.9510   10.4130 O.2     9  GLY9       -0.2863
     22  N         12.9560   -7.2130    8.3710 N.3    11  VAL11      -0.1245
     23  CA        12.9410   -5.9060    7.7270 C.3    11  VAL11       0.1561
     24  C         13.8280   -5.9270    6.4880 C.2    11  VAL11       0.2260
     25  O         14.9560   -6.4170    6.5320 O.2    11  VAL11      -0.2867
     26  CB        13.4320   -4.7990    8.6800 C.3    11  VAL11       0.0252
     27  CG1       13.4220   -3.4510    7.9770 C.3    11  VAL11       0.0019
     28  CG2       12.5740   -4.7590    9.9360 C.3    11  VAL11       0.0019
     29  N         12.3850    1.2600    4.6540 N.3    24  ALA24      -0.1245
     30  CA        12.4680   -0.0280    5.3270 C.3    24  ALA24       0.1562
     31  C         11.0930   -0.6870    5.3450 C.2    24  ALA24       0.2260
     32  O         10.1010   -0.0610    5.7140 O.2    24  ALA24      -0.2867
     33  CB        12.9990    0.1460    6.7450 C.3    24  ALA24       0.0290
     34  N         11.3040    7.0650   14.2590 N.3    47  VAL47      -0.1245
     35  CA        11.2470    6.4700   12.9290 C.3    47  VAL47       0.1561
     36  C          9.9060    6.7560   12.2590 C.2    47  VAL47       0.2260
     37  O          8.8480    6.4060   12.7840 O.2    47  VAL47      -0.2867
     38  CB        11.4890    4.9490   12.9720 C.3    47  VAL47       0.0252
     39  CG1       11.1960    4.3310   11.6130 C.3    47  VAL47       0.0019
     40  CG2       12.9210    4.6490   13.4050 C.3    47  VAL47       0.0019
     41  N          8.4950    1.9150    6.7470 N.3    61  LEU61      -0.1231
     42  CA         9.1260    2.7480    7.7630 C.3    61  LEU61       0.1693
     43  C         10.3330    3.5020    7.2200 C.2    61  LEU61       0.2592
     44  O         10.9270    3.1100    6.2170 O.2    61  LEU61      -0.2718
     45  CB         9.5530    1.8880    8.9550 C.3    61  LEU61       0.0284
     46  CG         8.4540    1.0390    9.5970 C.3    61  LEU61       0.0019
     47  CD1        9.0520   -0.0060   10.5310 C.3    61  LEU61       0.0001
     48  CD2        7.4510    1.9180   10.3290 C.3    61  LEU61       0.0001
     49  N         10.6930    4.5840    7.9000 N.am   62  GLU62      -0.1966
     50  CA        11.8390    5.3920    7.5100 C.3    62  GLU62       0.1733
     51  C         13.1150    4.5580    7.5040 C.2    62  GLU62       0.2616
     52  O         13.4220    3.8630    8.4760 O.2    62  GLU62      -0.2715
     53  CB        11.9910    6.5800    8.4640 C.3    62  GLU62       0.0429
     54  CG        13.1800    7.4780    8.1670 C.3    62  GLU62       0.1163
     55  CD        13.3520    8.5740    9.2040 C.2    62  GLU62       0.3649
     56  OE1       12.4890    8.6890   10.1020 O.co2  62  GLU62      -0.2457
     57  OE2       14.3530    9.3180    9.1230 O.co2  62  GLU62      -0.2457
     58  N         13.8520    4.6210    6.3990 N.am   63  TYR63      -0.1960
     59  CA        15.1420    3.9520    6.3110 C.3    63  TYR63       0.1771
     60  C         16.2300    4.8260    6.9210 C.2    63  TYR63       0.2620
     61  O         16.4410    5.9630    6.4960 O.2    63  TYR63      -0.2715
     62  CB        15.4860    3.6080    4.8600 C.3    63  TYR63       0.0574
     63  CG        16.8870    3.0640    4.6840 C.ar   63  TYR63      -0.0198
     64  CD1       17.2580    1.8500    5.2490 C.ar   63  TYR63      -0.0009
     65  CD2       17.8370    3.7610    3.9470 C.ar   63  TYR63      -0.0009
     66  CE1       18.5390    1.3480    5.0890 C.ar   63  TYR63       0.0417
     67  CE2       19.1190    3.2670    3.7800 C.ar   63  TYR63       0.0417
     68  CZ        19.4640    2.0610    4.3540 C.ar   63  TYR63       0.1957
     69  OH        20.7390    1.5690    4.1900 O.3    63  TYR63      -0.2866
     70  N         16.9120    4.2910    7.9260 N.am   64  CYS64      -0.1954
     71  CA        17.9670    5.0210    8.6120 C.3    64  CYS64       0.1843
     72  C         19.3260    4.4480    8.2240 C.2    64  CYS64       0.2626
     73  O         19.7880    3.4680    8.8100 O.2    64  CYS64      -0.2714
     74  CB        17.7520    4.9530   10.1250 C.3    64  CYS64       0.0997
     75  SG        16.1050    5.4980   10.6460 S.3    64  CYS64      -0.0797
     76  N         19.9570    5.0650    7.2290 N.am   65  SER65      -0.1936
     77  CA        21.1810    4.5340    6.6340 C.3    65  SER65       0.2055
     78  C         22.3650    4.5160    7.5970 C.2    65  SER65       0.2644
     79  O         23.3580    3.8290    7.3560 O.2    65  SER65      -0.2714
     80  CB        21.5460    5.3150    5.3690 C.3    65  SER65       0.2130
     81  OG        21.8320    6.6700    5.6660 O.3    65  SER65      -0.2179
     82  N         22.2560    5.2700    8.6870 N.am   66  GLY66      -0.1939
     83  CA        23.3210    5.3440    9.6700 C.3    66  GLY66       0.2014
     84  C         23.4210    4.1140   10.5560 C.2    66  GLY66       0.2639
     85  O         24.3860    3.9590   11.3040 O.2    66  GLY66      -0.2714
     86  N         22.4230    3.2400   10.4770 N.am   67  GLY67      -0.1939
     87  CA        22.4190    2.0110   11.2540 C.3    67  GLY67       0.2014
     88  C         22.0220    2.1960   12.7080 C.2    67  GLY67       0.2638
     89  O         21.3080    3.1350   13.0580 O.2    67  GLY67      -0.2714
     90  N         22.4950    1.2940   13.5620 N.am   68  GLU68      -0.1977
     91  CA        22.1370    1.3090   14.9770 C.3    68  GLU68       0.1602
     92  C         23.1420    2.0780   15.8220 C.2    68  GLU68       0.2287
     93  O         24.3440    2.0410   15.5610 O.2    68  GLU68      -0.2864
     94  CB        22.0350   -0.1180   15.5180 C.3    68  GLU68       0.0415
     95  CG        20.9880   -0.9830   14.8480 C.3    68  GLU68       0.1163
     96  CD        20.9330   -2.3760   15.4440 C.2    68  GLU68       0.3649
     97  OE1       21.7750   -2.6800   16.3170 O.co2  68  GLU68      -0.2457
     98  OE2       20.0470   -3.1620   15.0450 O.co2  68  GLU68      -0.2457
     99  N         19.9370   -0.8990   20.3090 N.3   111  GLU111     -0.1245
    100  CA        19.4830   -1.6280   19.1300 C.3   111  GLU111      0.1567
    101  C         18.2170   -1.0070   18.5370 C.2   111  GLU111      0.2260
    102  O         17.9380   -1.1630   17.3480 O.2   111  GLU111     -0.2867
    103  CB        19.2270   -3.1000   19.4680 C.3   111  GLU111      0.0388
    104  CG        20.4580   -3.8680   19.9330 C.3   111  GLU111      0.1160
    105  CD        20.6410   -3.8520   21.4440 C.2   111  GLU111      0.3649
    106  OE1       20.3040   -2.8350   22.0910 O.co2 111  GLU111     -0.2457
    107  OE2       21.1210   -4.8690   21.9870 O.co2 111  GLU111     -0.2457
    108  N         18.0690    4.2030   16.0230 N.3   114  LEU114     -0.1245
    109  CA        18.6880    4.2180   14.7050 C.3   114  LEU114      0.1561
    110  C         19.1850    5.6080   14.3380 C.2   114  LEU114      0.2260
    111  O         18.7630    6.6040   14.9240 O.2   114  LEU114     -0.2867
    112  CB        17.7090    3.7000   13.6500 C.3   114  LEU114      0.0270
    113  CG        17.1190    2.3190   13.9480 C.3   114  LEU114      0.0019
    114  CD1       16.1800    1.8790   12.8310 C.3   114  LEU114      0.0001
    115  CD2       18.2260    1.2950   14.1590 C.3   114  LEU114      0.0001
    116  N         13.0430    3.5300   17.4080 N.3   124  SER124     -0.1217
    117  CA        12.5810    2.5060   16.4770 C.3   124  SER124      0.1889
    118  C         11.8580    1.3420   17.1520 C.2   124  SER124      0.2288
    119  O         12.1930    0.9540   18.2740 O.2   124  SER124     -0.2866
    120  CB        13.7680    1.9690   15.6670 C.3   124  SER124      0.2089
    121  OG        13.3790    0.8980   14.8220 O.3   124  SER124     -0.2183
@<TRIPOS>BOND
     1     1     2    1
     2     2     5    1
     3     2     3    1
     4     5     6    1
     5     6     7    1
     6     3     4    2
     7     7     8    2
     8     7     9   am
     9    67    65   ar
    10    67    68   ar
    11    65    63   ar
    12    69    68    1
    13    68    66   ar
    14    29    30    1
    15    63    62    1
    16    63    64   ar
    17    62    59    1
    18    66    64   ar
    19    30    31    1
    20    30    33    1
    21    31    32    2
    22    80    81    1
    23    80    77    1
    24    17    15    1
    25    15    16    1
    26    15    14    1
    27    10    11    1
    28    44    43    2
    29    59    58    1
    30    59    60    1
    31    58    51   am
    32    24    25    2
    33    24    23    1
    34    61    60    2
    35    77    76    1
    36    77    78    1
    37    41    42    1
    38    60    70   am
    39    11    14    1
    40    11    12    1
    41    43    42    1
    42    43    49   am
    43    76    72   am
    44    79    78    2
    45    51    50    1
    46    51    52    2
    47    50    49    1
    48    50    53    1
    49    78    82   am
    50    23    22    1
    51    23    26    1
    52    42    45    1
    53    70    71    1
    54    27    26    1
    55    54    53    1
    56    54    55    1
    57    72    71    1
    58    72    73    2
    59    12    18   am
    60    12    13    2
    61    71    74    1
    62    18    19    1
    63    26    28    1
    64    82    83    1
    65    45    46    1
    66    57    55   ar
    67    55    56   ar
    68    46    48    1
    69    46    47    1
    70    83    84    1
    71    19    20    1
    72    20    21    2
    73    74    75    1
    74    86    84   am
    75    86    87    1
    76    84    85    2
    77    87    88    1
    78    39    38    1
    79    36    37    2
    80    36    35    1
    81    88    89    2
    82    88    90   am
    83   114   113    1
    84    35    38    1
    85    35    34    1
    86    38    40    1
    87    90    91    1
    88   112   113    1
    89   112   109    1
    90   113   115    1
    91   110   109    1
    92   110   111    2
    93   109   108    1
    94   121   120    1
    95    95    96    1
    96    95    94    1
    97    91    94    1
    98    91    92    1
    99    98    96   ar
   100    96    97   ar
   101    93    92    2
   102   120   117    1
   103   117   118    1
   104   117   116    1
   105   118   119    2
   106   102   101    2
   107   101   100    1
   108   100   103    1
   109   100    99    1
   110   103   104    1
   111   104   105    1
   112   105   107   ar
   113   105   106   ar
