@<TRIPOS>MOLECULE
tmp/2ym4A00.pdb
 183 173 0 0 0
SMALL
GASTEIGER

@<TRIPOS>ATOM
      1  N         17.7100   -5.7630   -0.1930 N.3    10  GLN10      -0.1245
      2  CA        18.4320   -6.6190    0.7430 C.3    10  GLN10       0.1566
      3  C         17.7140   -6.6710    2.0860 C.2    10  GLN10       0.2260
      4  O         17.0420   -5.7180    2.4740 O.2    10  GLN10      -0.2867
      5  CB        19.8700   -6.1290    0.9330 C.3    10  GLN10       0.0367
      6  CG        19.9820   -4.6710    1.3520 C.3    10  GLN10       0.0905
      7  CD        21.3270   -4.3460    1.9760 C.2    10  GLN10       0.2608
      8  OE1       22.2040   -5.2060    2.0710 O.2    10  GLN10      -0.2717
      9  NE2       21.4930   -3.1020    2.4120 N.am   10  GLN10      -0.0878
     10  N         17.4040   -6.2240    5.8710 N.3    12  LEU12      -0.1231
     11  CA        18.0880   -5.3120    6.7820 C.3    12  LEU12       0.1693
     12  C         18.2980   -5.9060    8.1750 C.2    12  LEU12       0.2593
     13  O         19.2240   -5.5170    8.8850 O.2    12  LEU12      -0.2718
     14  CB        17.3290   -3.9870    6.8880 C.3    12  LEU12       0.0284
     15  CG        17.0520   -3.2480    5.5780 C.3    12  LEU12       0.0019
     16  CD1       16.3500   -1.9290    5.8540 C.3    12  LEU12       0.0001
     17  CD2       18.3410   -3.0190    4.8090 C.3    12  LEU12       0.0001
     18  N         17.4370   -6.8410    8.5630 N.am   13  GLY13      -0.1942
     19  CA        17.5160   -7.4450    9.8820 C.3    13  GLY13       0.2014
     20  C         16.2410   -8.1730   10.2640 C.2    13  GLY13       0.2638
     21  O         15.1690   -7.8960    9.7240 O.2    13  GLY13      -0.2714
     22  N         16.3530   -9.1010   11.2090 N.am   14  GLU14      -0.1977
     23  CA        15.2460   -9.9950   11.5400 C.3    14  GLU14       0.1602
     24  C         14.3980   -9.5240   12.7210 C.2    14  GLU14       0.2287
     25  O         14.3460   -8.3340   13.0400 O.2    14  GLU14      -0.2864
     26  CB        15.7750  -11.4040   11.8270 C.3    14  GLU14       0.0415
     27  CG        16.3550  -12.1730   10.6620 C.3    14  GLU14       0.1163
     28  CD        15.4040  -12.3590    9.4750 C.2    14  GLU14       0.3649
     29  OE1       14.3850  -13.0440    9.6220 O.co2  14  GLU14      -0.2457
     30  OE2       15.6710  -11.8230    8.3900 O.co2  14  GLU14      -0.2457
     31  N          9.2300   -9.8130   15.4060 N.3    17  TYR17      -0.1241
     32  CA         8.2930   -8.7930   14.9830 C.3    17  TYR17       0.1605
     33  C          8.3000   -8.8530   13.4650 C.2    17  TYR17       0.2264
     34  O          7.5470   -8.1510   12.7940 O.2    17  TYR17      -0.2867
     35  CB         8.7380   -7.4130   15.4700 C.3    17  TYR17       0.0534
     36  CG         9.2660   -7.3800   16.8860 C.ar   17  TYR17      -0.0201
     37  CD1        8.4290   -7.7270   17.9200 C.ar   17  TYR17      -0.0009
     38  CD2       10.5740   -7.0150   17.1040 C.ar   17  TYR17      -0.0009
     39  CE1        8.9170   -7.7030   19.2100 C.ar   17  TYR17       0.0417
     40  CE2       11.0640   -6.9860   18.3870 C.ar   17  TYR17       0.0417
     41  CZ        10.2240   -7.3240   19.4310 C.ar   17  TYR17       0.1957
     42  OH        10.7010   -7.1970   20.7320 O.3    17  TYR17      -0.2866
     43  N         12.7830   -7.6500    8.0810 N.3    20  VAL20      -0.1245
     44  CA        12.7400   -6.3110    7.5060 C.3    20  VAL20       0.1561
     45  C         13.5840   -6.2290    6.2410 C.2    20  VAL20       0.2260
     46  O         14.7220   -6.6950    6.2130 O.2    20  VAL20      -0.2867
     47  CB        13.2390   -5.2540    8.5060 C.3    20  VAL20       0.0252
     48  CG1       13.3720   -3.9010    7.8260 C.3    20  VAL20       0.0019
     49  CG2       12.3030   -5.1700    9.7010 C.3    20  VAL20       0.0019
     50  N         12.0570    1.2650    4.5270 N.3    33  ALA33      -0.1245
     51  CA        12.2040   -0.0690    5.0950 C.3    33  ALA33       0.1562
     52  C         10.8440   -0.7480    5.1910 C.2    33  ALA33       0.2260
     53  O          9.8930   -0.1730    5.7210 O.2    33  ALA33      -0.2867
     54  CB        12.8630    0.0040    6.4630 C.3    33  ALA33       0.0290
     55  N          8.5800   -3.8110    6.6230 N.3    35  LYS35      -0.1245
     56  CA         8.4510   -4.8630    7.6230 C.3    35  LYS35       0.1561
     57  C          7.5820   -5.9880    7.0740 C.2    35  LYS35       0.2260
     58  O          6.5480   -5.7370    6.4550 O.2    35  LYS35      -0.2867
     59  CB         7.8500   -4.2960    8.9120 C.3    35  LYS35       0.0271
     60  CG         8.0810   -5.1440   10.1530 C.3    35  LYS35       0.0035
     61  CD         7.9640   -4.2880   11.4070 C.3    35  LYS35       0.0206
     62  CE         7.8680   -5.1360   12.6640 C.3    35  LYS35       0.1093
     63  NZ         6.5340   -5.7860   12.7740 N.3    35  LYS35      -0.1314
     64  N          0.7400   -1.9870   16.8020 N.3    42  GLU42      -0.1245
     65  CA         1.9520   -1.3530   16.3010 C.3    42  GLU42       0.1567
     66  C          1.6150   -0.3700   15.1880 C.2    42  GLU42       0.2260
     67  O          2.1450    0.7400   15.1420 O.2    42  GLU42      -0.2867
     68  CB         2.9300   -2.4090   15.7890 C.3    42  GLU42       0.0388
     69  CG         4.2320   -1.8420   15.2530 C.3    42  GLU42       0.1160
     70  CD         5.2850   -2.9130   15.0490 C.2    42  GLU42       0.3649
     71  OE1        5.0300   -4.0750   15.4320 O.co2  42  GLU42      -0.2457
     72  OE2        6.3660   -2.5950   14.5100 O.co2  42  GLU42      -0.2457
     73  N         11.1860    7.1220   14.2050 N.3    55  VAL55      -0.1245
     74  CA        11.1520    6.5450   12.8680 C.3    55  VAL55       0.1561
     75  C          9.8040    6.8050   12.2090 C.2    55  VAL55       0.2260
     76  O          8.7580    6.4700   12.7600 O.2    55  VAL55      -0.2867
     77  CB        11.4410    5.0350   12.8880 C.3    55  VAL55       0.0252
     78  CG1       11.2860    4.4540   11.4940 C.3    55  VAL55       0.0019
     79  CG2       12.8420    4.7770   13.4290 C.3    55  VAL55       0.0019
     80  N          8.2760    1.9670    6.7390 N.3    65  LEU65      -0.1231
     81  CA         8.9610    2.7850    7.7310 C.3    65  LEU65       0.1693
     82  C         10.1740    3.5110    7.1510 C.2    65  LEU65       0.2592
     83  O         10.7060    3.1250    6.1090 O.2    65  LEU65      -0.2718
     84  CB         9.3880    1.9130    8.9140 C.3    65  LEU65       0.0284
     85  CG         8.2750    1.0910    9.5770 C.3    65  LEU65       0.0019
     86  CD1        8.8380   -0.1780   10.2060 C.3    65  LEU65       0.0001
     87  CD2        7.5040    1.9180   10.6010 C.3    65  LEU65       0.0001
     88  N         10.6020    4.5660    7.8380 N.am   66  GLU66      -0.1966
     89  CA        11.7530    5.3600    7.4200 C.3    66  GLU66       0.1733
     90  C         13.0380    4.5440    7.4060 C.2    66  GLU66       0.2616
     91  O         13.3790    3.8890    8.3880 O.2    66  GLU66      -0.2715
     92  CB        11.9170    6.5760    8.3390 C.3    66  GLU66       0.0429
     93  CG        13.1970    7.3750    8.1150 C.3    66  GLU66       0.1163
     94  CD        13.3330    8.5550    9.0690 C.2    66  GLU66       0.3649
     95  OE1       12.4140    8.7590    9.8940 O.co2  66  GLU66      -0.2457
     96  OE2       14.3570    9.2740    8.9930 O.co2  66  GLU66      -0.2457
     97  N         13.7450    4.5830    6.2840 N.am   67  TYR67      -0.1960
     98  CA        15.0430    3.9350    6.1910 C.3    67  TYR67       0.1771
     99  C         16.1110    4.7940    6.8550 C.2    67  TYR67       0.2620
    100  O         16.2880    5.9590    6.5060 O.2    67  TYR67      -0.2715
    101  CB        15.4050    3.6660    4.7320 C.3    67  TYR67       0.0574
    102  CG        16.7890    3.0910    4.5500 C.ar   67  TYR67      -0.0198
    103  CD1       17.1300    1.8650    5.1070 C.ar   67  TYR67      -0.0009
    104  CD2       17.7550    3.7720    3.8210 C.ar   67  TYR67      -0.0009
    105  CE1       18.3930    1.3330    4.9440 C.ar   67  TYR67       0.0417
    106  CE2       19.0220    3.2480    3.6510 C.ar   67  TYR67       0.0417
    107  CZ        19.3360    2.0280    4.2140 C.ar   67  TYR67       0.1957
    108  OH        20.5960    1.5020    4.0470 O.3    67  TYR67      -0.2866
    109  N         16.8090    4.2160    7.8260 N.am   68  CYS68      -0.1954
    110  CA        17.8670    4.9210    8.5390 C.3    68  CYS68       0.1843
    111  C         19.2350    4.3720    8.1370 C.2    68  CYS68       0.2626
    112  O         19.6940    3.3690    8.6800 O.2    68  CYS68      -0.2714
    113  CB        17.6660    4.7900   10.0490 C.3    68  CYS68       0.0997
    114  SG        16.0450    5.3430   10.6400 S.3    68  CYS68      -0.0797
    115  N         19.8820    5.0380    7.1840 N.am   69  SER69      -0.1950
    116  CA        21.1290    4.5500    6.5920 C.3    69  SER69       0.1924
    117  C         22.3080    4.4940    7.5640 C.2    69  SER69       0.2314
    118  O         23.3340    3.8890    7.2600 O.2    69  SER69      -0.2863
    119  CB        21.5220    5.4170    5.3930 C.3    69  SER69       0.2116
    120  OG        21.9630    6.6960    5.8160 O.3    69  SER69      -0.2180
    121  N         22.3030    3.1360   10.4730 N.3    71  GLY71      -0.1210
    122  CA        22.2470    1.9070   11.2390 C.3    71  GLY71       0.1956
    123  C         21.9020    2.1570   12.6920 C.2    71  GLY71       0.2611
    124  O         21.2160    3.1230   13.0230 O.2    71  GLY71      -0.2717
    125  N         22.4020    1.2920   13.5650 N.am   72  GLU72      -0.1979
    126  CA        22.0440    1.3390   14.9750 C.3    72  GLU72       0.1602
    127  C         23.0630    2.1170   15.8040 C.2    72  GLU72       0.2287
    128  O         24.2640    2.0820   15.5270 O.2    72  GLU72      -0.2864
    129  CB        21.9110   -0.0790   15.5310 C.3    72  GLU72       0.0415
    130  CG        20.9710   -0.9900   14.7490 C.3    72  GLU72       0.1163
    131  CD        20.9040   -2.3850   15.3410 C.2    72  GLU72       0.3649
    132  OE1       21.6000   -2.6300   16.3480 O.co2  72  GLU72      -0.2457
    133  OE2       20.1590   -3.2340   14.8060 O.co2  72  GLU72      -0.2457
    134  N         19.7900   -0.8700   20.2230 N.3   115  GLU115     -0.1231
    135  CA        19.3960   -1.5980   19.0240 C.3   115  GLU115      0.1699
    136  C         18.1480   -0.9700   18.4220 C.2   115  GLU115      0.2592
    137  O         17.8880   -1.0990   17.2270 O.2   115  GLU115     -0.2718
    138  CB        19.1460   -3.0730   19.3340 C.3   115  GLU115      0.0402
    139  CG        20.3580   -3.8260   19.8680 C.3   115  GLU115      0.1161
    140  CD        20.4890   -3.7510   21.3820 C.2   115  GLU115      0.3649
    141  OE1       20.1150   -2.7150   21.9720 O.co2 115  GLU115     -0.2457
    142  OE2       20.9600   -4.7380   21.9870 O.co2 115  GLU115     -0.2457
    143  N         17.3820   -0.2840   19.2620 N.am  116  ASN116     -0.1974
    144  CA        16.1390    0.3450   18.8280 C.3   116  ASN116      0.1688
    145  C         16.2720    1.8490   18.6030 C.2   116  ASN116      0.2292
    146  O         15.2870    2.5430   18.3500 O.2   116  ASN116     -0.2864
    147  CB        15.0130    0.0330   19.8110 C.3   116  ASN116      0.1181
    148  CG        14.5810   -1.4210   19.7430 C.2   116  ASN116      0.2629
    149  OD1       14.7660   -2.0840   18.7200 O.2   116  ASN116     -0.2716
    150  ND2       14.0050   -1.9240   20.8270 N.am  116  ASN116     -0.0877
    151  N         17.9550    4.1070   15.9760 N.3   118  LEU118     -0.1245
    152  CA        18.5970    4.1290   14.6680 C.3   118  LEU118      0.1561
    153  C         19.0630    5.5260   14.2920 C.2   118  LEU118      0.2260
    154  O         18.6070    6.5160   14.8560 O.2   118  LEU118     -0.2867
    155  CB        17.6410    3.5930   13.6010 C.3   118  LEU118      0.0270
    156  CG        17.0520    2.2140   13.9060 C.3   118  LEU118      0.0019
    157  CD1       16.1360    1.7690   12.7810 C.3   118  LEU118      0.0001
    158  CD2       18.1630    1.2060   14.1370 C.3   118  LEU118      0.0001
    159  N         12.9950    3.5600   17.3310 N.3   128  SER128     -0.1202
    160  CA        12.4760    2.5760   16.3960 C.3   128  SER128      0.2020
    161  C         11.7630    1.3970   17.0590 C.2   128  SER128      0.2619
    162  O         12.0190    1.0640   18.2190 O.2   128  SER128     -0.2717
    163  CB        13.6120    2.0630   15.5050 C.3   128  SER128      0.2103
    164  OG        13.1570    1.0110   14.6670 O.3   128  SER128     -0.2182
    165  N         10.8700    0.7720   16.2950 N.am  129  ASP129     -0.1959
    166  CA        10.1930   -0.4540   16.7080 C.3   129  ASP129      0.1840
    167  C          9.2230   -0.2280   17.8630 C.2   129  ASP129      0.2622
    168  O          9.6140   -0.2790   19.0290 O.2   129  ASP129     -0.2715
    169  CB        11.2190   -1.5260   17.0860 C.3   129  ASP129      0.1450
    170  CG        10.6030   -2.9040   17.2150 C.2   129  ASP129      0.3671
    171  OD1        9.3850   -2.9920   17.4700 O.co2 129  ASP129     -0.2456
    172  OD2       11.3370   -3.9000   17.0560 O.co2 129  ASP129     -0.2456
    173  N          7.9580    0.0160   17.5320 N.am  130  PHE130     -0.1974
    174  CA         6.9280    0.2340   18.5450 C.3   130  PHE130      0.1639
    175  C          6.0400   -0.9930   18.7280 C.2   130  PHE130      0.2290
    176  O          4.8600   -0.8760   19.0610 O.2   130  PHE130     -0.2864
    177  CB         6.0820    1.4620   18.2070 C.3   130  PHE130      0.0560
    178  CG         6.8190    2.7610   18.3650 C.ar  130  PHE130     -0.0200
    179  CD1        7.6750    3.2070   17.3720 C.ar  130  PHE130     -0.0042
    180  CD2        6.6610    3.5330   19.5050 C.ar  130  PHE130     -0.0042
    181  CE1        8.3570    4.3920   17.5120 C.ar  130  PHE130     -0.0003
    182  CE2        7.3430    4.7230   19.6490 C.ar  130  PHE130     -0.0003
    183  CZ         8.1910    5.1530   18.6500 C.ar  130  PHE130     -0.0000
@<TRIPOS>BOND
     1     1     2    1
     2     2     5    1
     3     2     3    1
     4     5     6    1
     5     6     7    1
     6     7     8    2
     7     7     9   am
     8     3     4    2
     9   106   104   ar
    10   106   107   ar
    11   104   102   ar
    12   108   107    1
    13   107   105   ar
    14    50    51    1
    15   102   101    1
    16   102   103   ar
    17   101    98    1
    18    17    15    1
    19   105   103   ar
    20    51    52    1
    21    51    54    1
    22    52    53    2
    23   119   120    1
    24   119   116    1
    25    15    16    1
    26    15    14    1
    27    10    11    1
    28    83    82    2
    29    98    97    1
    30    98    99    1
    31    46    45    2
    32    45    44    1
    33    97    90   am
    34    58    57    2
    35   100    99    2
    36   116   115    1
    37   116   117    1
    38    55    56    1
    39    80    81    1
    40    11    14    1
    41    11    12    1
    42    99   109   am
    43    57    56    1
    44    82    81    1
    45    82    88   am
    46   115   111   am
    47   118   117    2
    48    90    89    1
    49    90    91    2
    50    89    88    1
    51    89    92    1
    52    44    43    1
    53    44    47    1
    54    56    59    1
    55    81    84    1
    56    48    47    1
    57   109   110    1
    58    93    92    1
    59    93    94    1
    60   111   110    1
    61   111   112    2
    62    12    18   am
    63    12    13    2
    64    30    28   ar
    65    47    49    1
    66   110   113    1
    67    18    19    1
    68    59    60    1
    69    84    85    1
    70    96    94   ar
    71    94    95   ar
    72    28    29   ar
    73    28    27    1
    74    85    86    1
    75    85    87    1
    76    21    20    2
    77    19    20    1
    78   113   114    1
    79    60    61    1
    80    20    22   am
    81   121   122    1
    82    27    26    1
    83    22    23    1
    84   122   123    1
    85    61    62    1
    86    78    77    1
    87    23    26    1
    88    23    24    1
    89    75    76    2
    90    75    74    1
    91    62    63    1
    92   123   124    2
    93   123   125   am
    94    24    25    2
    95   157   156    1
    96    34    33    2
    97    74    77    1
    98    74    73    1
    99    77    79    1
   100    33    32    1
   101   125   126    1
   102   155   156    1
   103   155   152    1
   104   156   158    1
   105   153   152    1
   106   153   154    2
   107    72    70   ar
   108   164   163    1
   109   152   151    1
   110   130   131    1
   111   130   129    1
   112   133   131   ar
   113   126   129    1
   114   126   127    1
   115    32    31    1
   116    32    35    1
   117    70    69    1
   118    70    71   ar
   119    67    66    2
   120    66    65    1
   121    69    68    1
   122   131   132   ar
   123    35    36    1
   124   163   160    1
   125   128   127    2
   126    68    65    1
   127   165   166    1
   128   165   161   am
   129    65    64    1
   130   160   161    1
   131   160   159    1
   132   166   169    1
   133   166   167    1
   134    36    38   ar
   135    36    37   ar
   136   172   170   ar
   137   161   162    2
   138   169   170    1
   139    38    40   ar
   140   170   171   ar
   141   137   136    2
   142   179   181   ar
   143   179   178   ar
   144   181   183   ar
   145   173   167   am
   146   173   174    1
   147   167   168    2
   148    37    39   ar
   149   177   178    1
   150   177   174    1
   151   146   145    2
   152   178   180   ar
   153    40    41   ar
   154   136   135    1
   155   136   143   am
   156   174   175    1
   157   145   144    1
   158   183   182   ar
   159   149   148    2
   160   175   176    2
   161   144   143    1
   162   144   147    1
   163   135   138    1
   164   135   134    1
   165    39    41   ar
   166   138   139    1
   167    41    42    1
   168   180   182   ar
   169   148   147    1
   170   148   150   am
   171   139   140    1
   172   140   141   ar
   173   140   142   ar
