@<TRIPOS>MOLECULE
tmp/2ym5A00.pdb
 136 126 0 0 0
SMALL
GASTEIGER

@<TRIPOS>ATOM
      1  N         17.9860   -5.6440    5.8930 N.3     8  LEU8       -0.1231
      2  CA        18.6330   -4.7630    6.8530 C.3     8  LEU8        0.1693
      3  C         18.8370   -5.4540    8.1970 C.2     8  LEU8        0.2592
      4  O         19.8100   -5.1860    8.8970 O.2     8  LEU8       -0.2718
      5  CB        17.8310   -3.4680    7.0120 C.3     8  LEU8        0.0284
      6  CG        17.7800   -2.6070    5.7470 C.3     8  LEU8        0.0019
      7  CD1       16.7570   -1.4880    5.8860 C.3     8  LEU8        0.0001
      8  CD2       19.1610   -2.0560    5.4140 C.3     8  LEU8        0.0001
      9  N         17.9200   -6.3500    8.5470 N.am    9  GLY9       -0.1957
     10  CA        18.0290   -7.1100    9.7770 C.3     9  GLY9        0.1869
     11  C         16.8320   -8.0140   10.0110 C.2     9  GLY9        0.2309
     12  O         15.8780   -8.0060    9.2330 O.2     9  GLY9       -0.2863
     13  N         13.3070   -7.0890    8.0570 N.3    11  VAL11      -0.1245
     14  CA        13.1630   -5.7700    7.4630 C.3    11  VAL11       0.1561
     15  C         14.0720   -5.6490    6.2580 C.2    11  VAL11       0.2260
     16  O         15.2670   -5.9390    6.3330 O.2    11  VAL11      -0.2867
     17  CB        13.5010   -4.6420    8.4530 C.3    11  VAL11       0.0252
     18  CG1       13.3250   -3.2860    7.7810 C.3    11  VAL11       0.0019
     19  CG2       12.6260   -4.7450    9.6900 C.3    11  VAL11       0.0019
     20  N         12.4290    1.5960    4.5010 N.3    24  ALA24      -0.1245
     21  CA        12.5570    0.2700    5.0920 C.3    24  ALA24       0.1562
     22  C         11.1820   -0.3800    5.1980 C.2    24  ALA24       0.2260
     23  O         10.2020    0.2690    5.5600 O.2    24  ALA24      -0.2867
     24  CB        13.2240    0.3510    6.4570 C.3    24  ALA24       0.0290
     25  N          9.0040   -3.5620    6.8100 N.3    26  LYS26      -0.1245
     26  CA         8.9440   -4.6220    7.8030 C.3    26  LYS26       0.1561
     27  C          7.9270   -5.6570    7.3460 C.2    26  LYS26       0.2260
     28  O          6.7680   -5.3260    7.0930 O.2    26  LYS26      -0.2867
     29  CB         8.5520   -4.0370    9.1630 C.3    26  LYS26       0.0271
     30  CG         8.4420   -5.0400   10.3020 C.3    26  LYS26       0.0035
     31  CD         7.9080   -4.3570   11.5570 C.3    26  LYS26       0.0206
     32  CE         7.6770   -5.3410   12.6970 C.3    26  LYS26       0.1093
     33  NZ         8.9480   -5.8280   13.3060 N.3    26  LYS26      -0.1314
     34  N          0.6860   -2.1180   16.8550 N.3    35  GLU35      -0.1245
     35  CA         1.9170   -1.4760   16.4060 C.3    35  GLU35       0.1567
     36  C          1.6340   -0.4580   15.3090 C.2    35  GLU35       0.2260
     37  O          2.2030    0.6360   15.2950 O.2    35  GLU35      -0.2867
     38  CB         2.9090   -2.5230   15.9020 C.3    35  GLU35       0.0388
     39  CG         4.1620   -1.9430   15.2650 C.3    35  GLU35       0.1160
     40  CD         5.1920   -3.0120   14.9470 C.2    35  GLU35       0.3649
     41  OE1        4.9350   -4.1940   15.2570 O.co2  35  GLU35      -0.2457
     42  OE2        6.2580   -2.6700   14.3960 O.co2  35  GLU35      -0.2457
     43  N         11.2950    7.1660   14.2460 N.3    48  VAL48      -0.1245
     44  CA        11.1910    6.5770   12.9190 C.3    48  VAL48       0.1561
     45  C          9.8170    6.8450   12.3050 C.2    48  VAL48       0.2260
     46  O          8.7910    6.5510   12.9170 O.2    48  VAL48      -0.2867
     47  CB        11.4730    5.0590   12.9530 C.3    48  VAL48       0.0252
     48  CG1       11.0570    4.4010   11.6350 C.3    48  VAL48       0.0019
     49  CG2       12.9540    4.8090   13.2500 C.3    48  VAL48       0.0019
     50  N          8.5370    2.1550    6.6040 N.3    62  LEU62      -0.1231
     51  CA         9.1810    2.9110    7.6700 C.3    62  LEU62       0.1693
     52  C         10.3520    3.7310    7.1570 C.2    62  LEU62       0.2592
     53  O         10.9860    3.3770    6.1700 O.2    62  LEU62      -0.2718
     54  CB         9.6830    1.9520    8.7460 C.3    62  LEU62       0.0284
     55  CG         8.6340    1.0310    9.3720 C.3    62  LEU62       0.0019
     56  CD1        9.2980   -0.1570   10.0770 C.3    62  LEU62       0.0001
     57  CD2        7.7490    1.8230   10.3230 C.3    62  LEU62       0.0001
     58  N         10.6420    4.8240    7.8470 N.am   63  GLU63      -0.1966
     59  CA        11.7700    5.6730    7.4940 C.3    63  GLU63       0.1733
     60  C         13.0620    4.8640    7.4510 C.2    63  GLU63       0.2616
     61  O         13.3740    4.1320    8.3900 O.2    63  GLU63      -0.2715
     62  CB        11.8920    6.8080    8.5160 C.3    63  GLU63       0.0429
     63  CG        13.1620    7.6240    8.4100 C.3    63  GLU63       0.1163
     64  CD        13.2390    8.7140    9.4640 C.2    63  GLU63       0.3649
     65  OE1       12.3430    8.7820   10.3320 O.co2  63  GLU63      -0.2457
     66  OE2       14.2040    9.5070    9.4290 O.co2  63  GLU63      -0.2457
     67  N         13.8070    4.9840    6.3570 N.am   64  TYR64      -0.1960
     68  CA        15.1120    4.3320    6.2580 C.3    64  TYR64       0.1771
     69  C         16.1940    5.1590    6.9390 C.2    64  TYR64       0.2619
     70  O         16.3490    6.3480    6.6620 O.2    64  TYR64      -0.2715
     71  CB        15.4970    4.0810    4.7970 C.3    64  TYR64       0.0574
     72  CG        16.8890    3.5060    4.6160 C.ar   64  TYR64      -0.0198
     73  CD1       17.2860    2.3580    5.2950 C.ar   64  TYR64      -0.0009
     74  CD2       17.8010    4.1040    3.7520 C.ar   64  TYR64      -0.0009
     75  CE1       18.5570    1.8300    5.1260 C.ar   64  TYR64       0.0417
     76  CE2       19.0720    3.5820    3.5710 C.ar   64  TYR64       0.0417
     77  CZ        19.4440    2.4460    4.2580 C.ar   64  TYR64       0.1957
     78  OH        20.7070    1.9280    4.0760 O.3    64  TYR64      -0.2866
     79  N         16.9410    4.5160    7.8270 N.am   65  CYS65      -0.1968
     80  CA        18.0080    5.1770    8.5640 C.3    65  CYS65       0.1712
     81  C         19.3500    4.5620    8.1610 C.2    65  CYS65       0.2296
     82  O         19.7230    3.4880    8.6410 O.2    65  CYS65      -0.2864
     83  CB        17.7640    5.0380   10.0710 C.3    65  CYS65       0.0983
     84  SG        16.1480    5.6950   10.6110 S.3    65  CYS65      -0.0798
     85  N         22.5210    3.2470   10.4280 N.3    68  GLY68      -0.1210
     86  CA        22.4660    2.0280   11.2190 C.3    68  GLY68       0.1956
     87  C         22.0610    2.2790   12.6580 C.2    68  GLY68       0.2611
     88  O         21.4680    3.3120   12.9760 O.2    68  GLY68      -0.2717
     89  N         22.3820    1.3380   13.5390 N.am   69  GLU69      -0.1979
     90  CA        21.9920    1.4650   14.9410 C.3    69  GLU69       0.1602
     91  C         23.0890    2.0220   15.8440 C.2    69  GLU69       0.2287
     92  O         24.2810    1.7870   15.6200 O.2    69  GLU69      -0.2864
     93  CB        21.4390    0.1450   15.4920 C.3    69  GLU69       0.0415
     94  CG        22.2140   -1.0920   15.1060 C.3    69  GLU69       0.1163
     95  CD        21.5780   -2.3670   15.6460 C.2    69  GLU69       0.3649
     96  OE1       20.6320   -2.8840   15.0150 O.co2  69  GLU69      -0.2457
     97  OE2       22.0280   -2.8500   16.7030 O.co2  69  GLU69      -0.2457
     98  N         20.1140   -0.9430   20.2300 N.3   112  GLU112     -0.1231
     99  CA        19.6490   -1.6840   19.0640 C.3   112  GLU112      0.1699
    100  C         18.3600   -1.0830   18.5020 C.2   112  GLU112      0.2592
    101  O         18.0130   -1.3180   17.3450 O.2   112  GLU112     -0.2718
    102  CB        19.4120   -3.1610   19.4150 C.3   112  GLU112      0.0402
    103  CG        20.6400   -3.8990   19.9570 C.3   112  GLU112      0.1161
    104  CD        20.7680   -3.8160   21.4750 C.2   112  GLU112      0.3649
    105  OE1       20.3070   -2.8200   22.0860 O.co2 112  GLU112     -0.2457
    106  OE2       21.3260   -4.7650   22.0620 O.co2 112  GLU112     -0.2457
    107  N         17.6370   -0.3350   19.3300 N.am  113  ASN113     -0.1974
    108  CA        16.4000    0.3040   18.8880 C.3   113  ASN113      0.1688
    109  C         16.5530    1.8040   18.7050 C.2   113  ASN113      0.2292
    110  O         15.5690    2.5420   18.6970 O.2   113  ASN113     -0.2864
    111  CB        15.2690    0.0380   19.8770 C.3   113  ASN113      0.1181
    112  CG        14.7460   -1.3890   19.7960 C.2   113  ASN113      0.2629
    113  OD1       14.7950   -2.0190   18.7430 O.2   113  ASN113     -0.2716
    114  ND2       14.2360   -1.8970   20.9100 N.am  113  ASN113     -0.0877
    115  N         18.2050    4.2370   15.9820 N.3   115  LEU115     -0.1245
    116  CA        18.8450    4.2850   14.6750 C.3   115  LEU115      0.1561
    117  C         19.3770    5.6770   14.3760 C.2   115  LEU115      0.2260
    118  O         18.9790    6.6600   15.0060 O.2   115  LEU115     -0.2867
    119  CB        17.8690    3.8520   13.5770 C.3   115  LEU115      0.0270
    120  CG        17.1470    2.5340   13.8740 C.3   115  LEU115      0.0019
    121  CD1       16.1290    2.2130   12.7890 C.3   115  LEU115      0.0001
    122  CD2       18.1580    1.4080   14.0550 C.3   115  LEU115      0.0001
    123  N         13.2040    3.5480   17.4180 N.3   125  SER125     -0.1202
    124  CA        12.7130    2.5430   16.4880 C.3   125  SER125      0.2020
    125  C         11.9460    1.3970   17.1470 C.2   125  SER125      0.2618
    126  O         12.2550    0.9900   18.2660 O.2   125  SER125     -0.2717
    127  CB        13.8960    1.9520   15.7100 C.3   125  SER125      0.2103
    128  OG        13.4530    1.0260   14.7370 O.3   125  SER125     -0.2182
    129  N         10.9570    0.8740   16.4230 N.am  126  ASP126     -0.1973
    130  CA        10.2500   -0.3550   16.8000 C.3   126  ASP126      0.1709
    131  C          9.2230   -0.1550   17.9170 C.2   126  ASP126      0.2293
    132  O          9.5720   -0.0690   19.0940 O.2   126  ASP126     -0.2864
    133  CB        11.2400   -1.4630   17.1780 C.3   126  ASP126      0.1436
    134  CG        10.5680   -2.8200   17.3300 C.2   126  ASP126      0.3671
    135  OD1        9.3210   -2.8660   17.4000 O.co2 126  ASP126     -0.2456
    136  OD2       11.2900   -3.8400   17.3880 O.co2 126  ASP126     -0.2456
@<TRIPOS>BOND
     1    76    74   ar
     2    76    77   ar
     3    74    72   ar
     4    78    77    1
     5    77    75   ar
     6    20    21    1
     7    72    71    1
     8    72    73   ar
     9    71    68    1
    10    21    22    1
    11    21    24    1
    12    75    73   ar
    13    22    23    2
    14     8     6    1
    15     6     7    1
    16     6     5    1
    17     1     2    1
    18    53    52    2
    19    15    16    2
    20    15    14    1
    21    68    67    1
    22    68    69    1
    23    67    60   am
    24    50    51    1
    25    70    69    2
    26    25    26    1
    27     2     5    1
    28     2     3    1
    29    69    79   am
    30    28    27    2
    31    52    51    1
    32    52    58   am
    33    27    26    1
    34    60    59    1
    35    60    61    2
    36    14    13    1
    37    14    17    1
    38    59    58    1
    39    59    62    1
    40    51    54    1
    41    18    17    1
    42    26    29    1
    43    79    80    1
    44    81    80    1
    45    81    82    2
    46     3     9   am
    47     3     4    2
    48    63    62    1
    49    63    64    1
    50    17    19    1
    51     9    10    1
    52    80    83    1
    53    54    55    1
    54    29    30    1
    55    12    11    2
    56    55    56    1
    57    55    57    1
    58    66    64   ar
    59    64    65   ar
    60    10    11    1
    61    83    84    1
    62    30    31    1
    63    85    86    1
    64    86    87    1
    65    31    32    1
    66    48    47    1
    67    45    46    2
    68    45    44    1
    69    87    88    2
    70    87    89   am
    71    32    33    1
    72   121   120    1
    73    44    47    1
    74    44    43    1
    75    47    49    1
    76    89    90    1
    77   119   120    1
    78   119   116    1
    79   120   122    1
    80   117   116    1
    81   117   118    2
    82    42    40   ar
    83   116   115    1
    84   128   127    1
    85    90    93    1
    86    90    91    1
    87    40    41   ar
    88    40    39    1
    89    96    95   ar
    90    94    93    1
    91    94    95    1
    92    39    38    1
    93    37    36    2
    94    36    35    1
    95    92    91    2
    96    95    97   ar
    97   127   124    1
    98    38    35    1
    99    35    34    1
   100   129   130    1
   101   129   125   am
   102   124   125    1
   103   124   123    1
   104   130   133    1
   105   130   131    1
   106   125   126    2
   107   133   134    1
   108   134   136   ar
   109   134   135   ar
   110   101   100    2
   111   131   132    2
   112   100    99    1
   113   100   107   am
   114   110   109    2
   115   109   108    1
   116   113   112    2
   117   108   107    1
   118   108   111    1
   119    99   102    1
   120    99    98    1
   121   102   103    1
   122   112   111    1
   123   112   114   am
   124   103   104    1
   125   104   106   ar
   126   104   105   ar
