@<TRIPOS>MOLECULE
tmp/2ym6A00.pdb
 136 127 0 0 0
SMALL
GASTEIGER

@<TRIPOS>ATOM
      1  N         17.8520   -5.7050    6.1120 N.3     9  LEU9       -0.1231
      2  CA        18.5020   -4.7700    7.0230 C.3     9  LEU9        0.1693
      3  C         18.6710   -5.3780    8.4070 C.2     9  LEU9        0.2593
      4  O         19.6920   -5.1870    9.0640 O.2     9  LEU9       -0.2718
      5  CB        17.6960   -3.4730    7.1290 C.3     9  LEU9        0.0284
      6  CG        17.5580   -2.6300    5.8620 C.3     9  LEU9        0.0019
      7  CD1       16.6990   -1.4060    6.1410 C.3     9  LEU9        0.0001
      8  CD2       18.9270   -2.2270    5.3340 C.3     9  LEU9        0.0001
      9  N         17.6560   -6.1040    8.8520 N.am   10  GLY10      -0.1942
     10  CA        17.6920   -6.7120   10.1660 C.3    10  GLY10       0.2014
     11  C         16.6220   -7.7670   10.3280 C.2    10  GLY10       0.2638
     12  O         15.6770   -7.8330    9.5430 O.2    10  GLY10      -0.2714
     13  N         16.7770   -8.5990   11.3490 N.am   11  GLU11      -0.1977
     14  CA        15.8050   -9.6420   11.6340 C.3    11  GLU11       0.1602
     15  C         15.0920   -9.3480   12.9460 C.2    11  GLU11       0.2287
     16  O         15.6260   -8.6630   13.8180 O.2    11  GLU11      -0.2864
     17  CB        16.4840  -11.0140   11.6930 C.3    11  GLU11       0.0415
     18  CG        17.1480  -11.3660   10.3720 C.3    11  GLU11       0.1163
     19  CD        18.6300  -11.0420   10.4160 C.2    11  GLU11       0.3649
     20  OE1       19.1270  -10.4870   11.4220 O.co2  11  GLU11      -0.2457
     21  OE2       19.3140  -11.3670    9.4240 O.co2  11  GLU11      -0.2457
     22  N         13.3680   -7.0700    8.3800 N.3    17  VAL17      -0.1245
     23  CA        13.2410   -5.7430    7.7990 C.3    17  VAL17       0.1561
     24  C         14.0730   -5.6670    6.5270 C.2    17  VAL17       0.2260
     25  O         15.2580   -5.9970    6.5280 O.2    17  VAL17      -0.2867
     26  CB        13.6920   -4.6460    8.7800 C.3    17  VAL17       0.0252
     27  CG1       13.5330   -3.2730    8.1510 C.3    17  VAL17       0.0019
     28  CG2       12.8940   -4.7330   10.0690 C.3    17  VAL17       0.0019
     29  N         12.3430    1.3890    4.6320 N.3    30  ALA30      -0.1245
     30  CA        12.4610    0.0860    5.2710 C.3    30  ALA30       0.1562
     31  C         11.0840   -0.5640    5.3810 C.2    30  ALA30       0.2260
     32  O         10.1060    0.0900    5.7440 O.2    30  ALA30      -0.2867
     33  CB        13.1020    0.2170    6.6420 C.3    30  ALA30       0.0290
     34  N          9.0020   -3.6000    7.1950 N.3    32  LYS32      -0.1245
     35  CA         8.9870   -4.5820    8.2770 C.3    32  LYS32       0.1561
     36  C          7.9590   -5.6630    7.9680 C.2    32  LYS32       0.2260
     37  O          6.7750   -5.3660    7.8190 O.2    32  LYS32      -0.2867
     38  CB         8.6510   -3.8970    9.6080 C.3    32  LYS32       0.0271
     39  CG         8.7350   -4.7950   10.8360 C.3    32  LYS32       0.0035
     40  CD         8.1130   -4.1110   12.0420 C.3    32  LYS32       0.0206
     41  CE         8.5720   -4.7310   13.3470 C.3    32  LYS32       0.1093
     42  NZ         9.9870   -4.3740   13.6440 N.3    32  LYS32      -0.1314
     43  N         11.4110    7.2010   14.2420 N.3    53  VAL53      -0.1245
     44  CA        11.2640    6.6250   12.9160 C.3    53  VAL53       0.1561
     45  C          9.8750    6.8990   12.3290 C.2    53  VAL53       0.2260
     46  O          8.8630    6.5540   12.9350 O.2    53  VAL53      -0.2867
     47  CB        11.5330    5.1050   12.9560 C.3    53  VAL53       0.0252
     48  CG1       11.0430    4.4380   11.6790 C.3    53  VAL53       0.0019
     49  CG2       13.0200    4.8430   13.1850 C.3    53  VAL53       0.0019
     50  N          8.3900    2.0730    6.6730 N.3    67  LEU67      -0.1231
     51  CA         8.9950    2.9000    7.7160 C.3    67  LEU67       0.1693
     52  C         10.2410    3.6500    7.2530 C.2    67  LEU67       0.2592
     53  O         10.8870    3.2730    6.2770 O.2    67  LEU67      -0.2718
     54  CB         9.3640    2.0290    8.9180 C.3    67  LEU67       0.0284
     55  CG         8.2320    1.2340    9.5680 C.3    67  LEU67       0.0019
     56  CD1        8.7920    0.0120   10.2850 C.3    67  LEU67       0.0001
     57  CD2        7.4360    2.1190   10.5190 C.3    67  LEU67       0.0001
     58  N         10.5860    4.7050    7.9780 N.am   68  GLU68      -0.1966
     59  CA        11.7460    5.5120    7.6240 C.3    68  GLU68       0.1733
     60  C         13.0090    4.6560    7.5640 C.2    68  GLU68       0.2616
     61  O         13.2900    3.8850    8.4880 O.2    68  GLU68      -0.2715
     62  CB        11.9230    6.6500    8.6310 C.3    68  GLU68       0.0429
     63  CG        13.0710    7.5940    8.3240 C.3    68  GLU68       0.1163
     64  CD        13.1890    8.7090    9.3470 C.2    68  GLU68       0.3649
     65  OE1       12.3320    8.7840   10.2580 O.co2  68  GLU68      -0.2457
     66  OE2       14.1440    9.5070    9.2430 O.co2  68  GLU68      -0.2457
     67  N         13.7600    4.7920    6.4740 N.am   69  TYR69      -0.1960
     68  CA        15.0560    4.1340    6.3410 C.3    69  TYR69       0.1771
     69  C         16.1630    4.9670    6.9800 C.2    69  TYR69       0.2619
     70  O         16.3010    6.1610    6.7010 O.2    69  TYR69      -0.2715
     71  CB        15.3870    3.8570    4.8700 C.3    69  TYR69       0.0574
     72  CG        16.8130    3.3920    4.6310 C.ar   69  TYR69      -0.0198
     73  CD1       17.2870    2.2140    5.1990 C.ar   69  TYR69      -0.0009
     74  CD2       17.6780    4.1220    3.8190 C.ar   69  TYR69      -0.0009
     75  CE1       18.5900    1.7830    4.9780 C.ar   69  TYR69       0.0417
     76  CE2       18.9800    3.6960    3.5890 C.ar   69  TYR69       0.0417
     77  CZ        19.4300    2.5270    4.1720 C.ar   69  TYR69       0.1957
     78  OH        20.7220    2.1020    3.9480 O.3    69  TYR69      -0.2866
     79  N         16.9450    4.3240    7.8410 N.am   70  CYS70      -0.1968
     80  CA        18.0210    4.9850    8.5630 C.3    70  CYS70       0.1712
     81  C         19.3630    4.3940    8.1170 C.2    70  CYS70       0.2296
     82  O         19.7420    3.3030    8.5450 O.2    70  CYS70      -0.2864
     83  CB        17.8120    4.8170   10.0740 C.3    70  CYS70       0.0983
     84  SG        16.2040    5.4410   10.6960 S.3    70  CYS70      -0.0798
     85  N         22.7400    3.1920   10.3810 N.3    73  GLY73      -0.1210
     86  CA        22.7860    1.9890   11.1940 C.3    73  GLY73       0.1956
     87  C         22.2480    2.1950   12.5980 C.2    73  GLY73       0.2611
     88  O         21.4030    3.0520   12.8390 O.2    73  GLY73      -0.2717
     89  N         22.7390    1.4080   13.5400 N.am   74  GLU74      -0.1979
     90  CA        22.2680    1.5350   14.9130 C.3    74  GLU74       0.1602
     91  C         23.3130    2.1080   15.8530 C.2    74  GLU74       0.2287
     92  O         24.5190    1.9730   15.6240 O.2    74  GLU74      -0.2864
     93  CB        21.7130    0.2130   15.4410 C.3    74  GLU74       0.0415
     94  CG        22.6240   -0.9740   15.3210 C.3    74  GLU74       0.1163
     95  CD        21.9100   -2.2620   15.6880 C.2    74  GLU74       0.3649
     96  OE1       21.0660   -2.7250   14.9020 O.co2  74  GLU74      -0.2457
     97  OE2       22.1800   -2.8030   16.7730 O.co2  74  GLU74      -0.2457
     98  N         20.2630   -0.9770   20.3180 N.3   117  GLU117     -0.1231
     99  CA        19.8450   -1.7200   19.1380 C.3   117  GLU117      0.1699
    100  C         18.6140   -1.0860   18.4780 C.2   117  GLU117      0.2592
    101  O         18.3750   -1.2680   17.2840 O.2   117  GLU117     -0.2718
    102  CB        19.5090   -3.1750   19.5170 C.3   117  GLU117      0.0402
    103  CG        20.6820   -4.0090   20.0140 C.3   117  GLU117      0.1161
    104  CD        20.8740   -3.9490   21.5210 C.2   117  GLU117      0.3649
    105  OE1       20.6220   -2.8870   22.1370 O.co2 117  GLU117     -0.2457
    106  OE2       21.2740   -4.9840   22.0970 O.co2 117  GLU117     -0.2457
    107  N         17.8300   -0.3590   19.2670 N.am  118  ASN118     -0.1974
    108  CA        16.5700    0.2210   18.8030 C.3   118  ASN118      0.1688
    109  C         16.6820    1.6960   18.4830 C.2   118  ASN118      0.2292
    110  O         15.7000    2.3300   18.0950 O.2   118  ASN118     -0.2864
    111  CB        15.4690    0.0270   19.8590 C.3   118  ASN118      0.1181
    112  CG        14.8950   -1.3720   19.8430 C.2   118  ASN118      0.2629
    113  OD1       14.9620   -2.0680   18.8280 O.2   118  ASN118     -0.2716
    114  ND2       14.3290   -1.7950   20.9670 N.am  118  ASN118     -0.0877
    115  N         18.2570    4.1830   16.0480 N.3   120  LEU120     -0.1245
    116  CA        18.8880    4.1770   14.7320 C.3   120  LEU120      0.1561
    117  C         19.4240    5.5590   14.3620 C.2   120  LEU120      0.2260
    118  O         19.0680    6.5580   14.9860 O.2   120  LEU120     -0.2867
    119  CB        17.9180    3.6650   13.6640 C.3   120  LEU120      0.0270
    120  CG        17.1640    2.3700   13.9910 C.3   120  LEU120      0.0019
    121  CD1       16.3250    1.9300   12.7930 C.3   120  LEU120      0.0001
    122  CD2       18.1160    1.2500   14.4230 C.3   120  LEU120      0.0001
    123  N         13.1990    3.5240   17.2270 N.3   130  SER130     -0.1202
    124  CA        12.5030    2.5880   16.3540 C.3   130  SER130      0.2020
    125  C         11.9140    1.3990   17.1140 C.2   130  SER130      0.2618
    126  O         12.2650    1.1390   18.2700 O.2   130  SER130     -0.2717
    127  CB        13.4410    2.0740   15.2560 C.3   130  SER130      0.2103
    128  OG        14.3930    1.1660   15.7920 O.3   130  SER130     -0.2182
    129  N         11.0210    0.6830   16.4370 N.am  131  ASP131     -0.1973
    130  CA        10.4080   -0.5450   16.9490 C.3   131  ASP131      0.1709
    131  C          9.4020   -0.3070   18.0710 C.2   131  ASP131      0.2293
    132  O          9.7540   -0.2860   19.2590 O.2   131  ASP131     -0.2864
    133  CB        11.4600   -1.5760   17.3800 C.3   131  ASP131      0.1436
    134  CG        10.8660   -2.9700   17.5600 C.2   131  ASP131      0.3671
    135  OD1        9.6230   -3.0870   17.5260 O.co2 131  ASP131     -0.2456
    136  OD2       11.6350   -3.9430   17.7410 O.co2 131  ASP131     -0.2456
@<TRIPOS>BOND
     1    76    74   ar
     2    76    77   ar
     3    74    72   ar
     4    78    77    1
     5    77    75   ar
     6    72    71    1
     7    72    73   ar
     8    29    30    1
     9    71    68    1
    10    75    73   ar
    11    30    31    1
    12    30    33    1
    13     8     6    1
    14    31    32    2
    15     6     7    1
    16     6     5    1
    17     1     2    1
    18    53    52    2
    19    68    67    1
    20    68    69    1
    21    67    60   am
    22    24    25    2
    23    24    23    1
    24    50    51    1
    25    70    69    2
    26    69    79   am
    27     2     5    1
    28     2     3    1
    29    34    35    1
    30    52    51    1
    31    52    58   am
    32    60    59    1
    33    60    61    2
    34    59    58    1
    35    59    62    1
    36    51    54    1
    37    23    22    1
    38    23    26    1
    39    37    36    2
    40    79    80    1
    41    36    35    1
    42    81    82    2
    43    81    80    1
    44    27    26    1
    45    35    38    1
    46    63    62    1
    47    63    64    1
    48     3     9   am
    49     3     4    2
    50    80    83    1
    51    26    28    1
    52     9    10    1
    53    54    55    1
    54    66    64   ar
    55    64    65   ar
    56    21    19   ar
    57    12    11    2
    58    55    56    1
    59    55    57    1
    60    38    39    1
    61    83    84    1
    62    10    11    1
    63    11    13   am
    64    18    19    1
    65    18    17    1
    66    85    86    1
    67    19    20   ar
    68    39    40    1
    69    86    87    1
    70    13    14    1
    71    14    17    1
    72    14    15    1
    73    48    47    1
    74    40    41    1
    75    45    44    1
    76    45    46    2
    77    87    88    2
    78    87    89   am
    79   121   120    1
    80    44    47    1
    81    44    43    1
    82    15    16    2
    83    47    49    1
    84    41    42    1
    85    89    90    1
    86   119   120    1
    87   119   116    1
    88   120   122    1
    89   117   116    1
    90   117   118    2
    91   116   115    1
    92    96    95   ar
    93    90    93    1
    94    90    91    1
    95   127   128    1
    96   127   124    1
    97    94    93    1
    98    94    95    1
    99    92    91    2
   100    95    97   ar
   101   124   125    1
   102   124   123    1
   103   129   130    1
   104   129   125   am
   105   130   133    1
   106   130   131    1
   107   125   126    2
   108   101   100    2
   109   133   134    1
   110   135   134   ar
   111   134   136   ar
   112   131   132    2
   113   110   109    2
   114   100    99    1
   115   100   107   am
   116   109   108    1
   117   108   107    1
   118   108   111    1
   119   113   112    2
   120    99   102    1
   121    99    98    1
   122   102   103    1
   123   112   111    1
   124   112   114   am
   125   103   104    1
   126   104   106   ar
   127   104   105   ar
