@<TRIPOS>MOLECULE
tmp/2ym7A00.pdb
 136 126 0 0 0
SMALL
GASTEIGER

@<TRIPOS>ATOM
      1  N         17.8700   -6.1090    5.7930 N.3     9  LEU9       -0.1231
      2  CA        18.5080   -5.2050    6.7430 C.3     9  LEU9        0.1693
      3  C         18.6900   -5.8620    8.1060 C.2     9  LEU9        0.2592
      4  O         19.6440   -5.5620    8.8210 O.2     9  LEU9       -0.2718
      5  CB        17.7000   -3.9150    6.8810 C.3     9  LEU9        0.0284
      6  CG        17.7040   -3.0100    5.6470 C.3     9  LEU9        0.0019
      7  CD1       16.7450   -1.8450    5.8230 C.3     9  LEU9        0.0001
      8  CD2       19.1110   -2.5120    5.3500 C.3     9  LEU9        0.0001
      9  N         17.7730   -6.7550    8.4630 N.am   10  GLY10      -0.1957
     10  CA        17.8720   -7.4800    9.7170 C.3    10  GLY10       0.1869
     11  C         16.5270   -7.8240   10.3270 C.2    10  GLY10       0.2309
     12  O         15.5810   -8.1640    9.6170 O.2    10  GLY10      -0.2863
     13  N         13.2900   -7.3320    8.0940 N.3    12  VAL12      -0.1245
     14  CA        13.2350   -5.9660    7.6010 C.3    12  VAL12       0.1561
     15  C         14.1010   -5.8720    6.3580 C.2    12  VAL12       0.2260
     16  O         15.2730   -6.2450    6.3810 O.2    12  VAL12      -0.2867
     17  CB        13.7630   -4.9680    8.6530 C.3    12  VAL12       0.0252
     18  CG1       13.7360   -3.5420    8.1080 C.3    12  VAL12       0.0019
     19  CG2       12.9620   -5.0740    9.9350 C.3    12  VAL12       0.0019
     20  N         12.4000    1.2440    4.5670 N.3    25  ALA25      -0.1245
     21  CA        12.5910   -0.0110    5.2690 C.3    25  ALA25       0.1562
     22  C         11.2290   -0.6660    5.3870 C.2    25  ALA25       0.2260
     23  O         10.3020   -0.0910    5.9510 O.2    25  ALA25      -0.2867
     24  CB        13.1950    0.2250    6.6630 C.3    25  ALA25       0.0290
     25  N          9.0300   -3.6300    6.8770 N.3    27  LYS27      -0.1245
     26  CA         8.9420   -4.6480    7.9120 C.3    27  LYS27       0.1561
     27  C          7.8610   -5.6540    7.5280 C.2    27  LYS27       0.2260
     28  O          6.7310   -5.2700    7.2240 O.2    27  LYS27      -0.2867
     29  CB         8.6300   -3.9940    9.2630 C.3    27  LYS27       0.0271
     30  CG         8.5590   -4.9460   10.4480 C.3    27  LYS27       0.0035
     31  CD         8.5980   -4.1620   11.7550 C.3    27  LYS27       0.0206
     32  CE         8.4270   -5.0600   12.9620 C.3    27  LYS27       0.1093
     33  NZ         8.6230   -4.2970   14.2210 N.3    27  LYS27      -0.1314
     34  N          0.8540   -2.0040   16.6810 N.3    34  GLU34      -0.1245
     35  CA         2.0460   -1.3400   16.1670 C.3    34  GLU34       0.1567
     36  C          1.6690   -0.3370   15.0830 C.2    34  GLU34       0.2260
     37  O          2.2180    0.7550   15.0200 O.2    34  GLU34      -0.2867
     38  CB         3.0440   -2.3630   15.6180 C.3    34  GLU34       0.0388
     39  CG         4.3480   -1.7560   15.1040 C.3    34  GLU34       0.1160
     40  CD         5.4420   -2.7980   14.9120 C.2    34  GLU34       0.3649
     41  OE1        5.2200   -3.9710   15.2690 O.co2  34  GLU34      -0.2457
     42  OE2        6.5290   -2.4490   14.4090 O.co2  34  GLU34      -0.2457
     43  N         11.3140    7.2610   14.1270 N.3    47  VAL47      -0.1245
     44  CA        11.2560    6.6710   12.7890 C.3    47  VAL47       0.1561
     45  C          9.9170    6.9880   12.1110 C.2    47  VAL47       0.2260
     46  O          8.8580    6.7560   12.6840 O.2    47  VAL47      -0.2867
     47  CB        11.4570    5.1370   12.8420 C.3    47  VAL47       0.0252
     48  CG1       10.9890    4.4760   11.5420 C.3    47  VAL47       0.0019
     49  CG2       12.9200    4.7940   13.1460 C.3    47  VAL47       0.0019
     50  N          8.4740    1.9310    6.6240 N.3    61  LEU61      -0.1231
     51  CA         9.0930    2.7400    7.6680 C.3    61  LEU61       0.1693
     52  C         10.3470    3.4420    7.1770 C.2    61  LEU61       0.2592
     53  O         10.9060    3.1020    6.1320 O.2    61  LEU61      -0.2718
     54  CB         9.4360    1.8650    8.8780 C.3    61  LEU61       0.0284
     55  CG         8.2660    1.1550    9.5620 C.3    61  LEU61       0.0019
     56  CD1        8.7540   -0.0160   10.4030 C.3    61  LEU61       0.0001
     57  CD2        7.4600    2.1250   10.4120 C.3    61  LEU61       0.0001
     58  N         10.8000    4.4190    7.9460 N.am   62  GLU62      -0.1966
     59  CA        11.9470    5.2130    7.5360 C.3    62  GLU62       0.1733
     60  C         13.2150    4.3810    7.4070 C.2    62  GLU62       0.2616
     61  O         13.5880    3.6450    8.3270 O.2    62  GLU62      -0.2715
     62  CB        12.1700    6.3570    8.5240 C.3    62  GLU62       0.0429
     63  CG        13.2590    7.3230    8.1150 C.3    62  GLU62       0.1163
     64  CD        13.3140    8.5350    9.0180 C.2    62  GLU62       0.3649
     65  OE1       12.4360    8.6700    9.9060 O.co2  62  GLU62      -0.2457
     66  OE2       14.2400    9.3510    8.8410 O.co2  62  GLU62      -0.2457
     67  N         13.8780    4.4910    6.2580 N.am   63  TYR63      -0.1960
     68  CA        15.2050    3.9130    6.1130 C.3    63  TYR63       0.1771
     69  C         16.2270    4.8790    6.6970 C.2    63  TYR63       0.2619
     70  O         16.3450    6.0200    6.2530 O.2    63  TYR63      -0.2715
     71  CB        15.5260    3.6160    4.6430 C.3    63  TYR63       0.0574
     72  CG        16.9650    3.2030    4.4150 C.ar   63  TYR63      -0.0198
     73  CD1       17.4620    2.0200    4.9500 C.ar   63  TYR63      -0.0009
     74  CD2       17.8300    3.9990    3.6690 C.ar   63  TYR63      -0.0009
     75  CE1       18.7760    1.6380    4.7450 C.ar   63  TYR63       0.0417
     76  CE2       19.1470    3.6230    3.4580 C.ar   63  TYR63       0.0417
     77  CZ        19.6120    2.4430    4.0020 C.ar   63  TYR63       0.1957
     78  OH        20.9190    2.0630    3.8000 O.3    63  TYR63      -0.2866
     79  N         16.9540    4.4200    7.7090 N.am   64  CYS64      -0.1968
     80  CA        17.9190    5.2530    8.4000 C.3    64  CYS64       0.1712
     81  C         19.3060    4.7860    8.0060 C.2    64  CYS64       0.2296
     82  O         19.8320    3.8300    8.5650 O.2    64  CYS64      -0.2864
     83  CB        17.7070    5.1540    9.9190 C.3    64  CYS64       0.0983
     84  SG        16.0240    5.5710   10.4170 S.3    64  CYS64      -0.0798
     85  N         22.5500    3.6570   10.1970 N.3    67  GLY67      -0.1210
     86  CA        22.6360    2.4100   10.9330 C.3    67  GLY67       0.1956
     87  C         22.1010    2.5110   12.3480 C.2    67  GLY67       0.2611
     88  O         21.3160    3.4030   12.6670 O.2    67  GLY67      -0.2717
     89  N         22.5170    1.5890   13.2060 N.am   68  GLU68      -0.1979
     90  CA        22.0650    1.6310   14.5840 C.3    68  GLU68       0.1602
     91  C         23.1010    2.2190   15.5430 C.2    68  GLU68       0.2287
     92  O         24.3120    2.1800   15.2910 O.2    68  GLU68      -0.2864
     93  CB        21.5250    0.2750   15.0600 C.3    68  GLU68       0.0415
     94  CG        22.4290   -0.9230   14.8800 C.3    68  GLU68       0.1163
     95  CD        21.7870   -2.1920   15.4360 C.2    68  GLU68       0.3649
     96  OE1       20.8190   -2.6950   14.8360 O.co2  68  GLU68      -0.2457
     97  OE2       22.2340   -2.6800   16.4890 O.co2  68  GLU68      -0.2457
     98  N         19.9330   -0.9680   19.9980 N.3   111  GLU111     -0.1231
     99  CA        19.4270   -1.6800   18.8300 C.3   111  GLU111      0.1699
    100  C         18.1720   -1.0320   18.2340 C.2   111  GLU111      0.2592
    101  O         17.8650   -1.2390   17.0580 O.2   111  GLU111     -0.2718
    102  CB        19.1190   -3.1400   19.1840 C.3   111  GLU111      0.0402
    103  CG        20.3230   -3.9390   19.6650 C.3   111  GLU111      0.1161
    104  CD        20.5140   -3.9010   21.1770 C.2   111  GLU111      0.3649
    105  OE1       20.1870   -2.8770   21.8210 O.co2 111  GLU111     -0.2457
    106  OE2       21.0070   -4.9130   21.7270 O.co2 111  GLU111     -0.2457
    107  N         17.4440   -0.2730   19.0520 N.am  112  ASN112     -0.1974
    108  CA        16.2000    0.3710   18.6170 C.3   112  ASN112      0.1688
    109  C         16.3730    1.8650   18.4030 C.2   112  ASN112      0.2292
    110  O         15.3950    2.6080   18.3220 O.2   112  ASN112     -0.2864
    111  CB        15.0710    0.1150   19.6250 C.3   112  ASN112      0.1181
    112  CG        14.5280   -1.2960   19.5390 C.2   112  ASN112      0.2629
    113  OD1       14.5760   -1.9170   18.4750 O.2   112  ASN112     -0.2716
    114  ND2       14.0020   -1.8090   20.6520 N.am  112  ASN112     -0.0877
    115  N         18.0520    4.2680   15.7470 N.3   114  LEU114     -0.1245
    116  CA        18.6880    4.2830   14.4390 C.3   114  LEU114      0.1561
    117  C         19.1800    5.6760   14.1200 C.2   114  LEU114      0.2260
    118  O         18.8100    6.6440   14.7890 O.2   114  LEU114     -0.2867
    119  CB        17.7190    3.7960   13.3620 C.3   114  LEU114      0.0270
    120  CG        17.0760    2.4410   13.6630 C.3   114  LEU114      0.0019
    121  CD1       16.0880    2.0650   12.5560 C.3   114  LEU114      0.0001
    122  CD2       18.1400    1.3670   13.8430 C.3   114  LEU114      0.0001
    123  N         13.0550    3.6630   17.1330 N.3   124  SER124     -0.1202
    124  CA        12.5360    2.6710   16.2060 C.3   124  SER124      0.2020
    125  C         11.8000    1.5270   16.9110 C.2   124  SER124      0.2618
    126  O         12.0770    1.2140   18.0680 O.2   124  SER124     -0.2717
    127  CB        13.7040    2.0940   15.3980 C.3   124  SER124      0.2103
    128  OG        13.3040    0.9850   14.6210 O.3   124  SER124     -0.2182
    129  N         10.8470    0.9340   16.1970 N.am  125  ASP125     -0.1973
    130  CA        10.1860   -0.3140   16.5870 C.3   125  ASP125      0.1709
    131  C          9.1710   -0.1770   17.7100 C.2   125  ASP125      0.2293
    132  O          9.5050   -0.2710   18.8930 O.2   125  ASP125     -0.2864
    133  CB        11.1970   -1.4160   16.9100 C.3   125  ASP125      0.1436
    134  CG        10.5540   -2.7970   16.9580 C.2   125  ASP125      0.3671
    135  OD1        9.3650   -2.8920   17.3400 O.co2 125  ASP125     -0.2456
    136  OD2       11.2330   -3.7850   16.6040 O.co2 125  ASP125     -0.2456
@<TRIPOS>BOND
     1    76    74   ar
     2    76    77   ar
     3    74    72   ar
     4    78    77    1
     5    77    75   ar
     6    72    71    1
     7    72    73   ar
     8    20    21    1
     9    71    68    1
    10    75    73   ar
    11    21    22    1
    12    21    24    1
    13     8     6    1
    14    22    23    2
    15     6     7    1
    16     6     5    1
    17     1     2    1
    18    68    67    1
    19    68    69    1
    20    53    52    2
    21    70    69    2
    22    67    60   am
    23    15    16    2
    24    15    14    1
    25    50    51    1
    26    69    79   am
    27     2     5    1
    28     2     3    1
    29    25    26    1
    30    52    51    1
    31    52    58   am
    32    28    27    2
    33    60    59    1
    34    60    61    2
    35    27    26    1
    36    59    58    1
    37    59    62    1
    38    14    13    1
    39    14    17    1
    40    51    54    1
    41    79    80    1
    42    26    29    1
    43    81    80    1
    44    81    82    2
    45     3     9   am
    46     3     4    2
    47    18    17    1
    48    63    62    1
    49    63    64    1
    50    80    83    1
    51     9    10    1
    52    17    19    1
    53    66    64   ar
    54    54    55    1
    55    64    65   ar
    56    29    30    1
    57    55    56    1
    58    55    57    1
    59    12    11    2
    60    10    11    1
    61    83    84    1
    62    85    86    1
    63    30    31    1
    64    86    87    1
    65    48    47    1
    66    31    32    1
    67    45    46    2
    68    45    44    1
    69    87    88    2
    70    87    89   am
    71   121   120    1
    72    44    47    1
    73    44    43    1
    74    47    49    1
    75    32    33    1
    76    89    90    1
    77   119   120    1
    78   119   116    1
    79   120   122    1
    80   117   116    1
    81   117   118    2
    82    42    40   ar
    83   116   115    1
    84    90    93    1
    85    90    91    1
    86   128   127    1
    87    96    95   ar
    88    94    93    1
    89    94    95    1
    90    40    39    1
    91    40    41   ar
    92    37    36    2
    93    36    35    1
    94    39    38    1
    95    92    91    2
    96   127   124    1
    97    95    97   ar
    98    38    35    1
    99    35    34    1
   100   129   130    1
   101   129   125   am
   102   124   125    1
   103   124   123    1
   104   130   133    1
   105   130   131    1
   106   136   134   ar
   107   133   134    1
   108   125   126    2
   109   134   135   ar
   110   101   100    2
   111   131   132    2
   112   100    99    1
   113   100   107   am
   114   110   109    2
   115   109   108    1
   116   113   112    2
   117   108   107    1
   118   108   111    1
   119    99   102    1
   120    99    98    1
   121   102   103    1
   122   112   111    1
   123   112   114   am
   124   103   104    1
   125   104   106   ar
   126   104   105   ar
