@<TRIPOS>MOLECULE
tmp/2ym7A01.pdb
 114 109 0 0 0
SMALL
GASTEIGER

@<TRIPOS>ATOM
      1  N          8.2810   -0.9150   -5.9970 N.3     3  TRP3       -0.1241
      2  CA         9.4670   -0.9350   -5.1520 C.3     3  TRP3        0.1605
      3  C         10.2610   -2.2200   -5.3720 C.2     3  TRP3        0.2264
      4  O          9.6910   -3.3070   -5.4430 O.2     3  TRP3       -0.2867
      5  CB         9.0750   -0.7970   -3.6750 C.3     3  TRP3        0.0550
      6  CG         8.3220    0.4740   -3.3670 C.ar    3  TRP3        0.0003
      7  CD1        7.0010    0.7240   -3.6110 C.ar    3  TRP3        0.0946
      8  CD2        8.8480    1.6660   -2.7610 C.ar    3  TRP3        0.0152
      9  NE1        6.6750    1.9970   -3.2010 N.ar    3  TRP3       -0.2442
     10  CE2        7.7910    2.5950   -2.6760 C.ar    3  TRP3        0.0810
     11  CE3       10.1110    2.0390   -2.2920 C.ar    3  TRP3        0.0012
     12  CZ2        7.9580    3.8740   -2.1370 C.ar    3  TRP3        0.0191
     13  CZ3       10.2750    3.3120   -1.7540 C.ar    3  TRP3        0.0001
     14  CH2        9.2040    4.2110   -1.6800 C.ar    3  TRP3        0.0015
     15  N         12.8580   -4.7890   -3.7190 N.3     5  LEU5       -0.1245
     16  CA        13.4760   -5.2100   -2.4700 C.3     5  LEU5        0.1561
     17  C         14.9370   -5.5240   -2.7480 C.2     5  LEU5        0.2260
     18  O         15.2600   -6.5070   -3.4100 O.2     5  LEU5       -0.2867
     19  CB        12.7470   -6.4150   -1.8770 C.3     5  LEU5        0.0270
     20  CG        11.2740   -6.1580   -1.5430 C.3     5  LEU5        0.0019
     21  CD1       10.6270   -7.3880   -0.9300 C.3     5  LEU5        0.0001
     22  CD2       11.1390   -4.9620   -0.6110 C.3     5  LEU5        0.0001
     23  N         13.7470   -1.3580    0.6060 N.3    15  ALA15      -0.1245
     24  CA        13.0410   -1.2130   -0.6600 C.3    15  ALA15       0.1562
     25  C         13.4400    0.1030   -1.3010 C.2    15  ALA15       0.2260
     26  O         13.6060    1.1070   -0.6170 O.2    15  ALA15      -0.2867
     27  CB        11.5430   -1.2620   -0.4420 C.3    15  ALA15       0.0290
     28  N         13.7990    6.5950   -4.0990 N.3    22  GLU22      -0.1231
     29  CA        13.6770    6.8120   -2.6620 C.3    22  GLU22       0.1699
     30  C         13.7000    5.4590   -1.9620 C.2    22  GLU22       0.2592
     31  O         13.2140    4.4650   -2.5030 O.2    22  GLU22      -0.2718
     32  CB        12.4080    7.5990   -2.3380 C.3    22  GLU22       0.0402
     33  CG        12.5100    9.0590   -2.7480 C.3    22  GLU22       0.1161
     34  CD        11.2040    9.8030   -2.6070 C.2    22  GLU22       0.3649
     35  OE1       10.1450    9.1420   -2.5790 O.co2  22  GLU22      -0.2457
     36  OE2       11.2360   11.0490   -2.5250 O.co2  22  GLU22      -0.2457
     37  N         14.2830    5.4220   -0.7680 N.am   23  ALA23      -0.1966
     38  CA        14.4420    4.1740   -0.0310 C.3    23  ALA23       0.1728
     39  C         13.5100    4.1030    1.1720 C.2    23  ALA23       0.2616
     40  O         13.2120    5.1150    1.8060 O.2    23  ALA23      -0.2715
     41  CB        15.8890    3.9970    0.4100 C.3    23  ALA23       0.0334
     42  N         13.0470    2.8960    1.4680 N.am   24  VAL24      -0.1977
     43  CA        12.1600    2.6510    2.5980 C.3    24  VAL24       0.1596
     44  C         12.5220    1.3200    3.2450 C.2    24  VAL24       0.2287
     45  O         12.9030    0.3780    2.5510 O.2    24  VAL24      -0.2864
     46  CB        10.6860    2.6020    2.1420 C.3    24  VAL24       0.0276
     47  CG1        9.8050    1.9700    3.2110 C.3    24  VAL24       0.0022
     48  CG2       10.1920    3.9960    1.7850 C.3    24  VAL24       0.0022
     49  N         11.1100   -1.8700    4.8480 N.3    26  VAL26      -0.1245
     50  CA         9.8520   -2.5860    4.8780 C.3    26  VAL26       0.1561
     51  C          9.9170   -3.7010    5.8930 C.2    26  VAL26       0.2260
     52  O         10.7580   -4.5970    5.7940 O.2    26  VAL26      -0.2867
     53  CB         9.5270   -3.2040    3.5120 C.3    26  VAL26       0.0252
     54  CG1        8.1590   -3.8700    3.5540 C.3    26  VAL26       0.0019
     55  CG2        9.5840   -2.1430    2.4290 C.3    26  VAL26       0.0019
     56  N          9.9730    7.5190   10.8930 N.3    48  LYS48      -0.1245
     57  CA         8.7560    7.8320   10.1390 C.3    48  LYS48       0.1561
     58  C          7.9740    6.5960    9.7040 C.2    48  LYS48       0.2260
     59  O          8.5560    5.5790    9.3300 O.2    48  LYS48      -0.2867
     60  CB         9.0950    8.6640    8.9000 C.3    48  LYS48       0.0271
     61  CG         9.2790   10.1390    9.1680 C.3    48  LYS48       0.0035
     62  CD         9.7280   10.8730    7.9100 C.3    48  LYS48       0.0206
     63  CE        10.1990   12.2810    8.2370 C.3    48  LYS48       0.1093
     64  NZ        10.8780   12.9250    7.0810 N.3    48  LYS48      -0.1314
     65  N          5.2320    5.4970    6.8730 N.3    50  TYR50      -0.1227
     66  CA         4.7040    5.9590    5.5910 C.3    50  TYR50       0.1736
     67  C          3.3570    5.3320    5.2510 C.2    50  TYR50       0.2596
     68  O          2.5940    5.8790    4.4520 O.2    50  TYR50      -0.2718
     69  CB         5.6930    5.6560    4.4770 C.3    50  TYR50       0.0548
     70  CG         7.0580    6.2520    4.6850 C.ar   50  TYR50      -0.0200
     71  CD1        7.2270    7.6270    4.8010 C.ar   50  TYR50      -0.0009
     72  CD2        8.1840    5.4470    4.7320 C.ar   50  TYR50      -0.0009
     73  CE1        8.4800    8.1800    4.9750 C.ar   50  TYR50       0.0417
     74  CE2        9.4400    5.9910    4.9070 C.ar   50  TYR50       0.0417
     75  CZ         9.5830    7.3570    5.0280 C.ar   50  TYR50       0.1957
     76  OH        10.8370    7.9010    5.2010 O.3    50  TYR50      -0.2866
     77  N          3.0760    4.1800    5.8480 N.am   51  GLY51      -0.1957
     78  CA         1.8280    3.4830    5.6020 C.3    51  GLY51       0.1869
     79  C          2.0060    1.9830    5.7070 C.2    51  GLY51       0.2309
     80  O          3.0870    1.4990    6.0510 O.2    51  GLY51      -0.2863
     81  N          0.2580   -2.1050    4.1270 N.3    53  ARG53      -0.1245
     82  CA        -0.6020   -2.8520    3.2110 C.3    53  ARG53       0.1563
     83  C         -0.7480   -4.2900    3.7010 C.2    53  ARG53       0.2260
     84  O          0.2350   -4.9200    4.0910 O.2    53  ARG53      -0.2867
     85  CB        -0.0230   -2.8560    1.7920 C.3    53  ARG53       0.0307
     86  CG         0.0280   -1.4970    1.1040 C.3    53  ARG53       0.0489
     87  CD         0.6920   -1.6120   -0.2660 C.3    53  ARG53       0.2205
     88  NE         0.9220   -0.3110   -0.8910 N.pl3  53  ARG53      -0.0865
     89  CZ         1.6770   -0.1220   -1.9710 C.cat  53  ARG53       0.5346
     90  NH1        2.2830   -1.1520   -2.5490 N.pl3  53  ARG53       0.1354
     91  NH2        1.8320    1.0970   -2.4730 N.pl3  53  ARG53       0.1354
     92  N          5.6530    0.2040    6.1060 N.3    60  PHE60      -0.1241
     93  CA         6.6270    1.0030    5.3740 C.3    60  PHE60       0.1605
     94  C          7.2000    2.0840    6.2800 C.2    60  PHE60       0.2264
     95  O          6.5120    3.0330    6.6430 O.2    60  PHE60      -0.2867
     96  CB         5.9820    1.6180    4.1370 C.3    60  PHE60       0.0534
     97  CG         5.1500    0.6430    3.3570 C.ar   60  PHE60      -0.0203
     98  CD1        5.7100   -0.5290    2.8770 C.ar   60  PHE60      -0.0042
     99  CD2        3.8080    0.8830    3.1260 C.ar   60  PHE60      -0.0042
    100  CE1        4.9460   -1.4420    2.1670 C.ar   60  PHE60      -0.0003
    101  CE2        3.0400   -0.0230    2.4160 C.ar   60  PHE60      -0.0003
    102  CZ         3.6110   -1.1880    1.9370 C.ar   60  PHE60      -0.0000
    103  N         13.8780    4.4910    6.2580 N.3    63  TYR63      -0.1241
    104  CA        15.2050    3.9130    6.1130 C.3    63  TYR63       0.1605
    105  C         16.2270    4.8790    6.6970 C.2    63  TYR63       0.2264
    106  O         16.3450    6.0200    6.2530 O.2    63  TYR63      -0.2867
    107  CB        15.5260    3.6160    4.6430 C.3    63  TYR63       0.0534
    108  CG        16.9650    3.2030    4.4150 C.ar   63  TYR63      -0.0201
    109  CD1       17.4620    2.0200    4.9500 C.ar   63  TYR63      -0.0009
    110  CD2       17.8300    3.9990    3.6690 C.ar   63  TYR63      -0.0009
    111  CE1       18.7760    1.6380    4.7450 C.ar   63  TYR63       0.0417
    112  CE2       19.1470    3.6230    3.4580 C.ar   63  TYR63       0.0417
    113  CZ        19.6120    2.4430    4.0020 C.ar   63  TYR63       0.1957
    114  OH        20.9190    2.0630    3.8000 O.3    63  TYR63      -0.2866
@<TRIPOS>BOND
     1     1     2    1
     2     4     3    2
     3     3     2    1
     4     2     5    1
     5    28    29    1
     6    15    16    1
     7     5     6    1
     8     7     6   ar
     9     7     9   ar
    10    18    17    2
    11     6     8   ar
    12     9    10   ar
    13     8    10   ar
    14     8    11   ar
    15    33    34    1
    16    33    32    1
    17    17    16    1
    18    10    12   ar
    19    29    32    1
    20    29    30    1
    21    34    35   ar
    22    34    36   ar
    23    90    89    1
    24    31    30    2
    25    91    89    1
    26    16    19    1
    27    11    13   ar
    28    12    14   ar
    29    89    88    2
    30    30    37   am
    31    19    20    1
    32    13    14   ar
    33    20    21    1
    34    20    22    1
    35    25    24    1
    36    25    26    2
    37    88    87    1
    38    37    38    1
    39    24    27    1
    40    24    23    1
    41    87    86    1
    42    38    41    1
    43    38    39    1
    44    86    85    1
    45    39    42   am
    46    39    40    2
    47    42    43    1
    48    48    46    1
    49    85    82    1
    50   102   100   ar
    51   102   101   ar
    52    46    43    1
    53    46    47    1
    54   100    98   ar
    55   101    99   ar
    56    55    53    1
    57    45    44    2
    58    43    44    1
    59    98    97   ar
    60    99    97   ar
    61    82    83    1
    62    82    81    1
    63    97    96    1
    64   112   110   ar
    65   112   113   ar
    66    53    54    1
    67    53    50    1
    68   110   108   ar
    69    83    84    2
    70   114   113    1
    71   113   111   ar
    72    96    93    1
    73   108   107    1
    74   108   109   ar
    75    68    67    2
    76    69    70    1
    77    69    66    1
    78   107   104    1
    79    70    72   ar
    80    70    71   ar
    81    72    74   ar
    82   111   109   ar
    83    71    73   ar
    84    49    50    1
    85    50    51    1
    86    74    75   ar
    87    73    75   ar
    88    75    76    1
    89    67    66    1
    90    67    77   am
    91    93    92    1
    92    93    94    1
    93    66    65    1
    94    78    79    1
    95    78    77    1
    96    79    80    2
    97    52    51    2
    98   104   103    1
    99   104   105    1
   100   106   105    2
   101    94    95    2
   102    64    63    1
   103    62    63    1
   104    62    61    1
   105    60    61    1
   106    60    57    1
   107    59    58    2
   108    58    57    1
   109    57    56    1
