@<TRIPOS>MOLECULE
tmp/2ym8A00.pdb
 142 132 0 0 0
SMALL
GASTEIGER

@<TRIPOS>ATOM
      1  N         17.0490   -6.1080    6.4030 N.3     8  LEU8       -0.1231
      2  CA        17.5630   -5.2100    7.4290 C.3     8  LEU8        0.1693
      3  C         17.4690   -5.8290    8.8200 C.2     8  LEU8        0.2592
      4  O         18.3880   -5.7010    9.6270 O.2     8  LEU8       -0.2718
      5  CB        16.8160   -3.8750    7.3880 C.3     8  LEU8        0.0284
      6  CG        16.8270   -3.1660    6.0300 C.3     8  LEU8        0.0019
      7  CD1       15.9800   -1.9030    6.0640 C.3     8  LEU8        0.0001
      8  CD2       18.2530   -2.8510    5.5990 C.3     8  LEU8        0.0001
      9  N         16.3590   -6.5030    9.0980 N.am    9  GLY9       -0.1957
     10  CA        16.1600   -7.1240   10.3940 C.3     9  GLY9        0.1869
     11  C         15.0850   -8.1920   10.3820 C.2     9  GLY9        0.2309
     12  O         14.4040   -8.3890    9.3770 O.2     9  GLY9       -0.2863
     13  N         12.1040   -7.4410    8.2390 N.3    11  VAL11      -0.1245
     14  CA        12.1100   -6.0830    7.7220 C.3    11  VAL11       0.1561
     15  C         13.1180   -6.0280    6.5870 C.2    11  VAL11       0.2260
     16  O         14.2410   -6.5150    6.7220 O.2    11  VAL11      -0.2867
     17  CB        12.5020   -5.0590    8.8070 C.3    11  VAL11       0.0252
     18  CG1       12.6950   -3.6790    8.1940 C.3    11  VAL11       0.0019
     19  CG2       11.4500   -5.0190    9.9070 C.3    11  VAL11       0.0019
     20  N         11.8930    1.2580    4.6590 N.3    24  ALA24      -0.1245
     21  CA        11.9600   -0.0350    5.3230 C.3    24  ALA24       0.1562
     22  C         10.5720   -0.6540    5.3580 C.2    24  ALA24       0.2260
     23  O          9.6350   -0.0640    5.8960 O.2    24  ALA24      -0.2867
     24  CB        12.5070    0.1200    6.7340 C.3    24  ALA24       0.0290
     25  N          8.1680   -3.6200    6.6560 N.3    26  LYS26      -0.1245
     26  CA         8.0360   -4.6400    7.6840 C.3    26  LYS26       0.1561
     27  C          7.0200   -5.6810    7.2480 C.2    26  LYS26       0.2260
     28  O          5.8530   -5.3600    7.0250 O.2    26  LYS26      -0.2867
     29  CB         7.6090   -4.0050    9.0070 C.3    26  LYS26       0.0271
     30  CG         7.6670   -4.9380   10.2050 C.3    26  LYS26       0.0035
     31  CD         7.4240   -4.1620   11.4880 C.3    26  LYS26       0.0206
     32  CE         7.8250   -4.9620   12.7100 C.3    26  LYS26       0.1093
     33  NZ         7.9680   -4.0830   13.9030 N.3    26  LYS26      -0.1314
     34  N          0.3910   -1.9360   16.5890 N.3    33  GLU33      -0.1245
     35  CA         1.6160   -1.3030   16.1130 C.3    33  GLU33       0.1567
     36  C          1.2970   -0.3400   14.9810 C.2    33  GLU33       0.2260
     37  O          1.8550    0.7540   14.9050 O.2    33  GLU33      -0.2867
     38  CB         2.6440   -2.3410   15.6560 C.3    33  GLU33       0.0388
     39  CG         3.8610   -1.7220   14.9880 C.3    33  GLU33       0.1160
     40  CD         4.9930   -2.7110   14.7810 C.2    33  GLU33       0.3649
     41  OE1        4.8700   -3.8650   15.2440 O.co2  33  GLU33      -0.2457
     42  OE2        6.0090   -2.3290   14.1590 O.co2  33  GLU33      -0.2457
     43  N         10.8550    7.0660   14.1930 N.3    46  VAL46      -0.1245
     44  CA        10.8140    6.4470   12.8740 C.3    46  VAL46       0.1561
     45  C          9.5040    6.7460   12.1550 C.2    46  VAL46       0.2260
     46  O          8.4260    6.4200   12.6510 O.2    46  VAL46      -0.2867
     47  CB        10.9840    4.9290   12.9740 C.3    46  VAL46       0.0252
     48  CG1       10.6920    4.2740   11.6280 C.3    46  VAL46       0.0019
     49  CG2       12.3830    4.5930   13.4640 C.3    46  VAL46       0.0019
     50  N          7.9350    1.9110    6.6740 N.3    60  LEU60      -0.1231
     51  CA         8.6080    2.6980    7.6970 C.3    60  LEU60       0.1693
     52  C          9.8440    3.3920    7.1450 C.2    60  LEU60       0.2592
     53  O         10.3930    2.9870    6.1200 O.2    60  LEU60      -0.2718
     54  CB         9.0020    1.7950    8.8660 C.3    60  LEU60       0.0284
     55  CG         7.8430    1.0560    9.5410 C.3    60  LEU60       0.0019
     56  CD1        8.3430   -0.1730   10.2840 C.3    60  LEU60       0.0001
     57  CD2        7.0740    1.9890   10.4710 C.3    60  LEU60       0.0001
     58  N         10.2770    4.4350    7.8420 N.am   61  GLU61      -0.1966
     59  CA        11.4510    5.2030    7.4520 C.3    61  GLU61       0.1733
     60  C         12.7090    4.3460    7.3790 C.2    61  GLU61       0.2616
     61  O         12.9790    3.5400    8.2690 O.2    61  GLU61      -0.2715
     62  CB        11.6720    6.3480    8.4420 C.3    61  GLU61       0.0429
     63  CG        12.8270    7.2630    8.1030 C.3    61  GLU61       0.1163
     64  CD        12.9080    8.4520    9.0400 C.2    61  GLU61       0.3649
     65  OE1       12.0620    8.5500    9.9580 O.co2  61  GLU61      -0.2457
     66  OE2       13.8150    9.2900    8.8610 O.co2  61  GLU61      -0.2457
     67  N         13.4730    4.5220    6.3080 N.am   62  TYR62      -0.1960
     68  CA        14.7890    3.9180    6.2110 C.3    62  TYR62       0.1771
     69  C         15.8130    4.8570    6.8390 C.2    62  TYR62       0.2620
     70  O         15.9380    6.0150    6.4370 O.2    62  TYR62      -0.2715
     71  CB        15.1480    3.6350    4.7530 C.3    62  TYR62       0.0574
     72  CG        16.5510    3.1090    4.5640 C.ar   62  TYR62      -0.0198
     73  CD1       16.8960    1.8310    4.9840 C.ar   62  TYR62      -0.0009
     74  CD2       17.5290    3.8860    3.9560 C.ar   62  TYR62      -0.0009
     75  CE1       18.1790    1.3440    4.8120 C.ar   62  TYR62       0.0417
     76  CE2       18.8160    3.4080    3.7780 C.ar   62  TYR62       0.0417
     77  CZ        19.1350    2.1370    4.2080 C.ar   62  TYR62       0.1957
     78  OH        20.4130    1.6560    4.0320 O.3    62  TYR62      -0.2866
     79  N         16.5340    4.3540    7.8330 N.am   63  CYS63      -0.1954
     80  CA        17.5120    5.1540    8.5580 C.3    63  CYS63       0.1843
     81  C         18.9180    4.6610    8.2230 C.2    63  CYS63       0.2626
     82  O         19.4610    3.7880    8.8990 O.2    63  CYS63      -0.2714
     83  CB        17.2450    5.0760   10.0680 C.3    63  CYS63       0.0997
     84  SG        15.5660    5.5750   10.5640 S.3    63  CYS63      -0.0797
     85  N         19.4990    5.2310    7.1730 N.am   64  SER64      -0.1950
     86  CA        20.7470    4.7270    6.5990 C.3    64  SER64       0.1924
     87  C         21.9340    4.7800    7.5550 C.2    64  SER64       0.2314
     88  O         22.9960    4.2340    7.2630 O.2    64  SER64      -0.2863
     89  CB        21.0870    5.4900    5.3180 C.3    64  SER64       0.2116
     90  OG        21.2970    6.8650    5.5920 O.3    64  SER64      -0.2180
     91  N         22.0190    3.3600   10.4190 N.3    66  GLY66      -0.1210
     92  CA        22.0830    2.1060   11.1520 C.3    66  GLY66       0.1956
     93  C         21.5580    2.2010   12.5780 C.2    66  GLY66       0.2611
     94  O         20.8150    3.1190   12.9200 O.2    66  GLY66      -0.2717
     95  N         21.9550    1.2450   13.4100 N.am   67  GLU67      -0.1979
     96  CA        21.5260    1.1950   14.7990 C.3    67  GLU67       0.1602
     97  C         22.5310    1.8920   15.7100 C.2    67  GLU67       0.2287
     98  O         23.7380    1.8260   15.4750 O.2    67  GLU67      -0.2864
     99  CB        21.3580   -0.2550   15.2480 C.3    67  GLU67       0.0415
    100  CG        20.3230   -1.0400   14.4680 C.3    67  GLU67       0.1163
    101  CD        20.0610   -2.4050   15.0750 C.2    67  GLU67       0.3649
    102  OE1       20.8200   -2.8060   15.9830 O.co2  67  GLU67      -0.2457
    103  OE2       19.0950   -3.0730   14.6500 O.co2  67  GLU67      -0.2457
    104  N         19.4970   -1.1580   20.1930 N.3   110  GLU110     -0.1231
    105  CA        18.9920   -1.8690   19.0190 C.3   110  GLU110      0.1699
    106  C         17.7520   -1.2030   18.4150 C.2   110  GLU110      0.2592
    107  O         17.4910   -1.3280   17.2180 O.2   110  GLU110     -0.2718
    108  CB        18.6610   -3.3250   19.3720 C.3   110  GLU110      0.0402
    109  CG        19.8430   -4.1370   19.8720 C.3   110  GLU110      0.1161
    110  CD        20.0330   -4.0480   21.3740 C.2   110  GLU110      0.3649
    111  OE1       19.7460   -2.9820   21.9630 O.co2 110  GLU110     -0.2457
    112  OE2       20.4700   -5.0550   21.9710 O.co2 110  GLU110     -0.2457
    113  N         16.9810   -0.5090   19.2460 N.am  111  ASN111     -0.1974
    114  CA        15.7400    0.1130   18.7890 C.3   111  ASN111      0.1688
    115  C         15.8660    1.6090   18.5530 C.2   111  ASN111      0.2292
    116  O         14.8650    2.3020   18.3730 O.2   111  ASN111     -0.2864
    117  CB        14.6000   -0.1630   19.7670 C.3   111  ASN111      0.1181
    118  CG        14.0880   -1.5890   19.6760 C.2   111  ASN111      0.2629
    119  OD1       14.2170   -2.2360   18.6410 O.2   111  ASN111     -0.2716
    120  ND2       13.4920   -2.0790   20.7570 N.am  111  ASN111     -0.0877
    121  N         17.5000    4.1270   15.9540 N.3   113  LEU113     -0.1245
    122  CA        18.1200    4.2020   14.6440 C.3   113  LEU113      0.1561
    123  C         18.7040    5.5790   14.3740 C.2   113  LEU113      0.2260
    124  O         18.4000    6.5500   15.0720 O.2   113  LEU113     -0.2867
    125  CB        17.1150    3.8240   13.5560 C.3   113  LEU113      0.0270
    126  CG        16.4860    2.4460   13.7590 C.3   113  LEU113      0.0019
    127  CD1       15.6360    2.0540   12.5580 C.3   113  LEU113      0.0001
    128  CD2       17.5630    1.4040   14.0200 C.3   113  LEU113      0.0001
    129  N         12.5570    3.4550   17.1970 N.3   123  SER123     -0.1202
    130  CA        11.9840    2.4630   16.2930 C.3   123  SER123      0.2020
    131  C         11.2550    1.3490   17.0450 C.2   123  SER123      0.2618
    132  O         11.4760    1.1460   18.2410 O.2   123  SER123     -0.2717
    133  CB        13.0950    1.8520   15.4310 C.3   123  SER123      0.2103
    134  OG        12.5960    0.8280   14.5910 O.3   123  SER123     -0.2182
    135  N         10.3840    0.6420   16.3280 N.am  124  ASP124     -0.1973
    136  CA         9.7360   -0.5730   16.8260 C.3   124  ASP124      0.1709
    137  C          8.7240   -0.3310   17.9410 C.2   124  ASP124      0.2293
    138  O          9.0740   -0.3170   19.1220 O.2   124  ASP124     -0.2864
    139  CB        10.7760   -1.5880   17.2930 C.3   124  ASP124      0.1436
    140  CG        10.3550   -3.0160   17.0120 C.2   124  ASP124      0.3671
    141  OD1        9.1390   -3.3040   17.0950 O.co2 124  ASP124     -0.2456
    142  OD2       11.2380   -3.8450   16.6970 O.co2 124  ASP124     -0.2456
@<TRIPOS>BOND
     1    76    74   ar
     2    76    77   ar
     3    74    72   ar
     4    78    77    1
     5    77    75   ar
     6    72    71    1
     7    72    73   ar
     8    20    21    1
     9    71    68    1
    10    75    73   ar
    11    89    90    1
    12    89    86    1
    13    21    22    1
    14    21    24    1
    15    22    23    2
    16     8     6    1
    17     6     7    1
    18     6     5    1
    19    53    52    2
    20    68    67    1
    21    68    69    1
    22    67    60   am
    23     1     2    1
    24    70    69    2
    25    15    16    2
    26    15    14    1
    27    86    85    1
    28    86    87    1
    29    25    26    1
    30    50    51    1
    31    69    79   am
    32    28    27    2
    33    52    51    1
    34    52    58   am
    35    85    81   am
    36    27    26    1
    37    88    87    2
    38    60    59    1
    39    60    61    2
    40     5     2    1
    41     2     3    1
    42    59    58    1
    43    59    62    1
    44    26    29    1
    45    51    54    1
    46    14    13    1
    47    14    17    1
    48    79    80    1
    49    63    62    1
    50    63    64    1
    51    18    17    1
    52    81    80    1
    53    81    82    2
    54    80    83    1
    55    17    19    1
    56     3     9   am
    57     3     4    2
    58    66    64   ar
    59    54    55    1
    60    29    30    1
    61    64    65   ar
    62     9    10    1
    63    12    11    2
    64    55    56    1
    65    55    57    1
    66    83    84    1
    67    30    31    1
    68    11    10    1
    69    91    92    1
    70    92    93    1
    71    31    32    1
    72    48    47    1
    73    45    46    2
    74    45    44    1
    75   127   126    1
    76    93    94    2
    77    93    95   am
    78    32    33    1
    79    44    47    1
    80    44    43    1
    81    47    49    1
    82    95    96    1
    83   125   126    1
    84   125   122    1
    85   126   128    1
    86    42    40   ar
    87   123   122    1
    88   123   124    2
    89   100   101    1
    90   100    99    1
    91   134   133    1
    92   122   121    1
    93   103   101   ar
    94    40    39    1
    95    40    41   ar
    96    96    99    1
    97    96    97    1
    98    37    36    2
    99    36    35    1
   100    39    38    1
   101   101   102   ar
   102   133   130    1
   103    98    97    2
   104    38    35    1
   105    35    34    1
   106   130   131    1
   107   130   129    1
   108   135   136    1
   109   135   131   am
   110   142   140   ar
   111   136   139    1
   112   136   137    1
   113   140   141   ar
   114   140   139    1
   115   131   132    2
   116   107   106    2
   117   137   138    2
   118   116   115    2
   119   106   105    1
   120   106   113   am
   121   115   114    1
   122   119   118    2
   123   114   113    1
   124   114   117    1
   125   105   108    1
   126   105   104    1
   127   108   109    1
   128   118   117    1
   129   118   120   am
   130   109   110    1
   131   110   111   ar
   132   110   112   ar
