@<TRIPOS>MOLECULE
tmp/2ymtA00.pdb
 137 133 0 0 0
SMALL
GASTEIGER

@<TRIPOS>ATOM
      1  N          1.5030   -0.0450    8.2300 N.3    50  CYS50      -0.1221
      2  CA         0.1970   -0.1660    8.8430 C.3    50  CYS50       0.1808
      3  C         -0.2590    1.2220    9.2430 C.2    50  CYS50       0.2601
      4  O          0.4990    1.9780    9.8600 O.2    50  CYS50      -0.2717
      5  CB         0.2650   -1.0650   10.0840 C.3    50  CYS50       0.0970
      6  SG        -1.2960   -1.1500   10.9970 S.3    50  CYS50      -0.0800
      7  N         -1.4780    1.5680    8.8440 N.am   51  GLN51      -0.1965
      8  CA        -2.1430    2.7560    9.3670 C.3    51  GLN51       0.1733
      9  C         -3.3970    2.3380   10.1130 C.2    51  GLN51       0.2616
     10  O         -3.9480    1.2630    9.8710 O.2    51  GLN51      -0.2715
     11  CB        -2.4750    3.7470    8.2530 C.3    51  GLN51       0.0408
     12  CG        -1.2470    4.2210    7.4970 C.3    51  GLN51       0.0908
     13  CD        -1.5940    5.0560    6.2830 C.2    51  GLN51       0.2608
     14  OE1       -2.6690    4.9090    5.7030 O.2    51  GLN51      -0.2717
     15  NE2       -0.6830    5.9410    5.8940 N.am   51  GLN51      -0.0878
     16  N         -3.8370    3.1890   11.0330 N.am   52  ALA52      -0.1963
     17  CA        -4.9590    2.8650   11.8970 C.3    52  ALA52       0.1728
     18  C         -5.8120    4.1050   12.1020 C.2    52  ALA52       0.2616
     19  O         -5.3470    5.2260   11.8970 O.2    52  ALA52      -0.2715
     20  CB        -4.4560    2.3460   13.2350 C.3    52  ALA52       0.0334
     21  N         -7.0680    3.9010   12.4810 N.am   53  ALA53      -0.1963
     22  CA        -7.9710    5.0090   12.7560 C.3    53  ALA53       0.1728
     23  C         -8.9320    4.6000   13.8630 C.2    53  ALA53       0.2616
     24  O         -9.2930    3.4330   13.9650 O.2    53  ALA53      -0.2715
     25  CB        -8.7360    5.4030   11.5020 C.3    53  ALA53       0.0334
     26  N         -9.3310    5.5590   14.6960 N.am   54  VAL54      -0.1964
     27  CA       -10.3010    5.3110   15.7620 C.3    54  VAL54       0.1712
     28  C        -11.3980    6.3670   15.6810 C.2    54  VAL54       0.2458
     29  O        -11.2680    7.3250   14.9170 O.2    54  VAL54      -0.2730
     30  CB        -9.6340    5.3520   17.1630 C.3    54  VAL54       0.0289
     31  CG1       -8.6460    4.1950   17.3260 C.3    54  VAL54       0.0023
     32  CG2       -8.9590    6.6980   17.4000 C.3    54  VAL54       0.0023
     33  N        -12.5010    6.1860   16.4320 N.am   55  PRO55      -0.2716
     34  CA       -13.5170    7.2420   16.3950 C.3    55  PRO55       0.1536
     35  C        -12.9590    8.5810   16.8730 C.2    55  PRO55       0.2598
     36  O        -11.9990    8.6150   17.6470 O.2    55  PRO55      -0.2715
     37  CB       -14.5890    6.7300   17.3620 C.3    55  PRO55       0.0310
     38  CG       -14.4540    5.2390   17.2930 C.3    55  PRO55       0.0237
     39  CD       -12.9810    4.9890   17.1510 C.3    55  PRO55       0.0939
     40  N        -13.5750    9.6640   16.4050 N.am   56  LYS56      -0.1978
     41  CA       -13.1010   11.0270   16.6390 C.3    56  LYS56       0.1596
     42  C        -12.9640   11.3730   18.1240 C.2    56  LYS56       0.2287
     43  O        -12.1340   12.1960   18.5050 O.2    56  LYS56      -0.2864
     44  CB       -14.0590   12.0090   15.9550 C.3    56  LYS56       0.0298
     45  CG       -13.7150   13.4770   16.1200 C.3    56  LYS56       0.0038
     46  CD       -12.5630   13.8880   15.2190 C.3    56  LYS56       0.0206
     47  CE       -12.4010   15.4060   15.1950 C.3    56  LYS56       0.1093
     48  NZ       -12.1100   15.9770   16.5450 N.3    56  LYS56      -0.1314
     49  N         -5.3040    8.9720   18.9250 N.3    60  LEU60      -0.1231
     50  CA        -4.4170    7.8910   18.5160 C.3    60  LEU60       0.1693
     51  C         -3.0630    8.4140   18.0430 C.2    60  LEU60       0.2592
     52  O         -2.9860    9.3740   17.2680 O.2    60  LEU60      -0.2718
     53  CB        -5.0730    7.0940   17.3880 C.3    60  LEU60       0.0284
     54  CG        -4.2630    6.0170   16.6730 C.3    60  LEU60       0.0019
     55  CD1       -4.0610    4.7750   17.5240 C.3    60  LEU60       0.0001
     56  CD2       -4.9570    5.6450   15.3660 C.3    60  LEU60       0.0001
     57  N         -1.9980    7.7870   18.5270 N.am   61  GLN61      -0.1966
     58  CA        -0.6440    8.0690   18.0560 C.3    61  GLN61       0.1733
     59  C          0.0380    6.7650   17.6950 C.2    61  GLN61       0.2616
     60  O         -0.1480    5.7650   18.3730 O.2    61  GLN61      -0.2715
     61  CB         0.1720    8.7430   19.1530 C.3    61  GLN61       0.0408
     62  CG        -0.2970   10.1270   19.5410 C.3    61  GLN61       0.0908
     63  CD         0.5510   10.7090   20.6590 C.2    61  GLN61       0.2608
     64  OE1        0.5630   10.1930   21.7720 O.2    61  GLN61      -0.2717
     65  NE2        1.2850   11.7750   20.3550 N.am   61  GLN61      -0.0878
     66  N          0.8420    6.7740   16.6370 N.am   62  LEU62      -0.1977
     67  CA         1.6040    5.5830   16.2740 C.3    62  LEU62       0.1596
     68  C          3.0890    5.8090   16.5040 C.2    62  LEU62       0.2287
     69  O          3.6530    6.8120   16.0660 O.2    62  LEU62      -0.2864
     70  CB         1.3580    5.1880   14.8160 C.3    62  LEU62       0.0297
     71  CG         0.3770    4.0420   14.5540 C.3    62  LEU62       0.0022
     72  CD1       -1.0100    4.3730   15.0700 C.3    62  LEU62       0.0001
     73  CD2        0.3210    3.7220   13.0700 C.3    62  LEU62       0.0001
     74  N        -13.4460    1.4200   18.7300 N.3    93  ARG93      -0.1231
     75  CA       -13.5110    0.8860   17.3840 C.3    93  ARG93       0.1694
     76  C        -12.1700    1.1330   16.7330 C.2    93  ARG93       0.2592
     77  O        -11.5130    2.1350   17.0000 O.2    93  ARG93      -0.2718
     78  CB       -14.6370    1.5350   16.5830 C.3    93  ARG93       0.0321
     79  CG       -16.0140    1.2160   17.1220 C.3    93  ARG93       0.0489
     80  CD       -17.1010    1.9080   16.3020 C.3    93  ARG93       0.2205
     81  NE       -17.2380    1.3140   14.9750 N.pl3  93  ARG93      -0.0865
     82  CZ       -17.9080    1.8710   13.9710 C.cat  93  ARG93       0.5346
     83  NH1      -18.4950    3.0490   14.1310 N.pl3  93  ARG93       0.1354
     84  NH2      -17.9830    1.2530   12.8030 N.pl3  93  ARG93       0.1354
     85  N        -11.7530    0.2070   15.8850 N.am   94  LEU94      -0.1966
     86  CA       -10.4350    0.2890   15.3000 C.3    94  LEU94       0.1728
     87  C        -10.4850   -0.2130   13.8680 C.2    94  LEU94       0.2616
     88  O        -10.9630   -1.3170   13.5930 O.2    94  LEU94      -0.2715
     89  CB        -9.4360   -0.5360   16.1140 C.3    94  LEU94       0.0311
     90  CG        -7.9860   -0.5080   15.6200 C.3    94  LEU94       0.0022
     91  CD1       -7.3770    0.8870   15.7540 C.3    94  LEU94       0.0001
     92  CD2       -7.1460   -1.5430   16.3530 C.3    94  LEU94       0.0001
     93  N        -10.0060    0.6000   12.9450 N.am   95  LYS95      -0.1963
     94  CA        -9.8270    0.0940   11.5900 C.3    95  LYS95       0.1728
     95  C         -8.3610    0.1760   11.2000 C.2    95  LYS95       0.2616
     96  O         -7.6250    1.0130   11.7160 O.2    95  LYS95      -0.2715
     97  CB       -10.7430    0.7920   10.5860 C.3    95  LYS95       0.0311
     98  CG       -10.5210    2.2740   10.3870 C.3    95  LYS95       0.0038
     99  CD       -11.4740    2.7830    9.2920 C.3    95  LYS95       0.0206
    100  CE       -11.3430    4.2870    9.0500 C.3    95  LYS95       0.1093
    101  NZ       -12.2820    4.7550    7.9800 N.3    95  LYS95      -0.1314
    102  N         -7.9440   -0.7290   10.3230 N.am   96  LEU96      -0.1963
    103  CA        -6.5560   -0.8300    9.9140 C.3    96  LEU96       0.1728
    104  C         -6.4560   -0.7920    8.3950 C.2    96  LEU96       0.2616
    105  O         -7.3610   -1.2410    7.7010 O.2    96  LEU96      -0.2715
    106  CB        -5.9520   -2.1410   10.4370 C.3    96  LEU96       0.0311
    107  CG        -5.8790   -2.3300   11.9560 C.3    96  LEU96       0.0022
    108  CD1       -5.2490   -3.6750   12.3120 C.3    96  LEU96       0.0001
    109  CD2       -5.0950   -1.2040   12.5860 C.3    96  LEU96       0.0001
    110  N         -5.3580   -0.2400    7.8900 N.am   97  ARG97      -0.1977
    111  CA        -5.0620   -0.2450    6.4610 C.3    97  ARG97       0.1597
    112  C         -3.6380   -0.7520    6.3250 C.2    97  ARG97       0.2287
    113  O         -2.7000   -0.1360    6.8410 O.2    97  ARG97      -0.2864
    114  CB        -5.1940    1.1610    5.8750 C.3    97  ARG97       0.0334
    115  CG        -4.8010    1.2800    4.4080 C.3    97  ARG97       0.0492
    116  CD        -4.8500    2.7360    3.9630 C.3    97  ARG97       0.2205
    117  NE        -4.5830    2.8970    2.5340 N.pl3  97  ARG97      -0.0865
    118  CZ        -3.3710    3.0520    2.0080 C.cat  97  ARG97       0.5346
    119  NH1       -2.2970    3.0540    2.7860 N.pl3  97  ARG97       0.1354
    120  NH2       -3.2310    3.1990    0.6980 N.pl3  97  ARG97       0.1354
    121  N         -7.8400   -3.3800    4.0150 N.3   110  ILE110     -0.1245
    122  CA        -8.4560   -2.4200    4.9240 C.3   110  ILE110      0.1561
    123  C         -9.6470   -3.0940    5.5780 C.2   110  ILE110      0.2260
    124  O        -10.4500   -3.7210    4.8970 O.2   110  ILE110     -0.2867
    125  CB        -8.9670   -1.1720    4.1890 C.3   110  ILE110      0.0252
    126  CG1       -7.8210   -0.3970    3.5540 C.3   110  ILE110      0.0019
    127  CG2       -9.7090   -0.2390    5.1500 C.3   110  ILE110      0.0019
    128  CD1       -8.2860    0.8800    2.8730 C.3   110  ILE110      0.0001
    129  N        -12.3560   -3.1190    9.4120 N.3   112  GLU112     -0.1245
    130  CA       -12.6280   -2.8340   10.8150 C.3   112  GLU112      0.1567
    131  C        -12.3900   -4.0920   11.6370 C.2   112  GLU112      0.2260
    132  O        -12.7810   -5.1890   11.2300 O.2   112  GLU112     -0.2867
    133  CB       -14.0510   -2.3270   11.0310 C.3   112  GLU112      0.0388
    134  CG       -14.3300   -2.0850   12.5190 C.3   112  GLU112      0.1160
    135  CD       -15.5560   -1.2460   12.7880 C.2   112  GLU112      0.3649
    136  OE1      -16.2630   -0.8920   11.8300 O.co2 112  GLU112     -0.2457
    137  OE2      -15.8000   -0.9320   13.9740 O.co2 112  GLU112     -0.2457
@<TRIPOS>BOND
     1   120   118    1
     2   118   117    2
     3   118   119    1
     4   117   116    1
     5   128   126    1
     6   126   125    1
     7   116   115    1
     8   121   122    1
     9   125   122    1
    10   125   127    1
    11   115   114    1
    12   124   123    2
    13   122   123    1
    14    14    13    2
    15   114   111    1
    16    15    13   am
    17    13    12    1
    18   112   111    1
    19   112   113    2
    20   111   110    1
    21    12    11    1
    22   105   104    2
    23   110   104   am
    24   101   100    1
    25     1     2    1
    26    11     8    1
    27   104   103    1
    28     2     3    1
    29     2     5    1
    30     7     3   am
    31     7     8    1
    32   100    99    1
    33     3     4    2
    34    99    98    1
    35     8     9    1
    36   129   130    1
    37    10     9    2
    38   103   102    1
    39   103   106    1
    40     5     6    1
    41     9    16   am
    42   102    95   am
    43    98    97    1
    44   106   107    1
    45    97    94    1
    46   130   133    1
    47   130   131    1
    48   133   134    1
    49    16    17    1
    50    95    94    1
    51    95    96    2
    52   132   131    2
    53    25    22    1
    54    94    93    1
    55   136   135   ar
    56    17    18    1
    57    17    20    1
    58    19    18    2
    59   107   108    1
    60   107   109    1
    61    18    21   am
    62    21    22    1
    63   134   135    1
    64    22    23    1
    65   135   137   ar
    66    84    82    1
    67    93    87   am
    68    73    71    1
    69    88    87    2
    70    23    24    2
    71    23    26   am
    72    87    86    1
    73    82    83    1
    74    82    81    2
    75    71    70    1
    76    71    72    1
    77    26    27    1
    78    70    67    1
    79    29    28    2
    80    81    80    1
    81    47    46    1
    82    47    48    1
    83    46    45    1
    84    86    85    1
    85    86    89    1
    86    56    54    1
    87    90    91    1
    88    90    89    1
    89    90    92    1
    90    28    27    1
    91    28    33   am
    92    27    30    1
    93    85    76   am
    94    44    45    1
    95    44    41    1
    96    69    68    2
    97    67    68    1
    98    67    66    1
    99    80    79    1
   100    34    33    1
   101    34    35    1
   102    34    37    1
   103    40    41    1
   104    40    35   am
   105    33    39    1
   106    78    79    1
   107    78    75    1
   108    66    59   am
   109    41    42    1
   110    54    53    1
   111    54    55    1
   112    76    77    2
   113    76    75    1
   114    35    36    2
   115    39    38    1
   116    30    31    1
   117    30    32    1
   118    52    51    2
   119    38    37    1
   120    75    74    1
   121    53    50    1
   122    59    58    1
   123    59    60    2
   124    51    50    1
   125    51    57   am
   126    58    57    1
   127    58    61    1
   128    42    43    2
   129    50    49    1
   130    61    62    1
   131    62    63    1
   132    65    63   am
   133    63    64    2
