@<TRIPOS>MOLECULE
tmp/2ymvA00.pdb
 223 212 0 0 0
SMALL
GASTEIGER

@<TRIPOS>ATOM
      1  N        -47.8410   53.4150  -19.5170 N.3    19  ARG19      -0.1245
      2  CA       -48.5680   52.1590  -19.6110 C.3    19  ARG19       0.1563
      3  C        -49.6830   52.0160  -18.5910 C.2    19  ARG19       0.2260
      4  O        -50.4980   51.0730  -18.6740 O.2    19  ARG19      -0.2867
      5  CB       -47.6440   50.9520  -19.4840 C.3    19  ARG19       0.0307
      6  CG       -46.5830   50.7800  -20.5780 C.3    19  ARG19       0.0489
      7  CD       -47.1780   50.7580  -21.9710 C.3    19  ARG19       0.2205
      8  NE       -48.2720   49.7840  -22.0940 N.pl3  19  ARG19      -0.0865
      9  CZ       -49.0940   49.7730  -23.1500 C.cat  19  ARG19       0.5346
     10  NH1      -48.8880   50.6420  -24.1490 N.pl3  19  ARG19       0.1354
     11  NH2      -50.1240   48.9300  -23.2090 N.pl3  19  ARG19       0.1354
     12  N        -52.9910   51.8930  -16.7560 N.3    21  PRO21      -0.2102
     13  CA       -54.3900   51.8540  -17.1850 C.3    21  PRO21       0.1504
     14  C        -55.1610   53.0840  -16.7840 C.2    21  PRO21       0.2576
     15  O        -54.7940   53.7800  -15.8180 O.2    21  PRO21      -0.2718
     16  CB       -54.9250   50.6160  -16.4980 C.3    21  PRO21       0.0282
     17  CG       -54.1200   50.4970  -15.2480 C.3    21  PRO21       0.0208
     18  CD       -52.7110   50.9750  -15.6340 C.3    21  PRO21       0.0893
     19  N        -56.2590   53.3210  -17.4850 N.am   22  SER22      -0.1938
     20  CA       -57.0920   54.4940  -17.2640 C.3    22  SER22       0.2055
     21  C        -58.4820   54.1770  -17.8220 C.2    22  SER22       0.2643
     22  O        -58.6150   53.2800  -18.6910 O.2    22  SER22      -0.2714
     23  CB       -56.5280   55.7400  -17.9220 C.3    22  SER22       0.2130
     24  OG       -56.4340   55.6190  -19.3350 O.3    22  SER22      -0.2179
     25  N        -59.4930   54.8370  -17.3160 N.am   23  LEU23      -0.1963
     26  CA       -60.8490   54.6230  -17.8200 C.3    23  LEU23       0.1728
     27  C        -60.8730   54.7770  -19.3630 C.2    23  LEU23       0.2616
     28  O        -60.4900   55.8160  -19.8660 O.2    23  LEU23      -0.2715
     29  CB       -61.8290   55.6240  -17.2030 C.3    23  LEU23       0.0311
     30  CG       -63.2480   55.5430  -17.7340 C.3    23  LEU23       0.0022
     31  CD1      -63.9450   54.2880  -17.3450 C.3    23  LEU23       0.0001
     32  CD2      -64.0650   56.7520  -17.2440 C.3    23  LEU23       0.0001
     33  N        -61.3740   53.7380  -19.9880 N.am   24  HIS24      -0.1959
     34  CA       -61.5060   53.7020  -21.4380 C.3    24  HIS24       0.1787
     35  C        -60.2100   54.0600  -22.1440 C.2    24  HIS24       0.2620
     36  O        -60.2370   54.4890  -23.3230 O.2    24  HIS24      -0.2715
     37  CB       -62.6210   54.5780  -21.9470 C.3    24  HIS24       0.0785
     38  CG       -63.9790   54.2010  -21.4810 C.ar   24  HIS24       0.0821
     39  ND1      -64.3140   52.9870  -20.8750 N.ar   24  HIS24      -0.2267
     40  CD2      -65.1340   54.8870  -21.5840 C.ar   24  HIS24       0.1154
     41  CE1      -65.6030   52.9870  -20.6030 C.ar   24  HIS24       0.1986
     42  NE2      -66.1210   54.1260  -21.0160 N.ar   24  HIS24      -0.2212
     43  N        -59.0730   53.8570  -21.5020 N.am   25  ASN25      -0.1972
     44  CA       -57.7690   54.2140  -22.1130 C.3    25  ASN25       0.1688
     45  C        -57.7680   55.6680  -22.5640 C.2    25  ASN25       0.2292
     46  O        -57.1310   56.0530  -23.5520 O.2    25  ASN25      -0.2864
     47  CB       -57.3460   53.2590  -23.2060 C.3    25  ASN25       0.1181
     48  CG       -55.8860   53.4050  -23.5510 C.2    25  ASN25       0.2629
     49  OD1      -55.0380   53.7600  -22.7370 O.2    25  ASN25      -0.2716
     50  ND2      -55.5870   53.1780  -24.8420 N.am   25  ASN25      -0.0877
     51  N        -63.0880   58.9030  -11.8650 N.3    57  GLU57      -0.1245
     52  CA       -62.2620   57.8990  -12.4920 C.3    57  GLU57       0.1567
     53  C        -61.1040   58.4980  -13.3010 C.2    57  GLU57       0.2260
     54  O        -60.1060   57.8540  -13.4390 O.2    57  GLU57      -0.2867
     55  CB       -63.1140   56.9900  -13.3820 C.3    57  GLU57       0.0388
     56  CG       -64.1350   56.2240  -12.5550 C.3    57  GLU57       0.1160
     57  CD       -64.9300   55.3020  -13.4280 C.2    57  GLU57       0.3649
     58  OE1      -65.9230   55.8180  -13.9700 O.co2  57  GLU57      -0.2457
     59  OE2      -64.5040   54.1360  -13.6390 O.co2  57  GLU57      -0.2457
     60  N        -57.4670   57.5230  -12.4590 N.3    60  SER60      -0.1217
     61  CA       -56.5210   57.1000  -13.4880 C.3    60  SER60       0.1889
     62  C        -55.1910   57.8240  -13.3340 C.2    60  SER60       0.2288
     63  O        -54.1310   57.2220  -13.4740 O.2    60  SER60      -0.2866
     64  CB       -57.0950   57.3750  -14.8880 C.3    60  SER60       0.2089
     65  OG       -58.3100   56.6780  -15.1470 O.3    60  SER60      -0.2183
     66  N        -53.3180   56.1490  -10.6660 N.3    63  VAL63      -0.1245
     67  CA       -52.6170   54.9770  -11.1520 C.3    63  VAL63       0.1561
     68  C        -51.2760   55.3990  -11.8010 C.2    63  VAL63       0.2260
     69  O        -50.2560   54.7800  -11.5300 O.2    63  VAL63      -0.2867
     70  CB       -53.4630   54.2410  -12.2210 C.3    63  VAL63       0.0252
     71  CG1      -52.7360   53.0000  -12.7350 C.3    63  VAL63       0.0019
     72  CG2      -54.8480   53.8360  -11.6990 C.3    63  VAL63       0.0019
     73  N        -48.3840   44.0740  -17.6890 N.3   118  ARG118     -0.1231
     74  CA       -49.8040   44.1230  -17.3350 C.3   118  ARG118      0.1694
     75  C        -50.6740   44.5150  -18.5280 C.2   118  ARG118      0.2592
     76  O        -50.3830   45.4590  -19.2470 O.2   118  ARG118     -0.2718
     77  CB       -49.9830   45.1150  -16.2100 C.3   118  ARG118      0.0321
     78  CG       -51.4270   45.2080  -15.6450 C.3   118  ARG118      0.0489
     79  CD       -51.7710   46.5860  -15.1330 C.3   118  ARG118      0.2205
     80  NE       -51.5680   47.5710  -16.1510 N.pl3 118  ARG118     -0.0865
     81  CZ       -52.3730   47.7310  -17.2190 C.cat 118  ARG118      0.5346
     82  NH1      -53.4980   47.0260  -17.3250 N.pl3 118  ARG118      0.1354
     83  NH2      -52.0600   48.6330  -18.1330 N.pl3 118  ARG118      0.1354
     84  N        -51.8070   43.8240  -18.6510 N.am  119  ARG119     -0.1966
     85  CA       -52.8750   44.1820  -19.5780 C.3   119  ARG119      0.1729
     86  C        -54.2300   43.8480  -18.9320 C.2   119  ARG119      0.2616
     87  O        -54.3140   43.0130  -18.0140 O.2   119  ARG119     -0.2715
     88  CB       -52.7400   43.4370  -20.8980 C.3   119  ARG119      0.0348
     89  CG       -52.8440   41.9280  -20.8160 C.3   119  ARG119      0.0492
     90  CD       -52.6070   41.2740  -22.2230 C.3   119  ARG119      0.2205
     91  NE       -53.7460   41.5620  -23.0520 N.pl3 119  ARG119     -0.0865
     92  CZ       -54.8780   40.8460  -23.0680 C.cat 119  ARG119      0.5346
     93  NH1      -55.0200   39.7390  -22.3460 N.pl3 119  ARG119      0.1354
     94  NH2      -55.8880   41.2760  -23.8000 N.pl3 119  ARG119      0.1354
     95  N        -55.2840   44.5050  -19.4310 N.am  120  THR120     -0.1951
     96  CA       -56.6290   44.1890  -19.0070 C.3   120  THR120      0.1897
     97  C        -57.1880   43.0270  -19.7860 C.2   120  THR120      0.2313
     98  O        -57.2540   43.1110  -21.0240 O.2   120  THR120     -0.2863
     99  CB       -57.4840   45.4170  -19.0840 C.3   120  THR120      0.1794
    100  OG1      -57.0730   46.3280  -18.0600 O.3   120  THR120     -0.2208
    101  CG2      -58.9540   45.1160  -18.9270 C.3   120  THR120      0.0378
    102  N        -60.3200   40.7110  -20.4630 N.3   122  ARG122     -0.1245
    103  CA       -61.7820   40.6340  -20.3620 C.3   122  ARG122      0.1563
    104  C        -62.3290   39.2390  -20.6250 C.2   122  ARG122      0.2260
    105  O        -63.5290   39.0240  -20.4760 O.2   122  ARG122     -0.2867
    106  CB       -62.4490   41.6470  -21.3110 C.3   122  ARG122      0.0307
    107  CG       -62.1790   43.0730  -20.8530 C.3   122  ARG122      0.0489
    108  CD       -62.7400   44.1050  -21.7930 C.3   122  ARG122      0.2205
    109  NE       -62.3970   45.4020  -21.2250 N.pl3 122  ARG122     -0.0865
    110  CZ       -61.4630   46.2030  -21.6480 C.cat 122  ARG122      0.5346
    111  NH1      -60.8010   45.9380  -22.7600 N.pl3 122  ARG122      0.1354
    112  NH2      -61.1790   47.3230  -20.9390 N.pl3 122  ARG122      0.1354
    113  N        -60.0740   52.0060  -26.5030 N.3   192  ILE192     -0.1245
    114  CA       -59.9750   50.5600  -26.3620 C.3   192  ILE192      0.1561
    115  C        -60.0040   49.9510  -27.7640 C.2   192  ILE192      0.2260
    116  O        -61.0240   50.0410  -28.4670 O.2   192  ILE192     -0.2867
    117  CB       -61.1070   49.9850  -25.5480 C.3   192  ILE192      0.0252
    118  CG1      -61.1360   50.6630  -24.1760 C.3   192  ILE192      0.0019
    119  CG2      -60.9280   48.4690  -25.3660 C.3   192  ILE192      0.0019
    120  CD1      -62.3170   50.2450  -23.2950 C.3   192  ILE192      0.0001
    121  N        -58.7700   44.2690  -27.8110 N.3   196  ALA196     -0.1245
    122  CA       -58.9000   44.2330  -26.3580 C.3   196  ALA196      0.1562
    123  C        -60.3340   43.9410  -25.9130 C.2   196  ALA196      0.2260
    124  O        -60.6110   43.7630  -24.7030 O.2   196  ALA196     -0.2867
    125  CB       -58.4220   45.5290  -25.7230 C.3   196  ALA196      0.0290
    126  N        -68.7540   42.2010  -15.5060 N.3   209  SER209     -0.1202
    127  CA       -68.1790   42.9380  -16.6060 C.3   209  SER209      0.2020
    128  C        -68.9920   44.1540  -16.9100 C.2   209  SER209      0.2618
    129  O        -70.1850   44.2060  -16.5640 O.2   209  SER209     -0.2717
    130  CB       -68.2100   42.0530  -17.8360 C.3   209  SER209      0.2103
    131  OG       -69.5330   41.6570  -18.1510 O.3   209  SER209     -0.2182
    132  N        -68.3770   45.1220  -17.5910 N.am  210  ARG210     -0.1979
    133  CA       -69.1230   46.2010  -18.2280 C.3   210  ARG210      0.1597
    134  C        -69.4000   45.7610  -19.6420 C.2   210  ARG210      0.2287
    135  O        -68.5550   45.1510  -20.2820 O.2   210  ARG210     -0.2864
    136  CB       -68.2860   47.4780  -18.3000 C.3   210  ARG210      0.0334
    137  CG       -69.0150   48.6890  -18.8770 C.3   210  ARG210      0.0492
    138  CD       -68.0340   49.8060  -19.2550 C.3   210  ARG210      0.2205
    139  NE       -67.3500   50.3280  -18.0960 N.pl3 210  ARG210     -0.0865
    140  CZ       -67.5740   51.5070  -17.5160 C.cat 210  ARG210      0.5346
    141  NH1      -68.5130   52.3310  -17.9170 N.pl3 210  ARG210      0.1354
    142  NH2      -66.9040   51.8150  -16.4390 N.pl3 210  ARG210      0.1354
    143  N        -69.3980   46.2860  -23.3790 N.3   212  PHE212     -0.1241
    144  CA       -68.7390   47.1160  -24.3570 C.3   212  PHE212      0.1605
    145  C        -69.2700   46.6690  -25.7010 C.2   212  PHE212      0.2264
    146  O        -69.7800   45.5690  -25.8180 O.2   212  PHE212     -0.2867
    147  CB       -67.2240   46.8280  -24.3340 C.3   212  PHE212      0.0534
    148  CG       -66.4840   47.4440  -23.1400 C.ar  212  PHE212     -0.0203
    149  CD1      -66.1230   48.7680  -23.1470 C.ar  212  PHE212     -0.0042
    150  CD2      -66.1240   46.6500  -22.0700 C.ar  212  PHE212     -0.0042
    151  CE1      -65.4220   49.3340  -22.0950 C.ar  212  PHE212     -0.0003
    152  CE2      -65.4090   47.2030  -20.9780 C.ar  212  PHE212     -0.0003
    153  CZ       -65.0380   48.5530  -21.0240 C.ar  212  PHE212     -0.0000
    154  N        -55.0600   51.0480   -6.6710 N.3   251  LEU251     -0.1245
    155  CA       -55.3610   50.1880   -7.8060 C.3   251  LEU251      0.1561
    156  C        -54.0860   49.7960   -8.5420 C.2   251  LEU251      0.2260
    157  O        -53.8600   48.6210   -8.8640 O.2   251  LEU251     -0.2867
    158  CB       -56.3840   50.8400   -8.7060 C.3   251  LEU251      0.0270
    159  CG       -56.6440   50.1360  -10.0490 C.3   251  LEU251      0.0019
    160  CD1      -57.2600   48.7740   -9.7390 C.3   251  LEU251      0.0001
    161  CD2      -57.5910   50.9790  -10.8870 C.3   251  LEU251      0.0001
    162  N        -58.4660   42.4350  -14.4260 N.3   265  CYS265     -0.1221
    163  CA       -59.3530   43.2290  -15.2360 C.3   265  CYS265      0.1794
    164  C        -60.1160   44.1580  -14.2370 C.2   265  CYS265      0.2443
    165  O        -60.8720   43.6740  -13.3920 O.2   265  CYS265     -0.2733
    166  CB       -60.4010   42.3340  -15.9160 C.3   265  CYS265      0.0970
    167  SG       -61.4900   43.2280  -17.0460 S.3   265  CYS265     -0.0800
    168  N        -59.9270   45.4630  -14.3420 N.am  266  PRO266     -0.2718
    169  CA       -60.7560   46.3500  -13.5270 C.3   266  PRO266      0.1535
    170  C        -62.2020   46.3730  -14.0830 C.2   266  PRO266      0.2598
    171  O        -62.3680   46.1840  -15.2960 O.2   266  PRO266     -0.2715
    172  CB       -60.1510   47.7260  -13.7680 C.3   266  PRO266      0.0310
    173  CG       -58.7830   47.5040  -14.3670 C.3   266  PRO266      0.0237
    174  CD       -58.9050   46.2100  -15.1210 C.3   266  PRO266      0.0939
    175  N        -63.1890   46.5960  -13.2040 N.am  267  VAL267     -0.1964
    176  CA       -64.5660   46.7300  -13.5830 C.3   267  VAL267      0.1727
    177  C        -65.0670   47.8720  -12.7360 C.2   267  VAL267      0.2617
    178  O        -65.0290   47.8380  -11.4820 O.2   267  VAL267     -0.2715
    179  CB       -65.3660   45.4740  -13.3690 C.3   267  VAL267      0.0290
    180  CG1      -66.7700   45.7170  -13.8440 C.3   267  VAL267      0.0023
    181  CG2      -64.7950   44.3060  -14.1200 C.3   267  VAL267      0.0023
    182  N        -65.5850   48.9270  -13.3620 N.am  268  THR268     -0.1937
    183  CA       -65.9470   50.1300  -12.6010 C.3   268  THR268      0.2028
    184  C        -67.3560   50.6610  -12.8120 C.2   268  THR268      0.2642
    185  O        -67.7450   51.6370  -12.1640 O.2   268  THR268     -0.2714
    186  CB       -65.0040   51.2720  -12.8040 C.3   268  THR268      0.1808
    187  OG1      -65.0780   51.6790  -14.1750 O.3   268  THR268     -0.2208
    188  CG2      -63.6050   50.9540  -12.3520 C.3   268  THR268      0.0379
    189  N        -68.1210   50.0810  -13.7510 N.am  269  HIS269     -0.1973
    190  CA       -69.3800   50.7200  -14.0450 C.3   269  HIS269      0.1656
    191  C        -70.3350   50.6680  -12.8550 C.2   269  HIS269      0.2291
    192  O        -71.1310   51.6120  -12.6390 O.2   269  HIS269     -0.2864
    193  CB       -70.0120   50.1710  -15.3120 C.3   269  HIS269      0.0771
    194  CG       -70.4260   48.7440  -15.2280 C.ar  269  HIS269      0.0820
    195  ND1      -69.6650   47.7630  -14.6180 N.ar  269  HIS269     -0.2267
    196  CD2      -71.5110   48.1110  -15.7420 C.ar  269  HIS269      0.1154
    197  CE1      -70.2550   46.5880  -14.7630 C.ar  269  HIS269      0.1986
    198  NE2      -71.3620   46.7680  -15.4690 N.ar  269  HIS269     -0.2212
    199  N        -63.4860   50.6850   -7.2230 N.3   292  VAL292     -0.1245
    200  CA       -63.1680   49.8590   -8.3830 C.3   292  VAL292      0.1561
    201  C        -63.2080   48.4130   -7.9260 C.2   292  VAL292      0.2260
    202  O        -62.8250   48.0890   -6.7890 O.2   292  VAL292     -0.2867
    203  CB       -61.7740   50.2680   -8.9740 C.3   292  VAL292      0.0252
    204  CG1      -60.7020   50.3310   -7.8910 C.3   292  VAL292      0.0019
    205  CG2      -61.3260   49.3320  -10.0910 C.3   292  VAL292      0.0019
    206  N        -52.4240   47.6130  -25.8050 N.3   309  THR309     -0.1218
    207  CA       -53.2440   48.7380  -26.0740 C.3   309  THR309      0.1862
    208  C        -52.3600   49.9540  -26.2410 C.2   309  THR309      0.2287
    209  O        -51.2660   50.0230  -25.6900 O.2   309  THR309     -0.2866
    210  CB       -54.2870   48.9480  -25.0230 C.3   309  THR309      0.1770
    211  OG1      -53.6390   49.2010  -23.7890 O.3   309  THR309     -0.2211
    212  CG2      -55.1710   47.7270  -24.9040 C.3   309  THR309      0.0375
    213  N        -50.8330   53.9340  -26.3610 N.3   311  ARG311     -0.1245
    214  CA       -50.7170   55.1100  -25.5190 C.3   311  ARG311      0.1563
    215  C        -50.2980   56.3180  -26.3440 C.2   311  ARG311      0.2260
    216  O        -49.6710   56.1830  -27.4430 O.2   311  ARG311     -0.2867
    217  CB       -49.7060   54.8880  -24.3680 C.3   311  ARG311      0.0307
    218  CG       -50.0850   53.7600  -23.4180 C.3   311  ARG311      0.0489
    219  CD       -51.3370   54.1580  -22.5770 C.3   311  ARG311      0.2205
    220  NE       -51.6370   53.1550  -21.5650 N.pl3 311  ARG311     -0.0865
    221  CZ       -52.2280   51.9900  -21.7970 C.cat 311  ARG311      0.5346
    222  NH1      -52.6720   51.6670  -23.0420 N.pl3 311  ARG311      0.1354
    223  NH2      -52.3440   51.1350  -20.8160 N.pl3 311  ARG311      0.1354
@<TRIPOS>BOND
     1   116   115    2
     2   121   122    1
     3   115   114    1
     4   216   215    2
     5   113   114    1
     6   114   117    1
     7   213   214    1
     8   122   123    1
     9   122   125    1
    10   215   214    1
    11   208   207    1
    12   208   209    2
    13   207   206    1
    14   207   210    1
    15   123   124    2
    16   146   145    2
    17   145   144    1
    18   117   119    1
    19   117   118    1
    20   214   217    1
    21   210   212    1
    22   210   211    1
    23    50    48   am
    24   217   218    1
    25   144   147    1
    26   144   143    1
    27   147   148    1
    28   118   120    1
    29    10     9    1
    30    94    92    1
    31    46    45    2
    32    48    47    1
    33    48    49    2
    34   218   219    1
    35    36    35    2
    36    11     9    1
    37    47    44    1
    38     9     8    2
    39   149   148   ar
    40   149   151   ar
    41   148   150   ar
    42    92    91    2
    43    92    93    1
    44    91    90    1
    45   222   221    1
    46   111   110    1
    47   219   220    1
    48    45    44    1
    49    90    89    1
    50    35    43   am
    51    35    34    1
    52    44    43    1
    53   151   153   ar
    54     8     7    1
    55   150   152   ar
    56     7     6    1
    57    37    38    1
    58    37    34    1
    59   221   220    2
    60   221   223    1
    61   108   109    1
    62   108   107    1
    63   110   109    2
    64   110   112    1
    65    40    38   ar
    66    40    42   ar
    67    38    39   ar
    68    34    33    1
    69   106   107    1
    70   106   103    1
    71    98    97    2
    72   153   152   ar
    73    42    41   ar
    74    88    89    1
    75    88    85    1
    76    39    41   ar
    77   104   105    2
    78   104   103    1
    79     6     5    1
    80   102   103    1
    81   135   134    2
    82    33    27   am
    83    28    27    2
    84    97    96    1
    85   134   133    1
    86     2     1    1
    87     2     5    1
    88     2     3    1
    89    85    86    1
    90    85    84    1
    91    95    96    1
    92    95    86   am
    93    27    26    1
    94    24    23    1
    95   138   137    1
    96   138   139    1
    97    76    75    2
    98    99    96    1
    99    99   101    1
   100    99   100    1
   101    86    87    2
   102   137   136    1
   103    22    21    2
   104     4     3    2
   105    84    75   am
   106    75    74    1
   107   136   133    1
   108   133   132    1
   109   131   130    1
   110    83    81    1
   111   139   140    2
   112    23    20    1
   113   141   140    1
   114   130   127    1
   115    21    25   am
   116    21    20    1
   117    26    25    1
   118    26    29    1
   119    30    31    1
   120    30    32    1
   121    30    29    1
   122    73    74    1
   123   132   128   am
   124   140   142    1
   125    19    20    1
   126    19    14   am
   127    74    77    1
   128    82    81    1
   129    81    80    2
   130    13    14    1
   131    13    12    1
   132    13    16    1
   133   167   166    1
   134   128   127    1
   135   128   129    2
   136    14    15    2
   137    12    18    1
   138   127   126    1
   139    16    17    1
   140    77    78    1
   141    80    79    1
   142   166   163    1
   143   196   198   ar
   144   196   194   ar
   145    78    79    1
   146    18    17    1
   147   198   197   ar
   148   193   194    1
   149   193   190    1
   150   171   170    2
   151   163   162    1
   152   163   164    1
   153   194   195   ar
   154    65    64    1
   155   174   173    1
   156   174   168    1
   157    64    61    1
   158   197   195   ar
   159   173   172    1
   160   168   164   am
   161   168   169    1
   162   164   165    2
   163   187   186    1
   164   181   179    1
   165   170   169    1
   166   170   175   am
   167   190   189    1
   168   190   191    1
   169    58    57   ar
   170   180   179    1
   171   172   169    1
   172   189   184   am
   173    59    57   ar
   174   176   179    1
   175   176   175    1
   176   176   177    1
   177    61    62    1
   178    61    60    1
   179    63    62    2
   180    54    53    2
   181    57    56    1
   182    55    56    1
   183    55    52    1
   184   182   177   am
   185   182   183    1
   186    53    52    1
   187   191   192    2
   188   184   183    1
   189   184   185    2
   190   186   183    1
   191   186   188    1
   192   177   178    2
   193    71    70    1
   194    52    51    1
   195    70    72    1
   196    70    67    1
   197    68    69    2
   198    68    67    1
   199    67    66    1
   200   161   159    1
   201   205   203    1
   202   159   160    1
   203   159   158    1
   204   203   200    1
   205   203   204    1
   206   157   156    2
   207   158   155    1
   208   156   155    1
   209   200   201    1
   210   200   199    1
   211   201   202    2
   212   155   154    1
