@<TRIPOS>MOLECULE
tmp/2yn4B00.pdb
 101 98 0 0 0
SMALL
GASTEIGER

@<TRIPOS>ATOM
      1  N         16.5530  -24.7500   12.7470 N.3     7  ASP7       -0.1225
      2  CA        15.4770  -23.9170   13.2440 C.3     7  ASP7        0.1805
      3  C         14.9020  -23.1860   12.0390 C.2     7  ASP7        0.2598
      4  O         15.6330  -22.9380   11.0650 O.2     7  ASP7       -0.2718
      5  CB        16.0790  -22.9160   14.2360 C.3     7  ASP7        0.1424
      6  CG        15.0650  -21.9500   14.7550 C.2     7  ASP7        0.3668
      7  OD1       14.0000  -22.4320   15.1670 O.co2   7  ASP7       -0.2456
      8  OD2       15.3180  -20.7160   14.7370 O.co2   7  ASP7       -0.2456
      9  N         13.6130  -22.8490   12.0820 N.am    8  VAL8       -0.1966
     10  CA        12.9230  -22.2740   10.9120 C.3     8  VAL8        0.1727
     11  C         12.6750  -20.7690   11.0480 C.2     8  VAL8        0.2616
     12  O         13.2170  -19.9690   10.2660 O.2     8  VAL8       -0.2715
     13  CB        11.6190  -23.0440   10.5620 C.3     8  VAL8        0.0290
     14  CG1       10.8650  -22.3890    9.4100 C.3     8  VAL8        0.0023
     15  CG2       11.9370  -24.5050   10.2140 C.3     8  VAL8        0.0023
     16  N         11.8780  -20.3790   12.0360 N.am    9  ASN9       -0.1972
     17  CA        11.5020  -18.9550   12.1840 C.3     9  ASN9        0.1688
     18  C         12.7490  -18.1420   12.5780 C.2     9  ASN9        0.2292
     19  O         13.4720  -18.5230   13.4840 O.2     9  ASN9       -0.2864
     20  CB        10.3900  -18.7790   13.2440 C.3     9  ASN9        0.1181
     21  CG         9.1790  -19.6890   13.0140 C.2     9  ASN9        0.2629
     22  OD1        8.6150  -19.7210   11.9240 O.2     9  ASN9       -0.2716
     23  ND2        8.7620  -20.4170   14.0610 N.am    9  ASN9       -0.0877
     24  N          8.8810  -10.9210   20.4840 N.3    36  PHE36      -0.1241
     25  CA         9.4880  -12.2220   20.1910 C.3    36  PHE36       0.1605
     26  C         10.1160  -12.8840   21.4290 C.2    36  PHE36       0.2264
     27  O          9.7900  -14.0350   21.7170 O.2    36  PHE36      -0.2867
     28  CB        10.4780  -12.1770   18.9960 C.3    36  PHE36       0.0534
     29  CG        10.9100  -13.5470   18.5410 C.ar   36  PHE36      -0.0203
     30  CD1       10.0340  -14.3450   17.8190 C.ar   36  PHE36      -0.0042
     31  CD2       12.1550  -14.0580   18.9100 C.ar   36  PHE36      -0.0042
     32  CE1       10.4030  -15.6320   17.4260 C.ar   36  PHE36      -0.0003
     33  CE2       12.5400  -15.3360   18.5130 C.ar   36  PHE36      -0.0003
     34  CZ        11.6550  -16.1210   17.7830 C.ar   36  PHE36      -0.0000
     35  N          8.8470  -16.5010   23.2680 N.3    40  ILE40      -0.1245
     36  CA         9.7240  -17.6220   23.6430 C.3    40  ILE40       0.1561
     37  C          9.6410  -17.8890   25.1490 C.2    40  ILE40       0.2260
     38  O          9.5020  -19.0480   25.5900 O.2    40  ILE40      -0.2867
     39  CB        11.1710  -17.3550   23.1700 C.3    40  ILE40       0.0252
     40  CG1       11.2150  -17.2250   21.6310 C.3    40  ILE40       0.0019
     41  CG2       12.1080  -18.4690   23.6720 C.3    40  ILE40       0.0019
     42  CD1       10.4950  -18.3280   20.8670 C.3    40  ILE40       0.0001
     43  N          2.0970  -23.2890   19.2320 N.3    55  PHE55      -0.1241
     44  CA         2.9390  -22.0860   19.2420 C.3    55  PHE55       0.1605
     45  C          2.2280  -20.8550   18.6960 C.2    55  PHE55       0.2264
     46  O          2.3380  -19.7490   19.2680 O.2    55  PHE55      -0.2867
     47  CB         4.2150  -22.3630   18.4350 C.3    55  PHE55       0.0534
     48  CG         5.3320  -21.3670   18.6560 C.ar   55  PHE55      -0.0203
     49  CD1        5.9430  -21.2490   19.8950 C.ar   55  PHE55      -0.0042
     50  CD2        5.8600  -20.6540   17.5800 C.ar   55  PHE55      -0.0042
     51  CE1        6.9940  -20.3610   20.0800 C.ar   55  PHE55      -0.0003
     52  CE2        6.9230  -19.7800   17.7500 C.ar   55  PHE55      -0.0003
     53  CZ         7.4910  -19.6330   19.0160 C.ar   55  PHE55      -0.0000
     54  N         11.0500  -27.1970   14.3250 N.3   113  THR113     -0.1203
     55  CA        10.4170  -25.9610   14.7250 C.3   113  THR113      0.1994
     56  C          9.4680  -26.1160   15.9180 C.2   113  THR113      0.2617
     57  O          8.8540  -27.1730   16.1350 O.2   113  THR113     -0.2717
     58  CB         9.7150  -25.2760   13.5160 C.3   113  THR113      0.1784
     59  OG1        9.1220  -24.0400   13.9340 O.3   113  THR113     -0.2211
     60  CG2        8.6430  -26.1870   12.8950 C.3   113  THR113      0.0376
     61  N          9.3760  -25.0370   16.6860 N.am  114  ASN114     -0.1974
     62  CA         8.3810  -24.8890   17.7540 C.3   114  ASN114      0.1688
     63  C          6.9880  -24.8060   17.1370 C.2   114  ASN114      0.2292
     64  O          6.0100  -25.1330   17.8050 O.2   114  ASN114     -0.2864
     65  CB         8.6110  -23.5790   18.5080 C.3   114  ASN114      0.1181
     66  CG         9.5920  -23.7110   19.6560 C.2   114  ASN114      0.2629
     67  OD1        9.8720  -24.8020   20.1710 O.2   114  ASN114     -0.2716
     68  ND2       10.0780  -22.5620   20.1070 N.am  114  ASN114     -0.0877
     69  N         11.1370  -26.0470   22.7310 N.3   146  LYS146     -0.1245
     70  CA        12.5710  -25.8800   22.9280 C.3   146  LYS146      0.1561
     71  C         12.8080  -24.9010   24.0680 C.2   146  LYS146      0.2260
     72  O         12.0180  -23.9660   24.2540 O.2   146  LYS146     -0.2867
     73  CB        13.1970  -25.2630   21.6770 C.3   146  LYS146      0.0271
     74  CG        13.0070  -26.0760   20.4200 C.3   146  LYS146      0.0035
     75  CD        13.2720  -25.1620   19.2280 C.3   146  LYS146      0.0206
     76  CE        13.4050  -25.9760   17.9630 C.3   146  LYS146      0.1093
     77  NZ        13.8540  -25.0570   16.8670 N.3   146  LYS146     -0.1314
     78  N         19.3090  -18.6380   17.4320 N.3   172  HIS172     -0.1241
     79  CA        18.8880  -18.4330   18.8350 C.3   172  HIS172      0.1621
     80  C         19.7600  -19.2930   19.7190 C.2   172  HIS172      0.2264
     81  O         19.7260  -20.5160   19.6150 O.2   172  HIS172     -0.2867
     82  CB        17.4090  -18.8360   19.0440 C.3   172  HIS172      0.0745
     83  CG        16.4700  -18.1630   18.0920 C.ar  172  HIS172      0.0817
     84  ND1       15.7050  -18.8660   17.1900 N.ar  172  HIS172     -0.2268
     85  CD2       16.1960  -16.8570   17.8820 C.ar  172  HIS172      0.1154
     86  CE1       14.9910  -18.0210   16.4670 C.ar  172  HIS172      0.1986
     87  NE2       15.2770  -16.7940   16.8580 N.ar  172  HIS172     -0.2212
     88  N         19.4650  -20.0170   22.7170 N.3   174  TRP174     -0.1241
     89  CA        18.6580  -20.9190   23.5580 C.3   174  TRP174      0.1605
     90  C         18.4260  -22.2880   22.8920 C.2   174  TRP174      0.2264
     91  O         18.3660  -23.3340   23.5590 O.2   174  TRP174     -0.2867
     92  CB        17.3390  -20.2690   23.9990 C.3   174  TRP174      0.0550
     93  CG        16.4870  -19.5350   22.9310 C.ar  174  TRP174      0.0003
     94  CD1       16.4950  -18.1860   22.6630 C.ar  174  TRP174      0.0946
     95  CD2       15.5070  -20.1070   22.0460 C.ar  174  TRP174      0.0152
     96  NE1       15.5670  -17.8780   21.6850 N.ar  174  TRP174     -0.2442
     97  CE2       14.9500  -19.0400   21.2830 C.ar  174  TRP174      0.0810
     98  CE3       15.0420  -21.4060   21.8330 C.ar  174  TRP174      0.0012
     99  CZ2       13.9670  -19.2430   20.3120 C.ar  174  TRP174      0.0191
    100  CZ3       14.0540  -21.6120   20.8710 C.ar  174  TRP174      0.0001
    101  CH2       13.5370  -20.5360   20.1050 C.ar  174  TRP174      0.0015
@<TRIPOS>BOND
     1    14    13    1
     2    15    13    1
     3    12    11    2
     4    13    10    1
     5    10    11    1
     6    10     9    1
     7    11    16   am
     8     4     3    2
     9    22    21    2
    10    16    17    1
    11     3     9   am
    12     3     2    1
    13    17    18    1
    14    17    20    1
    15    18    19    2
    16     1     2    1
    17    60    58    1
    18    21    20    1
    19    21    23   am
    20     2     5    1
    21    58    59    1
    22    58    55    1
    23     5     6    1
    24    54    55    1
    25    55    56    1
    26     8     6   ar
    27     6     7   ar
    28    56    57    2
    29    56    61   am
    30    86    87   ar
    31    86    84   ar
    32    61    62    1
    33    87    85   ar
    34    77    76    1
    35    63    62    1
    36    63    64    2
    37    84    83   ar
    38    32    34   ar
    39    32    30   ar
    40    78    79    1
    41    50    52   ar
    42    50    48   ar
    43    52    53   ar
    44    62    65    1
    45    34    33   ar
    46    30    29   ar
    47    85    83   ar
    48    76    75    1
    49    83    82    1
    50    47    48    1
    51    47    44    1
    52    65    66    1
    53    33    31   ar
    54    29    31   ar
    55    29    28    1
    56    48    49   ar
    57    45    44    1
    58    45    46    2
    59    79    82    1
    60    79    80    1
    61    28    25    1
    62    53    51   ar
    63    75    74    1
    64    43    44    1
    65    81    80    2
    66    66    68   am
    67    66    67    2
    68    49    51   ar
    69   101    99   ar
    70   101   100   ar
    71    25    24    1
    72    25    26    1
    73    99    97   ar
    74    74    73    1
    75    42    40    1
    76   100    98   ar
    77    97    96   ar
    78    97    95   ar
    79    26    27    2
    80    40    39    1
    81    73    70    1
    82    96    94   ar
    83    98    95   ar
    84    95    93   ar
    85    94    93   ar
    86    88    89    1
    87    69    70    1
    88    90    89    1
    89    90    91    2
    90    70    71    1
    91    93    92    1
    92    39    36    1
    93    39    41    1
    94    35    36    1
    95    89    92    1
    96    36    37    1
    97    71    72    2
    98    37    38    2
