@<TRIPOS>MOLECULE
tmp/2yn8A00.pdb
 169 157 0 0 0
SMALL
GASTEIGER

@<TRIPOS>ATOM
      1  N          7.3660   -2.9560  -38.2480 N.3    14  ILE14      -0.1231
      2  CA         8.5460   -3.0660  -37.3790 C.3    14  ILE14       0.1692
      3  C          8.3360   -4.0620  -36.2100 C.2    14  ILE14       0.2593
      4  O          9.2990   -4.5730  -35.6590 O.2    14  ILE14      -0.2718
      5  CB         9.0460   -1.6550  -36.9580 C.3    14  ILE14       0.0266
      6  CG1        7.9320   -0.9230  -36.1380 C.3    14  ILE14       0.0019
      7  CG2        9.4760   -0.8530  -38.2310 C.3    14  ILE14       0.0020
      8  CD1        8.2480    0.3680  -35.5140 C.3    14  ILE14       0.0001
      9  N          7.0790   -4.3770  -35.9170 N.am   15  GLY15      -0.1942
     10  CA         6.7120   -5.3310  -34.8750 C.3    15  GLY15       0.2014
     11  C          5.2460   -5.6940  -34.8600 C.2    15  GLY15       0.2639
     12  O          4.4660   -5.1880  -35.6660 O.2    15  GLY15      -0.2714
     13  N          4.8650   -6.5850  -33.9360 N.am   16  ALA16      -0.1963
     14  CA         3.4770   -7.0120  -33.7370 C.3    16  ALA16       0.1728
     15  C          3.0310   -6.7750  -32.2910 C.2    16  ALA16       0.2616
     16  O          3.8020   -6.9700  -31.3510 O.2    16  ALA16      -0.2715
     17  CB         3.3150   -8.4740  -34.0990 C.3    16  ALA16       0.0334
     18  N          1.7820   -6.3400  -32.1500 N.am   17  GLY17      -0.1955
     19  CA         1.1120   -6.0670  -30.8850 C.3    17  GLY17       0.1869
     20  C         -0.1460   -6.8980  -30.7610 C.2    17  GLY17       0.2309
     21  O         -0.5300   -7.5850  -31.7130 O.2    17  GLY17      -0.2863
     22  N          2.6570   -2.9860  -35.6280 N.3    22  VAL22      -0.1245
     23  CA         3.4490   -1.8260  -35.2500 C.3    22  VAL22       0.1561
     24  C          4.2750   -1.5310  -36.5030 C.2    22  VAL22       0.2260
     25  O          4.9330   -2.4300  -37.0530 O.2    22  VAL22      -0.2867
     26  CB         4.2960   -1.9580  -33.9710 C.3    22  VAL22       0.0252
     27  CG1        4.9960   -0.6310  -33.6650 C.3    22  VAL22       0.0019
     28  CG2        3.4360   -2.3900  -32.7800 C.3    22  VAL22       0.0019
     29  N          6.2070    5.7730  -34.8160 N.3    33  ALA33      -0.1245
     30  CA         5.8640    4.3610  -34.8190 C.3    33  ALA33       0.1562
     31  C          4.3250    4.3850  -34.7750 C.2    33  ALA33       0.2260
     32  O          3.7110    5.2590  -34.1420 O.2    33  ALA33      -0.2867
     33  CB         6.4190    3.6450  -33.6220 C.3    33  ALA33       0.0290
     34  N          0.7640    2.1350  -34.3770 N.3    35  LYS35      -0.1245
     35  CA         0.0600    0.9170  -33.9810 C.3    35  LYS35       0.1561
     36  C         -1.2840    1.0040  -34.7000 C.2    35  LYS35       0.2260
     37  O         -2.0110    1.9680  -34.5020 O.2    35  LYS35      -0.2867
     38  CB        -0.1330    0.8580  -32.4550 C.3    35  LYS35       0.0271
     39  CG         1.1600    0.6010  -31.6940 C.3    35  LYS35       0.0035
     40  CD         0.8990    0.2990  -30.2270 C.3    35  LYS35       0.0206
     41  CE         0.6460   -1.1580  -30.0000 C.3    35  LYS35       0.1093
     42  NZ         0.8090   -1.5180  -28.5730 N.3    35  LYS35      -0.1314
     43  N         -4.3330    2.7010  -24.2040 N.3    52  GLU52      -0.1245
     44  CA        -2.8600    2.7280  -24.2120 C.3    52  GLU52       0.1567
     45  C         -2.3720    4.1670  -24.4600 C.2    52  GLU52       0.2260
     46  O         -1.4000    4.6020  -23.8250 O.2    52  GLU52      -0.2867
     47  CB        -2.3180    1.7850  -25.3060 C.3    52  GLU52       0.0388
     48  CG        -0.8060    1.8260  -25.4680 C.3    52  GLU52       0.1160
     49  CD        -0.1460    0.7660  -26.3270 C.2    52  GLU52       0.3649
     50  OE1       -0.8580   -0.0530  -26.9480 O.co2  52  GLU52      -0.2457
     51  OE2        1.1040    0.7520  -26.3670 O.co2  52  GLU52      -0.2457
     52  N         -0.3860    6.5480  -21.8420 N.3    56  MET56      -0.1245
     53  CA         0.8550    7.1900  -22.3100 C.3    56  MET56       0.1570
     54  C          0.7450    8.6950  -22.2350 C.2    56  MET56       0.2261
     55  O          1.7520    9.3560  -21.9890 O.2    56  MET56      -0.2867
     56  CB         1.1460    6.8410  -23.7790 C.3    56  MET56       0.0387
     57  CG         2.0310    5.6530  -23.9670 C.3    56  MET56       0.0595
     58  SD         2.4560    5.4390  -25.7230 S.3    56  MET56      -0.1393
     59  CE         0.9130    4.9640  -26.3730 C.3    56  MET56       0.0692
     60  N          8.3290    6.5070  -23.4910 N.3    65  ILE65      -0.1245
     61  CA         7.9270    6.7180  -24.8930 C.3    65  ILE65       0.1561
     62  C          6.8280    7.7800  -25.0220 C.2    65  ILE65       0.2260
     63  O          5.8060    7.7180  -24.3420 O.2    65  ILE65      -0.2867
     64  CB         7.5920    5.3830  -25.6200 C.3    65  ILE65       0.0252
     65  CG1        8.8410    4.5100  -25.7360 C.3    65  ILE65       0.0019
     66  CG2        6.9330    5.5820  -27.0030 C.3    65  ILE65       0.0019
     67  CD1        9.9110    4.9870  -26.6910 C.3    65  ILE65       0.0001
     68  N          3.2640    7.1990  -31.9260 N.3    81  THR81      -0.1203
     69  CA         4.2130    7.4700  -30.8650 C.3    81  THR81       0.1994
     70  C          5.5010    7.9410  -31.5490 C.2    81  THR81       0.2618
     71  O          5.6560    7.7490  -32.7480 O.2    81  THR81      -0.2717
     72  CB         4.4430    6.2180  -29.9700 C.3    81  THR81       0.1784
     73  OG1        5.2490    5.2920  -30.6750 O.3    81  THR81      -0.2211
     74  CG2        3.1490    5.5410  -29.5070 C.3    81  THR81       0.0376
     75  N          6.4290    8.5200  -30.8020 N.am   82  GLU82      -0.1965
     76  CA         7.7270    8.8670  -31.3820 C.3    82  GLU82       0.1733
     77  C          8.4340    7.5740  -31.8810 C.2    82  GLU82       0.2616
     78  O          8.2200    6.4890  -31.3310 O.2    82  GLU82      -0.2715
     79  CB         8.6190    9.5840  -30.3550 C.3    82  GLU82       0.0429
     80  CG         8.9730    8.6960  -29.1630 C.3    82  GLU82       0.1163
     81  CD         9.8770    9.3080  -28.1200 C.2    82  GLU82       0.3649
     82  OE1       10.7000   10.1830  -28.4690 O.co2  82  GLU82      -0.2457
     83  OE2        9.7040    8.9620  -26.9330 O.co2  82  GLU82      -0.2457
     84  N          9.2250    7.6980  -32.9450 N.am   83  PHE83      -0.1960
     85  CA         9.9650    6.5840  -33.5130 C.3    83  PHE83       0.1771
     86  C         11.3250    6.5120  -32.8380 C.2    83  PHE83       0.2619
     87  O         11.9910    7.5320  -32.6720 O.2    83  PHE83      -0.2715
     88  CB        10.1360    6.7400  -35.0220 C.3    83  PHE83       0.0574
     89  CG        10.8690    5.6040  -35.6870 C.ar   83  PHE83      -0.0200
     90  CD1       10.3510    4.3140  -35.6630 C.ar   83  PHE83      -0.0042
     91  CD2       12.1000    5.8140  -36.2960 C.ar   83  PHE83      -0.0042
     92  CE1       11.0470    3.2570  -36.2500 C.ar   83  PHE83      -0.0003
     93  CE2       12.7930    4.7640  -36.8920 C.ar   83  PHE83      -0.0003
     94  CZ        12.2720    3.4910  -36.8600 C.ar   83  PHE83      -0.0000
     95  N         11.7370    5.3030  -32.4670 N.am   84  MET84      -0.1963
     96  CA        13.0010    5.0710  -31.7790 C.3    84  MET84       0.1736
     97  C         13.8720    4.2960  -32.7220 C.2    84  MET84       0.2616
     98  O         13.7390    3.0750  -32.8290 O.2    84  MET84      -0.2715
     99  CB        12.7710    4.2850  -30.4940 C.3    84  MET84       0.0427
    100  CG        11.8630    4.9820  -29.5320 C.3    84  MET84       0.0599
    101  SD        12.6030    6.4600  -28.7830 S.3    84  MET84      -0.1393
    102  CE        13.6690    5.7220  -27.5950 C.3    84  MET84       0.0692
    103  N         14.7460    5.0270  -33.4100 N.am   85  GLU85      -0.1977
    104  CA        15.6390    4.5840  -34.4790 C.3    85  GLU85       0.1602
    105  C         16.3320    3.2560  -34.2490 C.2    85  GLU85       0.2287
    106  O         16.3990    2.4300  -35.1730 O.2    85  GLU85      -0.2864
    107  CB        16.6610    5.6840  -34.8320 C.3    85  GLU85       0.0415
    108  CG        16.0040    6.9810  -35.2800 C.3    85  GLU85       0.1163
    109  CD        15.6370    7.9980  -34.2080 C.2    85  GLU85       0.3649
    110  OE1       15.5580    7.6640  -32.9970 O.co2  85  GLU85      -0.2457
    111  OE2       15.3920    9.1560  -34.6140 O.co2  85  GLU85      -0.2457
    112  N         15.4930    0.7490  -32.2020 N.3    87  GLY87      -0.1210
    113  CA        14.6040   -0.3400  -31.8110 C.3    87  GLY87       0.1956
    114  C         14.7910   -0.8880  -30.4140 C.2    87  GLY87       0.2611
    115  O         15.1310   -0.1450  -29.4940 O.2    87  GLY87      -0.2717
    116  N         14.5570   -2.2040  -30.2510 N.am   88  ALA88      -0.1979
    117  CA        14.6490   -2.8930  -28.9560 C.3    88  ALA88       0.1597
    118  C         16.0870   -3.0020  -28.4850 C.2    88  ALA88       0.2287
    119  O         16.9680   -3.3300  -29.2770 O.2    88  ALA88      -0.2864
    120  CB        14.0150   -4.2740  -29.0380 C.3    88  ALA88       0.0319
    121  N         17.6430   -5.1730  -26.4210 N.3    90  ASP90      -0.1239
    122  CA        18.3060   -6.4820  -26.4010 C.3    90  ASP90       0.1674
    123  C         18.9570   -6.8060  -27.7420 C.2    90  ASP90       0.2266
    124  O         20.1480   -7.1320  -27.7660 O.2    90  ASP90      -0.2867
    125  CB        17.3780   -7.5960  -25.8840 C.3    90  ASP90       0.1410
    126  CG        16.1950   -7.9100  -26.7890 C.2    90  ASP90       0.3668
    127  OD1       15.5670   -6.9570  -27.2990 O.co2  90  ASP90      -0.2456
    128  OD2       15.9390   -9.1100  -27.0370 O.co2  90  ASP90      -0.2456
    129  N         13.7890   -6.1780  -24.2940 N.3   132  ARG132     -0.1231
    130  CA        12.9850   -6.1760  -25.5270 C.3   132  ARG132      0.1694
    131  C         11.9050   -5.0910  -25.5490 C.2   132  ARG132      0.2592
    132  O         11.4570   -4.7270  -26.6320 O.2   132  ARG132     -0.2718
    133  CB        12.3820   -7.5650  -25.8260 C.3   132  ARG132      0.0321
    134  CG        11.3270   -7.9760  -24.8110 C.3   132  ARG132      0.0489
    135  CD        10.8940   -9.4210  -24.9190 C.3   132  ARG132      0.2205
    136  NE        10.6390   -9.9580  -23.5800 N.pl3 132  ARG132     -0.0865
    137  CZ         9.4830   -9.8420  -22.9400 C.cat 132  ARG132      0.5346
    138  NH1        8.4480   -9.2530  -23.5270 N.pl3 132  ARG132      0.1354
    139  NH2        9.3470  -10.3230  -21.7140 N.pl3 132  ARG132      0.1354
    140  N         11.4670   -4.6010  -24.3660 N.am  133  ASN133     -0.1974
    141  CA        10.4520   -3.5540  -24.2390 C.3   133  ASN133      0.1688
    142  C         11.0580   -2.1810  -23.9330 C.2   133  ASN133      0.2292
    143  O         10.3550   -1.2210  -23.6550 O.2   133  ASN133     -0.2864
    144  CB         9.3300   -3.9620  -23.2630 C.3   133  ASN133      0.1181
    145  CG         8.5180   -5.1290  -23.7770 C.2   133  ASN133      0.2629
    146  OD1        8.2410   -5.2400  -24.9820 O.2   133  ASN133     -0.2716
    147  ND2        8.1730   -6.0540  -22.8870 N.am  133  ASN133     -0.0877
    148  N         13.1840    0.7820  -25.6570 N.3   135  LEU135     -0.1245
    149  CA        13.4440    1.2690  -27.0010 C.3   135  LEU135      0.1561
    150  C         14.5700    2.2550  -26.9890 C.2   135  LEU135      0.2260
    151  O         14.7540    2.9570  -25.9950 O.2   135  LEU135     -0.2867
    152  CB        12.1540    1.8170  -27.6450 C.3   135  LEU135      0.0270
    153  CG        11.0800    0.7610  -27.9180 C.3   135  LEU135      0.0019
    154  CD1        9.7750    1.4010  -28.1260 C.3   135  LEU135      0.0001
    155  CD2       11.4300   -0.1030  -29.1200 C.3   135  LEU135      0.0001
    156  N          8.5850    1.2980  -22.8790 N.3   145  SER145     -0.1202
    157  CA         7.4760    1.2580  -23.7850 C.3   145  SER145      0.2020
    158  C          6.5140    0.1250  -23.4110 C.2   145  SER145      0.2618
    159  O          6.7850   -0.6800  -22.5110 O.2   145  SER145     -0.2717
    160  CB         7.9910    1.0530  -25.2030 C.3   145  SER145      0.2103
    161  OG         8.2320   -0.3260  -25.4200 O.3   145  SER145     -0.2182
    162  N          5.4240    0.0320  -24.1850 N.am  146  ASP146     -0.1973
    163  CA         4.3570   -0.9490  -24.0520 C.3   146  ASP146      0.1709
    164  C          3.4870   -0.7390  -22.8160 C.2   146  ASP146      0.2293
    165  O          3.6700   -1.3930  -21.7890 O.2   146  ASP146     -0.2864
    166  CB         4.8340   -2.3990  -24.2720 C.3   146  ASP146      0.1436
    167  CG         3.7270   -3.3490  -24.6990 C.2   146  ASP146      0.3671
    168  OD1        2.5380   -3.0140  -24.4960 O.co2 146  ASP146     -0.2456
    169  OD2        4.0450   -4.4040  -25.2750 O.co2 146  ASP146     -0.2456
@<TRIPOS>BOND
     1     1     2    1
     2     7     5    1
     3     2     5    1
     4     2     3    1
     5    25    24    2
     6     5     6    1
     7    93    94   ar
     8    93    91   ar
     9    94    92   ar
    10    24    23    1
    11    91    89   ar
    12    92    90   ar
    13     3     9   am
    14     3     4    2
    15     6     8    1
    16     9    10    1
    17    89    90   ar
    18    89    88    1
    19    12    11    2
    20    22    23    1
    21   108   107    1
    22   108   109    1
    23    23    26    1
    24   106   105    2
    25    88    85    1
    26    10    11    1
    27    11    13   am
    28   107   104    1
    29    30    29    1
    30    30    31    1
    31    30    33    1
    32    31    32    2
    33    36    37    2
    34    36    35    1
    35   111   109   ar
    36   104   105    1
    37   104   103    1
    38    34    35    1
    39   109   110   ar
    40    17    14    1
    41    35    38    1
    42    26    27    1
    43    26    28    1
    44    13    14    1
    45    14    15    1
    46    85    84    1
    47    85    86    1
    48   103    97   am
    49    84    77   am
    50    86    87    2
    51    86    95   am
    52    98    97    2
    53    71    70    2
    54    97    96    1
    55    95    96    1
    56    38    39    1
    57    15    18   am
    58    15    16    2
    59   112   113    1
    60    18    19    1
    61    68    69    1
    62    77    76    1
    63    77    78    2
    64   113   114    1
    65    96    99    1
    66    21    20    2
    67    39    40    1
    68    70    69    1
    69    70    75   am
    70    76    75    1
    71    76    79    1
    72    19    20    1
    73    69    72    1
    74    73    72    1
    75    99   100    1
    76   114   116   am
    77   114   115    2
    78    79    80    1
    79   116   117    1
    80    40    41    1
    81    41    42    1
    82    72    74    1
    83   100   101    1
    84   119   118    2
    85    80    81    1
    86   155   153    1
    87   120   117    1
    88   117   118    1
    89   101   102    1
    90    82    81   ar
    91   154   153    1
    92    81    83   ar
    93   153   152    1
    94   124   123    2
    95   123   122    1
    96   152   149    1
    97   127   126   ar
    98   128   126   ar
    99    66    64    1
   100   149   150    1
   101   149   148    1
   102   150   151    2
   103    50    49   ar
   104   126   125    1
   105    67    65    1
   106   132   131    2
   107   121   122    1
   108   122   125    1
   109    59    58    1
   110    51    49   ar
   111    49    48    1
   112   133   130    1
   113   133   134    1
   114    65    64    1
   115    58    57    1
   116    64    61    1
   117   131   130    1
   118   131   140   am
   119   130   129    1
   120    48    47    1
   121   161   160    1
   122    47    44    1
   123   169   167   ar
   124   160   157    1
   125    62    61    1
   126    62    63    2
   127   146   145    2
   128   135   134    1
   129   135   136    1
   130    61    60    1
   131   167   168   ar
   132   167   166    1
   133    45    44    1
   134    45    46    2
   135   140   141    1
   136   166   163    1
   137   141   142    1
   138   141   144    1
   139    44    43    1
   140   162   163    1
   141   162   158   am
   142   163   164    1
   143    57    56    1
   144   142   143    2
   145   157   158    1
   146   157   156    1
   147    56    53    1
   148   145   144    1
   149   145   147   am
   150   136   137    2
   151   138   137    1
   152   158   159    2
   153   137   139    1
   154   164   165    2
   155    53    54    1
   156    53    52    1
   157    54    55    2
