@<TRIPOS>MOLECULE
tmp/2ynbB00.pdb
 239 235 0 0 0
SMALL
GASTEIGER

@<TRIPOS>ATOM
      1  N        -18.0640   63.1840   16.6620 N.3    25  MET25      -0.1230
      2  CA       -17.3010   61.9290   16.7620 C.3    25  MET25       0.1702
      3  C        -15.9530   62.1030   15.9960 C.2    25  MET25       0.2593
      4  O        -15.9800   62.5270   14.8460 O.2    25  MET25      -0.2718
      5  CB       -18.1720   60.8160   16.1220 C.3    25  MET25       0.0401
      6  CG       -18.0560   59.4450   16.7400 C.3    25  MET25       0.0596
      7  SD       -18.6690   59.2750   18.4490 S.3    25  MET25      -0.1393
      8  CE       -18.9940   57.4850   18.4860 C.3    25  MET25       0.0692
      9  N        -14.7930   61.8340   16.6370 N.am   26  THR26      -0.1939
     10  CA       -13.4690   61.9450   16.0120 C.3    26  THR26       0.2028
     11  C        -12.6910   60.6390   16.2120 C.2    26  THR26       0.2642
     12  O        -12.6600   60.1010   17.3100 O.2    26  THR26      -0.2714
     13  CB       -12.6910   63.1750   16.5460 C.3    26  THR26       0.1808
     14  OG1      -13.3170   64.3510   16.0570 O.3    26  THR26      -0.2208
     15  CG2      -11.2610   63.2130   16.0700 C.3    26  THR26       0.0379
     16  N        -12.1140   60.0980   15.1670 N.am   27  LEU27      -0.1977
     17  CA       -11.2810   58.8980   15.3070 C.3    27  LEU27       0.1596
     18  C        -10.1830   58.9260   14.2460 C.2    27  LEU27       0.2287
     19  O         -9.9900   59.9620   13.6070 O.2    27  LEU27      -0.2864
     20  CB       -12.1070   57.5860   15.3800 C.3    27  LEU27       0.0297
     21  CG       -13.2940   57.4470   14.4440 C.3    27  LEU27       0.0022
     22  CD1      -12.8530   57.5100   13.0280 C.3    27  LEU27       0.0001
     23  CD2      -14.0640   56.1490   14.7290 C.3    27  LEU27       0.0001
     24  N        -18.6470   53.5360   12.4780 N.3    41  HIS41      -0.1241
     25  CA       -19.3250   54.0470   13.6950 C.3    41  HIS41       0.1621
     26  C        -19.0120   55.5160   13.9950 C.2    41  HIS41       0.2264
     27  O        -19.6210   56.0730   14.8900 O.2    41  HIS41      -0.2867
     28  CB       -19.1060   53.1640   14.9390 C.3    41  HIS41       0.0745
     29  CG       -17.6980   53.1200   15.4480 C.ar   41  HIS41       0.0817
     30  ND1      -16.9360   51.9740   15.3630 N.ar   41  HIS41      -0.2268
     31  CD2      -16.9870   54.0620   16.1060 C.ar   41  HIS41       0.1154
     32  CE1      -15.7800   52.2550   15.9440 C.ar   41  HIS41       0.1986
     33  NE2      -15.7420   53.5160   16.3500 N.ar   41  HIS41      -0.2212
     34  N        -22.2140   57.4690   13.9450 N.3    44  CYS44      -0.1235
     35  CA       -23.1810   57.3790   15.0400 C.3    44  CYS44       0.1677
     36  C        -23.1230   58.5630   15.9850 C.2    44  CYS44       0.2270
     37  O        -22.0420   58.8140   16.5280 O.2    44  CYS44      -0.2867
     38  CB       -22.9750   56.0960   15.8470 C.3    44  CYS44       0.0956
     39  SG       -23.0500   54.5700   14.8880 S.3    44  CYS44      -0.0801
     40  N        -25.3910   54.2290   20.0500 N.3    49  LEU49      -0.1245
     41  CA       -24.4150   53.1860   19.7170 C.3    49  LEU49       0.1561
     42  C        -24.9000   51.7460   19.9530 C.2    49  LEU49       0.2260
     43  O        -24.2290   50.8110   19.5050 O.2    49  LEU49      -0.2867
     44  CB       -23.1370   53.4080   20.5410 C.3    49  LEU49       0.0270
     45  CG       -22.5540   54.8220   20.5700 C.3    49  LEU49       0.0019
     46  CD1      -21.3150   54.8990   21.4620 C.3    49  LEU49       0.0001
     47  CD2      -22.2460   55.3170   19.1810 C.3    49  LEU49       0.0001
     48  N        -27.0600   50.7250   15.8720 N.3    52  PRO52      -0.2116
     49  CA       -27.2000   51.7350   14.8200 C.3    52  PRO52       0.1372
     50  C        -27.7520   51.1780   13.5150 C.2    52  PRO52       0.2244
     51  O        -27.4890   50.0290   13.1740 O.2    52  PRO52      -0.2868
     52  CB       -25.7530   52.2380   14.6200 C.3    52  PRO52       0.0268
     53  CG       -24.9850   51.7360   15.7960 C.3    52  PRO52       0.0207
     54  CD       -25.6370   50.4480   16.1400 C.3    52  PRO52       0.0892
     55  N        -26.9110   51.7230   10.1390 N.3    54  TYR54      -0.1241
     56  CA       -25.8720   52.3310    9.3120 C.3    54  TYR54       0.1605
     57  C        -26.3380   52.7510    7.9200 C.2    54  TYR54       0.2264
     58  O        -25.8280   53.7450    7.4070 O.2    54  TYR54      -0.2867
     59  CB       -24.6510   51.4270    9.2240 C.3    54  TYR54       0.0534
     60  CG       -23.9230   51.3410   10.5480 C.ar   54  TYR54      -0.0201
     61  CD1      -23.1590   52.4050   11.0140 C.ar   54  TYR54      -0.0009
     62  CD2      -23.9950   50.1950   11.3330 C.ar   54  TYR54      -0.0009
     63  CE1      -22.5050   52.3450   12.2410 C.ar   54  TYR54       0.0417
     64  CE2      -23.3010   50.1010   12.5380 C.ar   54  TYR54       0.0417
     65  CZ       -22.5520   51.1800   12.9880 C.ar   54  TYR54       0.1957
     66  OH       -21.8810   51.1260   14.1830 O.3    54  TYR54      -0.2866
     67  N         -5.9490   49.2350   24.3400 N.3   143  PHE143     -0.1227
     68  CA        -6.6210   50.3360   23.6550 C.3   143  PHE143      0.1736
     69  C         -7.5750   51.0280   24.5870 C.2   143  PHE143      0.2595
     70  O         -8.2500   50.3660   25.3690 O.2   143  PHE143     -0.2718
     71  CB        -7.4420   49.8100   22.4680 C.3   143  PHE143      0.0547
     72  CG        -6.6900   49.0870   21.3760 C.ar  143  PHE143     -0.0202
     73  CD1       -6.1970   49.7740   20.2780 C.ar  143  PHE143     -0.0042
     74  CD2       -6.6090   47.7000   21.3690 C.ar  143  PHE143     -0.0042
     75  CE1       -5.5550   49.0900   19.2350 C.ar  143  PHE143     -0.0003
     76  CE2       -6.0340   47.0170   20.2940 C.ar  143  PHE143     -0.0003
     77  CZ        -5.5090   47.7150   19.2350 C.ar  143  PHE143     -0.0000
     78  N         -7.6780   52.3560   24.4590 N.am  144  LEU144     -0.1966
     79  CA        -8.5720   53.1740   25.2740 C.3   144  LEU144      0.1728
     80  C         -9.5250   53.9190   24.3290 C.2   144  LEU144      0.2616
     81  O         -9.3950   53.8050   23.1120 O.2   144  LEU144     -0.2715
     82  CB        -7.7220   54.1940   26.0520 C.3   144  LEU144      0.0311
     83  CG        -6.6650   53.6010   27.0020 C.3   144  LEU144      0.0022
     84  CD1       -5.7850   54.6950   27.5770 C.3   144  LEU144      0.0001
     85  CD2       -7.3440   52.7990   28.1390 C.3   144  LEU144      0.0001
     86  N        -10.4720   54.6750   24.8840 N.am  145  CYS145     -0.1954
     87  CA       -11.3950   55.4640   24.0600 C.3   145  CYS145      0.1843
     88  C        -10.6220   56.4180   23.1460 C.2   145  CYS145      0.2626
     89  O         -9.5990   56.9740   23.5410 O.2   145  CYS145     -0.2714
     90  CB       -12.4080   56.2050   24.9290 C.3   145  CYS145      0.0997
     91  SG       -13.6920   55.1300   25.6130 S.3   145  CYS145     -0.0797
     92  N        -11.0740   56.5250   21.9040 N.am  146  GLY146     -0.1940
     93  CA       -10.4090   57.3390   20.8910 C.3   146  GLY146      0.2014
     94  C         -9.3900   56.5830   20.0390 C.2   146  GLY146      0.2640
     95  O         -8.8280   57.1560   19.1020 O.2   146  GLY146     -0.2714
     96  N         -9.1550   55.2840   20.3260 N.am  147  SER147     -0.1935
     97  CA        -8.1950   54.4750   19.5750 C.3   147  SER147      0.2055
     98  C         -8.7790   53.8520   18.3100 C.2   147  SER147      0.2643
     99  O         -8.0320   53.1920   17.5690 O.2   147  SER147     -0.2714
    100  CB        -7.6330   53.3710   20.4640 C.3   147  SER147      0.2130
    101  OG        -8.6380   52.4580   20.8690 O.3   147  SER147     -0.2179
    102  N        -10.0840   54.0260   18.0240 N.am  148  CYS148     -0.1967
    103  CA       -10.5990   53.3530   16.8140 C.3   148  CYS148      0.1712
    104  C        -10.0320   53.9380   15.5540 C.2   148  CYS148      0.2296
    105  O         -9.6150   55.0980   15.5350 O.2   148  CYS148     -0.2864
    106  CB       -12.1140   53.2790   16.7980 C.3   148  CYS148      0.0983
    107  SG       -12.7700   52.2250   18.1120 S.3   148  CYS148     -0.0798
    108  N         -8.7670   48.9750   14.0330 N.3   166  HIS166     -0.1226
    109  CA        -9.3970   48.8060   15.3440 C.3   166  HIS166      0.1752
    110  C        -10.8230   49.3200   15.4190 C.2   166  HIS166      0.2596
    111  O        -11.1040   50.4330   14.9830 O.2   166  HIS166     -0.2718
    112  CB        -8.5760   49.4820   16.4400 C.3   166  HIS166      0.0759
    113  CG        -9.0850   49.1330   17.8040 C.ar  166  HIS166      0.0818
    114  ND1       -9.2440   47.8080   18.2060 N.ar  166  HIS166     -0.2268
    115  CD2       -9.4820   49.9410   18.7990 C.ar  166  HIS166      0.1154
    116  CE1       -9.7610   47.8700   19.4230 C.ar  166  HIS166      0.1986
    117  NE2       -9.8940   49.1260   19.8300 N.ar  166  HIS166     -0.2212
    118  N        -11.7150   48.5130   16.0020 N.am  167  GLN167     -0.1965
    119  CA       -13.1440   48.8510   16.1080 C.3   167  GLN167      0.1733
    120  C        -13.6650   48.8540   17.5220 C.2   167  GLN167      0.2616
    121  O        -14.4040   49.7680   17.8600 O.2   167  GLN167     -0.2715
    122  CB       -13.9920   47.8580   15.2910 C.3   167  GLN167      0.0408
    123  CG       -13.7040   47.9150   13.7630 C.3   167  GLN167      0.0908
    124  CD       -14.6000   48.8260   12.9860 C.2   167  GLN167      0.2608
    125  OE1      -15.6120   49.3480   13.4820 O.2   167  GLN167     -0.2717
    126  NE2      -14.2760   48.9810   11.7210 N.am  167  GLN167     -0.0878
    127  N        -13.3940   47.8140   18.3310 N.am  168  MET168     -0.1963
    128  CA       -14.0360   47.7570   19.6360 C.3   168  MET168      0.1736
    129  C        -13.3650   46.8790   20.6610 C.2   168  MET168      0.2616
    130  O        -12.4690   46.0900   20.3480 O.2   168  MET168     -0.2715
    131  CB       -15.5160   47.3060   19.4580 C.3   168  MET168      0.0427
    132  CG       -15.7030   45.9950   18.7260 C.3   168  MET168      0.0599
    133  SD       -17.3580   45.8900   17.9200 S.3   168  MET168     -0.1393
    134  CE       -18.4030   46.0000   19.3250 C.3   168  MET168      0.0692
    135  N        -13.7950   47.0670   21.9150 N.am  169  GLU169     -0.1963
    136  CA       -13.3580   46.2670   23.0470 C.3   169  GLU169      0.1733
    137  C        -14.5210   45.3870   23.4200 C.2   169  GLU169      0.2616
    138  O        -15.6100   45.8870   23.6600 O.2   169  GLU169     -0.2715
    139  CB       -12.9460   47.1370   24.2340 C.3   169  GLU169      0.0429
    140  CG       -12.4100   46.3250   25.3910 C.3   169  GLU169      0.1163
    141  CD       -11.5840   47.1280   26.3660 C.2   169  GLU169      0.3649
    142  OE1      -10.5370   47.6900   25.9710 O.co2 169  GLU169     -0.2457
    143  OE2      -11.9120   47.0630   27.5650 O.co2 169  GLU169     -0.2457
    144  N        -14.2940   44.0850   23.4570 N.am  170  LEU170     -0.1963
    145  CA       -15.3400   43.0940   23.7240 C.3   170  LEU170      0.1728
    146  C        -15.4780   42.8090   25.1950 C.2   170  LEU170      0.2616
    147  O        -16.5750   42.5580   25.6700 O.2   170  LEU170     -0.2715
    148  CB       -14.9830   41.8050   22.9620 C.3   170  LEU170      0.0311
    149  CG       -14.7590   42.0140   21.4450 C.3   170  LEU170      0.0022
    150  CD1      -14.3550   40.7330   20.7780 C.3   170  LEU170      0.0001
    151  CD2      -16.0020   42.5720   20.7720 C.3   170  LEU170      0.0001
    152  N        -14.3630   42.7900   25.9070 N.am  171  SER171     -0.1950
    153  CA       -14.3190   42.5220   27.3390 C.3   171  SER171      0.1924
    154  C        -12.9260   42.9370   27.7890 C.2   171  SER171      0.2314
    155  O        -12.1300   43.3780   26.9560 O.2   171  SER171     -0.2863
    156  CB       -14.5620   41.0370   27.6110 C.3   171  SER171      0.2116
    157  OG       -13.6300   40.2380   26.8970 O.3   171  SER171     -0.2180
    158  N        -10.0700   42.6350   22.2300 N.3   175  HIS175     -0.1241
    159  CA       -10.3950   43.6040   21.2010 C.3   175  HIS175      0.1621
    160  C        -10.6740   42.9970   19.8640 C.2   175  HIS175      0.2264
    161  O        -10.2020   41.8970   19.5820 O.2   175  HIS175     -0.2867
    162  CB        -9.1510   44.5270   21.0750 C.3   175  HIS175      0.0745
    163  CG        -8.8400   45.2280   22.3750 C.ar  175  HIS175      0.0817
    164  ND1       -7.7960   44.8020   23.1910 N.ar  175  HIS175     -0.2268
    165  CD2       -9.5240   46.2040   23.0190 C.ar  175  HIS175      0.1154
    166  CE1       -7.8400   45.5680   24.2730 C.ar  175  HIS175      0.1986
    167  NE2       -8.8610   46.4320   24.2130 N.ar  175  HIS175     -0.2212
    168  N        -17.9190   39.7960   14.6940 N.3   188  PHE188     -0.1241
    169  CA       -18.6030   40.5940   15.7050 C.3   188  PHE188      0.1605
    170  C        -19.2410   41.7560   14.9940 C.2   188  PHE188      0.2264
    171  O        -18.7030   42.2280   13.9930 O.2   188  PHE188     -0.2867
    172  CB       -17.6190   41.1000   16.7770 C.3   188  PHE188      0.0534
    173  CG       -17.0640   39.9740   17.6060 C.ar  188  PHE188     -0.0203
    174  CD1      -17.8090   39.4230   18.6390 C.ar  188  PHE188     -0.0042
    175  CD2      -15.8100   39.4520   17.3410 C.ar  188  PHE188     -0.0042
    176  CE1      -17.2980   38.3890   19.4070 C.ar  188  PHE188     -0.0003
    177  CE2      -15.3050   38.4020   18.0930 C.ar  188  PHE188     -0.0003
    178  CZ       -16.0520   37.8750   19.1180 C.ar  188  PHE188     -0.0000
    179  N        -20.6080   45.6450   14.7330 N.3   190  ASP190     -0.1225
    180  CA       -20.2490   46.9480   15.2770 C.3   190  ASP190      0.1805
    181  C        -21.4920   47.5880   15.8970 C.2   190  ASP190      0.2598
    182  O        -22.0450   48.5550   15.3790 O.2   190  ASP190     -0.2718
    183  CB       -19.5600   47.8430   14.2290 C.3   190  ASP190      0.1424
    184  CG       -20.3190   48.0760   12.9390 C.2   190  ASP190      0.3668
    185  OD1      -21.3030   47.3230   12.6730 O.co2 190  ASP190     -0.2456
    186  OD2      -19.9380   49.0010   12.1890 O.co2 190  ASP190     -0.2456
    187  N        -21.9130   47.0250   17.0350 N.am  191  LYS191     -0.1966
    188  CA       -23.0140   47.5410   17.8400 C.3   191  LYS191      0.1728
    189  C        -22.7020   47.2120   19.2990 C.2   191  LYS191      0.2616
    190  O        -22.0330   46.2110   19.5700 O.2   191  LYS191     -0.2715
    191  CB       -24.3800   46.9860   17.3850 C.3   191  LYS191      0.0311
    192  CG       -24.5210   45.4700   17.3610 C.3   191  LYS191      0.0038
    193  CD       -25.9650   45.1130   17.0110 C.3   191  LYS191      0.0206
    194  CE       -26.1750   43.6790   16.5960 C.3   191  LYS191      0.1093
    195  NZ       -27.2940   43.5450   15.6130 N.3   191  LYS191     -0.1314
    196  N        -23.1370   48.0720   20.2210 N.am  192  GLN192     -0.1963
    197  CA       -22.9160   47.8510   21.6520 C.3   192  GLN192      0.1733
    198  C        -23.9980   46.9910   22.2520 C.2   192  GLN192      0.2617
    199  O        -24.8220   47.4680   23.0330 O.2   192  GLN192     -0.2715
    200  CB       -22.8010   49.1750   22.4120 C.3   192  GLN192      0.0408
    201  CG       -21.7360   50.0480   21.8110 C.3   192  GLN192      0.0908
    202  CD       -21.0470   51.0440   22.6900 C.2   192  GLN192      0.2608
    203  OE1      -19.9150   51.4040   22.3820 O.2   192  GLN192     -0.2717
    204  NE2      -21.6230   51.6160   23.7440 N.am  192  GLN192     -0.0878
    205  N        -24.0330   45.7370   21.8280 N.am  193  THR193     -0.1937
    206  CA       -24.9650   44.7330   22.3110 C.3   193  THR193      0.2028
    207  C        -24.0690   43.5660   22.6820 C.2   193  THR193      0.2642
    208  O        -23.0620   43.3540   22.0030 O.2   193  THR193     -0.2714
    209  CB       -25.9970   44.3980   21.2250 C.3   193  THR193      0.1808
    210  OG1      -26.6660   45.6060   20.8510 O.3   193  THR193     -0.2208
    211  CG2      -27.0090   43.3580   21.6850 C.3   193  THR193      0.0379
    212  N        -24.4250   42.8110   23.7380 N.am  194  HIS194     -0.1959
    213  CA       -23.5980   41.7020   24.1680 C.3   194  HIS194      0.1787
    214  C        -23.6000   40.6470   23.0810 C.2   194  HIS194      0.2620
    215  O        -24.6460   40.3430   22.5050 O.2   194  HIS194     -0.2715
    216  CB       -24.0970   41.0850   25.4910 C.3   194  HIS194      0.0785
    217  CG       -23.1700   40.0290   26.0050 C.ar  194  HIS194      0.0821
    218  ND1      -21.9230   40.3540   26.5100 N.ar  194  HIS194     -0.2267
    219  CD2      -23.3090   38.6810   26.0110 C.ar  194  HIS194      0.1154
    220  CE1      -21.3570   39.2040   26.8370 C.ar  194  HIS194      0.1986
    221  NE2      -22.1570   38.1690   26.5550 N.ar  194  HIS194     -0.2212
    222  N        -22.4120   40.1780   22.7310 N.am  195  GLN195     -0.1977
    223  CA       -22.2230   39.1040   21.7710 C.3   195  GLN195      0.1601
    224  C        -21.2010   38.2000   22.4270 C.2   195  GLN195      0.2287
    225  O        -20.3230   38.6620   23.1410 O.2   195  GLN195     -0.2864
    226  CB       -21.7520   39.6000   20.3940 C.3   195  GLN195      0.0394
    227  CG       -22.6860   40.6150   19.7100 C.3   195  GLN195      0.0908
    228  CD       -21.8980   41.4960   18.7580 C.2   195  GLN195      0.2608
    229  OE1      -21.2980   41.0050   17.7900 O.2   195  GLN195     -0.2717
    230  NE2      -21.8260   42.8020   19.0260 N.am  195  GLN195     -0.0878
    231  N        -18.0730   35.7150   22.8130 N.3   197  GLN197     -0.1245
    232  CA       -16.7910   35.4060   22.1820 C.3   197  GLN197      0.1566
    233  C        -16.6720   33.8980   22.2930 C.2   197  GLN197      0.2260
    234  O        -17.0000   33.3470   23.3490 O.2   197  GLN197     -0.2867
    235  CB       -15.5900   36.0250   22.9150 C.3   197  GLN197      0.0367
    236  CG       -15.6780   37.5180   23.1850 C.3   197  GLN197      0.0905
    237  CD       -14.7580   37.9680   24.3000 C.2   197  GLN197      0.2608
    238  OE1      -15.0860   38.8900   25.0420 O.2   197  GLN197     -0.2717
    239  NE2      -13.5760   37.3700   24.4500 N.am  197  GLN197     -0.0878
@<TRIPOS>BOND
     1    58    57    2
     2    57    56    1
     3    59    56    1
     4    59    60    1
     5    56    55    1
     6    60    61   ar
     7    60    62   ar
     8    61    63   ar
     9    62    64   ar
    10   126   124   am
    11   186   184   ar
    12    63    65   ar
    13    24    25    1
    14    64    65   ar
    15   185   184   ar
    16   184   183    1
    17   124   125    2
    18   124   123    1
    19    65    66    1
    20    22    21    1
    21    51    50    2
    22    50    49    1
    23    19    18    2
    24    25    26    1
    25    25    28    1
    26   123   122    1
    27    34    35    1
    28   171   170    2
    29    26    27    2
    30   108   109    1
    31   183   180    1
    32    18    17    1
    33    21    23    1
    34    21    20    1
    35    52    49    1
    36    52    53    1
    37   168   169    1
    38   179   180    1
    39    49    48    1
    40     4     3    2
    41    39    38    1
    42    28    29    1
    43   111   110    2
    44   170   169    1
    45    35    38    1
    46    35    36    1
    47    16    17    1
    48    16    11   am
    49   180   181    1
    50   122   119    1
    51    17    20    1
    52   109   110    1
    53   109   112    1
    54    30    29   ar
    55    30    32   ar
    56   182   181    2
    57   110   118   am
    58    29    31   ar
    59   105   104    2
    60   104   103    1
    61   195   194    1
    62   169   172    1
    63    53    54    1
    64    48    54    1
    65   181   187   am
    66    32    33   ar
    67    36    37    2
    68     3     9   am
    69     3     2    1
    70   118   119    1
    71    10    11    1
    72    10    13    1
    73    10     9    1
    74    14    13    1
    75    15    13    1
    76    31    33   ar
    77   119   120    1
    78     5     6    1
    79     5     2    1
    80    11    12    2
    81   112   113    1
    82   194   193    1
    83     1     2    1
    84     6     7    1
    85   172   173    1
    86   106   103    1
    87   106   107    1
    88   103   102    1
    89   193   192    1
    90   187   188    1
    91   175   173   ar
    92   175   177   ar
    93   192   191    1
    94   191   188    1
    95   120   121    2
    96   120   127   am
    97    99    98    2
    98   173   174   ar
    99   229   228    2
   100   113   114   ar
   101   113   115   ar
   102   188   189    1
   103   133   132    1
   104   133   134    1
   105   102    98   am
   106   177   178   ar
   107   114   116   ar
   108    98    97    1
   109   127   128    1
   110     7     8    1
   111   174   176   ar
   112   132   131    1
   113   228   230   am
   114   228   227    1
   115   115   117   ar
   116    95    94    2
   117   178   176   ar
   118    47    45    1
   119    77    75   ar
   120    77    76   ar
   121    75    73   ar
   122   189   190    2
   123   189   196   am
   124   116   117   ar
   125   131   128    1
   126    43    42    2
   127    97    96    1
   128    97   100    1
   129   161   160    2
   130   128   129    1
   131   227   226    1
   132    41    42    1
   133    41    40    1
   134    41    44    1
   135   160   159    1
   136    94    96   am
   137    94    93    1
   138   196   197    1
   139    73    72   ar
   140    76    74   ar
   141   130   129    2
   142   226   223    1
   143   100   101    1
   144    44    45    1
   145    45    46    1
   146   129   135   am
   147   151   149    1
   148   150   149    1
   149   210   209    1
   150    93    92    1
   151   162   159    1
   152   162   163    1
   153   159   158    1
   154   209   211    1
   155   209   206    1
   156    74    72   ar
   157    72    71    1
   158   149   148    1
   159   197   198    1
   160   197   200    1
   161   223   224    1
   162   223   222    1
   163   201   200    1
   164   201   202    1
   165   205   198   am
   166   205   206    1
   167    92    88   am
   168   135   136    1
   169   208   207    2
   170   232   233    1
   171   232   231    1
   172   232   235    1
   173   198   199    2
   174   233   234    2
   175   206   207    1
   176   163   165   ar
   177   163   164   ar
   178   203   202    2
   179   224   225    2
   180    71    68    1
   181   215   214    2
   182   207   212   am
   183   202   204   am
   184   222   214   am
   185   235   236    1
   186   148   145    1
   187   165   167   ar
   188   136   137    1
   189   136   139    1
   190   214   213    1
   191    81    80    2
   192    88    89    2
   193    88    87    1
   194   236   237    1
   195   164   166   ar
   196   137   144   am
   197   137   138    2
   198   144   145    1
   199    68    67    1
   200    68    69    1
   201   145   146    1
   202   212   213    1
   203    87    86    1
   204    87    90    1
   205   213   216    1
   206   167   166   ar
   207   139   140    1
   208   237   239   am
   209   237   238    2
   210    80    86   am
   211    80    79    1
   212    78    69   am
   213    78    79    1
   214    69    70    2
   215    90    91    1
   216   146   147    2
   217   146   152   am
   218    79    82    1
   219   140   141    1
   220   216   217    1
   221   152   153    1
   222   142   141   ar
   223   217   219   ar
   224   217   218   ar
   225   219   221   ar
   226    82    83    1
   227   141   143   ar
   228   218   220   ar
   229   221   220   ar
   230   157   156    1
   231   155   154    2
   232    83    84    1
   233    83    85    1
   234   153   156    1
   235   153   154    1
