@<TRIPOS>MOLECULE
tmp/2yndC01.pdb
 246 239 0 0 0
SMALL
GASTEIGER

@<TRIPOS>ATOM
      1  N        -11.0570   78.9570    2.4720 N.3    69  TYR69      -0.1227
      2  CA       -10.8600   77.7140    1.6950 C.3    69  TYR69       0.1736
      3  C        -10.4360   76.4990    2.5880 C.2    69  TYR69       0.2595
      4  O        -10.5760   76.5430    3.8090 O.2    69  TYR69      -0.2718
      5  CB        -9.8730   77.9590    0.5570 C.3    69  TYR69       0.0548
      6  CG       -10.0720   77.0080   -0.6330 C.ar   69  TYR69      -0.0200
      7  CD1      -11.3520   76.8260   -1.2270 C.ar   69  TYR69      -0.0009
      8  CD2       -8.9970   76.3060   -1.1560 C.ar   69  TYR69      -0.0009
      9  CE1      -11.5140   75.9440   -2.2930 C.ar   69  TYR69       0.0417
     10  CE2       -9.1470   75.4680   -2.2560 C.ar   69  TYR69       0.0417
     11  CZ       -10.4120   75.2690   -2.8110 C.ar   69  TYR69       0.1957
     12  OH       -10.5530   74.4450   -3.9440 O.3    69  TYR69      -0.2866
     13  N         -9.9370   75.4230    1.9660 N.am   70  VAL70      -0.1966
     14  CA        -9.6510   74.1180    2.6690 C.3    70  VAL70       0.1727
     15  C         -8.7600   74.2740    3.8950 C.2    70  VAL70       0.2616
     16  O         -7.6640   74.8270    3.7860 O.2    70  VAL70      -0.2715
     17  CB        -8.9930   73.0990    1.6930 C.3    70  VAL70       0.0290
     18  CG1       -8.8540   71.6810    2.2860 C.3    70  VAL70       0.0023
     19  CG2       -9.7420   73.0820    0.3960 C.3    70  VAL70       0.0023
     20  N         -9.2270   73.7890    5.0450 N.am   71  GLU71      -0.1963
     21  CA        -8.3080   73.5650    6.1880 C.3    71  GLU71       0.1733
     22  C         -8.0640   72.0870    6.4350 C.2    71  GLU71       0.2616
     23  O         -8.8800   71.2630    6.0260 O.2    71  GLU71      -0.2715
     24  CB        -8.8480   74.2090    7.4390 C.3    71  GLU71       0.0429
     25  CG        -9.2670   75.6930    7.2400 C.3    71  GLU71       0.1163
     26  CD        -9.7110   76.2530    8.5640 C.2    71  GLU71       0.3649
     27  OE1       -9.7030   75.4300    9.5290 O.co2  71  GLU71      -0.2457
     28  OE2      -10.1100   77.4420    8.6260 O.co2  71  GLU71      -0.2457
     29  N         -6.9510   71.7320    7.0850 N.am   72  ASP72      -0.1957
     30  CA        -6.7490   70.3500    7.6280 C.3    72  ASP72       0.1840
     31  C         -7.7930   70.0910    8.7400 C.2    72  ASP72       0.2622
     32  O         -8.3440   71.0730    9.3060 O.2    72  ASP72      -0.2715
     33  CB        -5.3570   70.2770    8.2140 C.3    72  ASP72       0.1450
     34  CG        -5.2220   71.1370    9.4290 C.2    72  ASP72       0.3671
     35  OD1       -5.3370   72.3870    9.3440 O.co2  72  ASP72      -0.2456
     36  OD2       -5.0380   70.5530   10.5150 O.co2  72  ASP72      -0.2456
     37  N         -8.0780   68.8280    9.0880 N.am   73  ASP73      -0.1971
     38  CA        -9.1330   68.6100   10.1550 C.3    73  ASP73       0.1709
     39  C         -8.7980   69.1490   11.5170 C.2    73  ASP73       0.2293
     40  O         -9.6950   69.3950   12.3000 O.2    73  ASP73      -0.2864
     41  CB        -9.6520   67.1710   10.3440 C.3    73  ASP73       0.1436
     42  CG        -9.1470   66.2250    9.3130 C.2    73  ASP73       0.3671
     43  OD1       -7.9420   65.9840    9.3480 O.co2  73  ASP73      -0.2456
     44  OD2       -9.9200   65.7190    8.4890 O.co2  73  ASP73      -0.2456
     45  N         -3.9110   74.7190    9.6290 N.3    77  PHE77      -0.1227
     46  CA        -3.5390   75.3460    8.3100 C.3    77  PHE77       0.1736
     47  C         -4.7360   75.6060    7.3800 C.2    77  PHE77       0.2595
     48  O         -5.7440   74.9120    7.4700 O.2    77  PHE77      -0.2718
     49  CB        -2.6470   74.4260    7.5080 C.3    77  PHE77       0.0547
     50  CG        -1.4380   73.9190    8.2340 C.ar   77  PHE77      -0.0202
     51  CD1       -0.4010   74.7490    8.5410 C.ar   77  PHE77      -0.0042
     52  CD2       -1.3390   72.5620    8.5270 C.ar   77  PHE77      -0.0042
     53  CE1        0.7290   74.2510    9.1840 C.ar   77  PHE77      -0.0003
     54  CE2       -0.2140   72.0510    9.1670 C.ar   77  PHE77      -0.0003
     55  CZ         0.8130   72.9020    9.4900 C.ar   77  PHE77      -0.0000
     56  N         -4.5780   76.5680    6.4570 N.am   78  ARG78      -0.1966
     57  CA        -5.5870   76.9040    5.4500 C.3    78  ARG78       0.1729
     58  C         -4.8720   77.2680    4.1410 C.2    78  ARG78       0.2616
     59  O         -3.9410   78.0600    4.1620 O.2    78  ARG78      -0.2715
     60  CB        -6.4310   78.0950    5.8800 C.3    78  ARG78       0.0348
     61  CG        -7.7180   78.2920    5.0460 C.3    78  ARG78       0.0492
     62  CD        -8.3930   79.6150    5.3890 C.3    78  ARG78       0.2205
     63  NE        -8.7290   79.5690    6.7720 N.pl3  78  ARG78      -0.0865
     64  CZ        -8.6430   80.5330    7.6650 C.cat  78  ARG78       0.5346
     65  NH1       -8.2030   81.7650    7.4090 N.pl3  78  ARG78       0.1354
     66  NH2       -9.0030   80.1950    8.8820 N.pl3  78  ARG78       0.1354
     67  N         -5.2310   76.6160    3.0480 N.am   79  PHE79      -0.1974
     68  CA        -4.5630   76.9300    1.7340 C.3    79  PHE79       0.1639
     69  C         -4.7040   78.3690    1.3820 C.2    79  PHE79       0.2290
     70  O         -5.7630   78.9740    1.5420 O.2    79  PHE79      -0.2864
     71  CB        -5.1310   76.0870    0.5570 C.3    79  PHE79       0.0560
     72  CG        -4.8600   74.6090    0.6620 C.ar   79  PHE79      -0.0200
     73  CD1       -3.6220   74.1310    1.0320 C.ar   79  PHE79      -0.0042
     74  CD2       -5.8610   73.6910    0.3700 C.ar   79  PHE79      -0.0042
     75  CE1       -3.3740   72.7620    1.1330 C.ar   79  PHE79      -0.0003
     76  CE2       -5.6130   72.3080    0.4480 C.ar   79  PHE79      -0.0003
     77  CZ        -4.3670   71.8590    0.8460 C.ar   79  PHE79      -0.0000
     78  N         -3.7720   79.9860   -1.8590 N.3    81  TYR81      -0.1241
     79  CA        -3.4750   80.3270   -3.2680 C.3    81  TYR81       0.1605
     80  C         -3.2890   81.8130   -3.4820 C.2    81  TYR81       0.2264
     81  O         -4.1760   82.6140   -3.1020 O.2    81  TYR81      -0.2867
     82  CB        -4.6460   79.8740   -4.1710 C.3    81  TYR81       0.0534
     83  CG        -4.8730   78.3860   -4.2340 C.ar   81  TYR81      -0.0201
     84  CD1       -5.7160   77.7440   -3.3200 C.ar   81  TYR81      -0.0009
     85  CD2       -4.2860   77.6080   -5.2410 C.ar   81  TYR81      -0.0009
     86  CE1       -5.9460   76.3640   -3.4040 C.ar   81  TYR81       0.0417
     87  CE2       -4.4790   76.2360   -5.3020 C.ar   81  TYR81       0.0417
     88  CZ        -5.3480   75.6200   -4.3980 C.ar   81  TYR81       0.1957
     89  OH        -5.5960   74.2380   -4.4530 O.3    81  TYR81      -0.2866
     90  N        -12.8950   73.6670   -9.9840 N.3   135  ASN135     -0.1240
     91  CA       -11.9750   73.9190   -8.8700 C.3   135  ASN135      0.1653
     92  C        -12.3660   75.1440   -8.0650 C.2   135  ASN135      0.2266
     93  O        -13.1360   75.9850   -8.5500 O.2   135  ASN135     -0.2867
     94  CB       -10.5310   74.0900   -9.4010 C.3   135  ASN135      0.1155
     95  CG        -9.5000   73.6590   -8.3980 C.2   135  ASN135      0.2627
     96  OD1       -9.7940   73.4870   -7.1720 O.2   135  ASN135     -0.2716
     97  ND2       -8.2730   73.4260   -8.8940 N.am  135  ASN135     -0.0877
     98  N        -11.4400   67.0650   -8.0580 N.3   171  THR171     -0.1203
     99  CA       -10.8030   66.3120   -6.9280 C.3   171  THR171      0.1994
    100  C        -11.2830   66.8810   -5.6200 C.2   171  THR171      0.2618
    101  O        -11.7020   68.0410   -5.5620 O.2   171  THR171     -0.2717
    102  CB        -9.2370   66.3390   -6.9640 C.3   171  THR171      0.1784
    103  OG1       -8.7880   67.6860   -6.8690 O.3   171  THR171     -0.2211
    104  CG2       -8.7170   65.7250   -8.2930 C.3   171  THR171      0.0376
    105  N        -11.2880   66.0690   -4.5650 N.am  172  ALA172     -0.1965
    106  CA       -11.5950   66.5810   -3.2330 C.3   172  ALA172      0.1728
    107  C        -10.9570   65.6710   -2.2170 C.2   172  ALA172      0.2616
    108  O        -10.7060   64.4880   -2.4840 O.2   172  ALA172     -0.2715
    109  CB       -13.0960   66.6050   -2.9900 C.3   172  ALA172      0.0334
    110  N        -10.7380   66.1940   -1.0270 N.am  173  GLY173     -0.1955
    111  CA       -10.3030   65.3720    0.1120 C.3   173  GLY173      0.1869
    112  C        -11.4400   64.5410    0.7280 C.2   173  GLY173      0.2309
    113  O        -11.2100   63.4540    1.2270 O.2   173  GLY173     -0.2863
    114  N         -1.3530   61.3690   -0.2120 N.3   185  TYR185     -0.1241
    115  CA        -0.3670   62.4560   -0.2230 C.3   185  TYR185      0.1605
    116  C          0.8530   62.0690    0.5850 C.2   185  TYR185      0.2264
    117  O          0.7200   61.4490    1.6800 O.2   185  TYR185     -0.2867
    118  CB        -0.9710   63.7050    0.4730 C.3   185  TYR185      0.0534
    119  CG        -1.3650   64.8070   -0.5130 C.ar  185  TYR185     -0.0201
    120  CD1       -0.3890   65.3950   -1.3680 C.ar  185  TYR185     -0.0009
    121  CD2       -2.7010   65.2450   -0.6280 C.ar  185  TYR185     -0.0009
    122  CE1       -0.7200   66.3940   -2.3030 C.ar  185  TYR185      0.0417
    123  CE2       -3.0320   66.2590   -1.5630 C.ar  185  TYR185      0.0417
    124  CZ        -2.0240   66.8300   -2.3920 C.ar  185  TYR185      0.1957
    125  OH        -2.3180   67.8160   -3.2920 O.3   185  TYR185     -0.2866
    126  N          4.8970   63.7700    1.7270 N.3   187  HIS187     -0.1241
    127  CA         5.5950   65.0230    1.9380 C.3   187  HIS187      0.1621
    128  C          7.0880   64.7550    2.1810 C.2   187  HIS187      0.2264
    129  O          7.4160   63.8090    2.8770 O.2   187  HIS187     -0.2867
    130  CB         4.9540   65.7130    3.1460 C.3   187  HIS187      0.0745
    131  CG         3.4710   65.4840    3.2520 C.ar  187  HIS187      0.0817
    132  ND1        2.5590   66.1890    2.5010 N.ar  187  HIS187     -0.2268
    133  CD2        2.7440   64.6090    3.9920 C.ar  187  HIS187      0.1154
    134  CE1        1.3380   65.7650    2.7730 C.ar  187  HIS187      0.1986
    135  NE2        1.4170   64.8360    3.7030 N.ar  187  HIS187     -0.2212
    136  N          3.5110   70.3100   11.5220 N.3   200  PHE200     -0.1241
    137  CA         3.1240   69.8410   10.1860 C.3   200  PHE200      0.1605
    138  C          3.0060   68.3030   10.1490 C.2   200  PHE200      0.2264
    139  O          3.9690   67.6540   10.5170 O.2   200  PHE200     -0.2867
    140  CB         4.1730   70.3220    9.1740 C.3   200  PHE200      0.0534
    141  CG         3.9630   69.7880    7.7940 C.ar  200  PHE200     -0.0203
    142  CD1        3.0170   70.3790    6.9310 C.ar  200  PHE200     -0.0042
    143  CD2        4.7010   68.6990    7.3390 C.ar  200  PHE200     -0.0042
    144  CE1        2.8070   69.8830    5.6330 C.ar  200  PHE200     -0.0003
    145  CE2        4.4970   68.2050    6.0480 C.ar  200  PHE200     -0.0003
    146  CZ         3.5520   68.7970    5.1940 C.ar  200  PHE200     -0.0000
    147  N          4.3640   73.3760   -8.5420 N.3   273  TYR273     -0.1241
    148  CA         3.6450   74.6340   -8.4240 C.3   273  TYR273      0.1605
    149  C          3.7110   75.0900   -6.9860 C.2   273  TYR273      0.2264
    150  O          3.9020   74.2620   -6.0970 O.2   273  TYR273     -0.2867
    151  CB         2.1840   74.6000   -8.8990 C.3   273  TYR273      0.0534
    152  CG         1.2200   73.5530   -8.2790 C.ar  273  TYR273     -0.0201
    153  CD1        0.5530   73.8150   -7.0490 C.ar  273  TYR273     -0.0009
    154  CD2        1.0040   72.3180   -8.8980 C.ar  273  TYR273     -0.0009
    155  CE1       -0.3040   72.9110   -6.4760 C.ar  273  TYR273      0.0417
    156  CE2        0.1370   71.3760   -8.3250 C.ar  273  TYR273      0.0417
    157  CZ        -0.5370   71.6900   -7.1310 C.ar  273  TYR273      0.1957
    158  OH        -1.3790   70.7750   -6.5250 O.3   273  TYR273     -0.2866
    159  N          1.9650   76.5260   -3.6870 N.3   275  LEU275     -0.1245
    160  CA         0.6780   76.6900   -3.0070 C.3   275  LEU275      0.1561
    161  C          1.0270   76.7980   -1.5140 C.2   275  LEU275      0.2260
    162  O          1.2450   75.7690   -0.8290 O.2   275  LEU275     -0.2867
    163  CB        -0.3180   75.5100   -3.2910 C.3   275  LEU275      0.0270
    164  CG        -1.5190   75.3270   -2.2990 C.3   275  LEU275      0.0019
    165  CD1       -2.3090   76.6690   -2.1100 C.3   275  LEU275      0.0001
    166  CD2       -2.4110   74.1370   -2.6730 C.3   275  LEU275      0.0001
    167  N          0.3920   77.7190    2.6210 N.3   277  SER277     -0.1217
    168  CA        -0.7360   77.4950    3.5220 C.3   277  SER277      0.1889
    169  C         -0.5920   78.4780    4.6240 C.2   277  SER277      0.2288
    170  O          0.5520   78.7870    5.0630 O.2   277  SER277     -0.2866
    171  CB        -0.7560   76.1130    4.1610 C.3   277  SER277      0.2089
    172  OG        -1.3370   75.1970    3.2820 O.3   277  SER277     -0.2183
    173  N          3.3570   78.6640    5.5360 N.3   288  LEU288     -0.1245
    174  CA         4.1480   77.5200    5.1360 C.3   288  LEU288      0.1561
    175  C          4.3260   77.5510    3.5930 C.2   288  LEU288      0.2260
    176  O          3.3440   77.5320    2.8070 O.2   288  LEU288     -0.2867
    177  CB         3.4510   76.2560    5.5380 C.3   288  LEU288      0.0270
    178  CG         3.9940   74.9290    4.9240 C.3   288  LEU288      0.0019
    179  CD1        5.3600   74.6820    5.4780 C.3   288  LEU288      0.0001
    180  CD2        3.0760   73.7210    5.1660 C.3   288  LEU288      0.0001
    181  N          4.5220   71.7260   -4.8310 N.3   292  TYR292     -0.1241
    182  CA         3.7360   70.5070   -5.0930 C.3   292  TYR292      0.1605
    183  C          4.1450   69.9350   -6.4170 C.2   292  TYR292      0.2264
    184  O          4.0370   70.6460   -7.4310 O.2   292  TYR292     -0.2867
    185  CB         2.2540   70.9060   -5.2220 C.3   292  TYR292      0.0534
    186  CG         1.5500   71.1270   -3.8960 C.ar  292  TYR292     -0.0201
    187  CD1        1.7270   72.3180   -3.1770 C.ar  292  TYR292     -0.0009
    188  CD2        0.6960   70.1610   -3.3800 C.ar  292  TYR292     -0.0009
    189  CE1        1.1260   72.5240   -1.9370 C.ar  292  TYR292      0.0417
    190  CE2        0.0620   70.3460   -2.1400 C.ar  292  TYR292      0.0417
    191  CZ         0.2810   71.5360   -1.4440 C.ar  292  TYR292      0.1957
    192  OH        -0.3690   71.7890   -0.2830 O.3   292  TYR292     -0.2866
    193  N          5.5500   68.3980   -1.5760 N.3   323  ASN323     -0.1240
    194  CA         4.4450   67.4050   -1.6170 C.3   323  ASN323      0.1653
    195  C          4.2600   66.6950   -2.9480 C.2   323  ASN323      0.2266
    196  O          4.4130   67.3420   -3.9930 O.2   323  ASN323     -0.2867
    197  CB         3.1900   68.1700   -1.3290 C.3   323  ASN323      0.1155
    198  CG         3.2870   68.8970    0.0040 C.2   323  ASN323      0.2627
    199  OD1        3.7180   68.3080    0.9810 O.2   323  ASN323     -0.2716
    200  ND2        2.9070   70.1800    0.0380 N.am  323  ASN323     -0.0877
    201  N          1.2670   61.2110    4.2190 N.3   342  GLY342     -0.1210
    202  CA         0.3550   62.1520    4.8580 C.3   342  GLY342      0.1956
    203  C         -0.9100   61.5260    5.5210 C.2   342  GLY342      0.2612
    204  O         -1.0450   60.3050    5.6140 O.2   342  GLY342     -0.2717
    205  N         -1.8300   62.3820    5.9260 N.am  343  ASP343     -0.1959
    206  CA        -2.9910   62.0520    6.7630 C.3   343  ASP343      0.1840
    207  C         -4.2300   61.5510    6.0940 C.2   343  ASP343      0.2623
    208  O         -5.0470   60.9000    6.7170 O.2   343  ASP343     -0.2715
    209  CB        -3.4500   63.2710    7.5200 C.3   343  ASP343      0.1450
    210  CG        -2.9280   63.2880    8.8960 C.2   343  ASP343      0.3671
    211  OD1       -2.4350   62.2220    9.3560 O.co2 343  ASP343     -0.2456
    212  OD2       -2.9730   64.3680    9.5020 O.co2 343  ASP343     -0.2456
    213  N         -4.4300   61.9150    4.8650 N.am  344  GLY344     -0.1940
    214  CA        -5.5170   61.2620    4.1280 C.3   344  GLY344      0.2014
    215  C         -5.2120   61.2480    2.6300 C.2   344  GLY344      0.2640
    216  O         -4.0300   61.1690    2.1800 O.2   344  GLY344     -0.2714
    217  N         -6.2420   61.4010    1.8320 N.am  345  SER345     -0.1935
    218  CA        -6.0160   61.1940    0.4220 C.3   345  SER345      0.2055
    219  C         -6.8510   62.1550   -0.4200 C.2   345  SER345      0.2642
    220  O         -7.8280   62.7610    0.0530 O.2   345  SER345     -0.2714
    221  CB        -6.2860   59.7230    0.1120 C.3   345  SER345      0.2130
    222  OG        -7.6510   59.4530    0.3870 O.3   345  SER345     -0.2179
    223  N         -6.4870   62.2630   -1.6820 N.am  346  LEU346     -0.1977
    224  CA        -7.1880   63.0880   -2.5710 C.3   346  LEU346      0.1596
    225  C         -7.9500   62.1690   -3.5070 C.2   346  LEU346      0.2287
    226  O         -7.3860   61.2230   -4.0420 O.2   346  LEU346     -0.2864
    227  CB        -6.1860   63.9750   -3.3390 C.3   346  LEU346      0.0297
    228  CG        -6.6490   64.8130   -4.5280 C.3   346  LEU346      0.0022
    229  CD1       -7.7360   65.7390   -3.9780 C.3   346  LEU346      0.0001
    230  CD2       -5.5190   65.6860   -5.0500 C.3   346  LEU346      0.0001
    231  N         -4.2690   68.0190  -10.6570 N.3   367  LEU367     -0.1231
    232  CA        -5.1240   69.2010  -10.6780 C.3   367  LEU367      0.1693
    233  C         -4.6770   70.1100   -9.5120 C.2   367  LEU367      0.2588
    234  O         -4.1620   69.6240   -8.5230 O.2   367  LEU367     -0.2718
    235  CB        -6.6180   68.8550  -10.4950 C.3   367  LEU367      0.0284
    236  CG        -7.5050   67.9600  -11.3500 C.3   367  LEU367      0.0019
    237  CD1       -8.9490   68.4460  -11.1250 C.3   367  LEU367      0.0001
    238  CD2       -7.1200   68.0020  -12.8090 C.3   367  LEU367      0.0001
    239  N         -4.9170   71.4090   -9.6240 N.am  368  LEU368     -0.2033
    240  CA        -4.2600   72.3530   -8.6910 C.3   368  LEU368      0.1282
    241  C         -5.0150   72.4230   -7.3900 C.3   368  LEU368      0.2036
    242  O         -6.1940   71.9320   -7.2330 O.3   368  LEU368     -0.2185
    243  CB        -4.1380   73.7370   -9.3170 C.3   368  LEU368      0.0244
    244  CG        -3.7340   73.6690  -10.8110 C.3   368  LEU368      0.0018
    245  CD1       -3.8240   75.0790  -11.3700 C.3   368  LEU368      0.0001
    246  CD2       -2.3090   73.1460  -10.8820 C.3   368  LEU368      0.0001
@<TRIPOS>BOND
     1   238   236    1
     2   245   244    1
     3   236   237    1
     4   236   235    1
     5   246   244    1
     6   244   243    1
     7   232   231    1
     8   232   235    1
     9   232   233    1
    10    90    91    1
    11   239   233   am
    12   239   240    1
    13   233   234    2
    14    94    91    1
    15    94    95    1
    16   243   240    1
    17   151   148    1
    18   151   152    1
    19   154   156   ar
    20   154   152   ar
    21    97    95   am
    22    91    92    1
    23   240   241    1
    24    93    92    2
    25   147   148    1
    26   148   149    1
    27    95    96    2
    28   156   157   ar
    29   104   102    1
    30   152   153   ar
    31    98    99    1
    32   184   183    2
    33   241   242    1
    34   157   158    1
    35   157   155   ar
    36   153   155   ar
    37   149   150    2
    38   102    99    1
    39   102   103    1
    40    99   100    1
    41   183   182    1
    42   100   101    2
    43   100   105   am
    44    87    85   ar
    45    87    88   ar
    46    85    83   ar
    47   185   182    1
    48   185   186    1
    49   182   181    1
    50   230   228    1
    51   105   106    1
    52   228   229    1
    53   228   227    1
    54    89    88    1
    55    88    86   ar
    56    83    82    1
    57    83    84   ar
    58    82    79    1
    59   226   225    2
    60   196   195    2
    61    12    11    1
    62   186   188   ar
    63   186   187   ar
    64   159   160    1
    65   225   224    1
    66    80    79    1
    67    80    81    2
    68    86    84   ar
    69   188   190   ar
    70   227   224    1
    71   125   124    1
    72   163   160    1
    73   163   164    1
    74    79    78    1
    75   106   109    1
    76   106   107    1
    77   187   189   ar
    78   160   161    1
    79   195   194    1
    80    11     9   ar
    81    11    10   ar
    82   166   164    1
    83   224   223    1
    84   108   107    2
    85   124   122   ar
    86   124   123   ar
    87   122   120   ar
    88   164   165    1
    89     9     7   ar
    90    10     8   ar
    91   107   110   am
    92   190   191   ar
    93   189   191   ar
    94   223   219   am
    95   194   193    1
    96   194   197    1
    97   123   121   ar
    98   161   162    2
    99   191   192    1
   100   120   119   ar
   101   197   198    1
   102     7     6   ar
   103     8     6   ar
   104   110   111    1
   105     6     5    1
   106   121   119   ar
   107   119   118    1
   108   219   220    2
   109   219   218    1
   110   115   114    1
   111   115   118    1
   112   115   116    1
   113   198   200   am
   114   198   199    2
   115   111   112    1
   116   221   222    1
   117   221   218    1
   118    74    76   ar
   119    74    72   ar
   120    19    17    1
   121   218   217    1
   122    76    77   ar
   123     5     2    1
   124    71    72    1
   125    71    68    1
   126   116   117    2
   127    72    73   ar
   128   112   113    2
   129    77    75   ar
   130    73    75   ar
   131    69    70    2
   132    69    68    1
   133    17    18    1
   134    17    14    1
   135     2     1    1
   136     2     3    1
   137   126   127    1
   138    68    67    1
   139   217   215   am
   140   127   128    1
   141   127   130    1
   142    13     3   am
   143    13    14    1
   144   216   215    2
   145   128   129    2
   146   132   134   ar
   147   132   131   ar
   148     3     4    2
   149   167   168    1
   150   215   214    1
   151    14    15    1
   152   134   135   ar
   153   176   175    2
   154    67    58   am
   155   130   131    1
   156   131   133   ar
   157   172   171    1
   158   168   171    1
   159   168   169    1
   160   175   174    1
   161   135   133   ar
   162    16    15    2
   163    15    20   am
   164   214   213    1
   165    58    59    2
   166    58    57    1
   167   201   202    1
   168   169   170    2
   169   202   203    1
   170   213   207   am
   171   178   180    1
   172   178   179    1
   173   178   177    1
   174    20    21    1
   175    61    62    1
   176    61    60    1
   177   174   173    1
   178   174   177    1
   179   146   144   ar
   180   146   145   ar
   181    62    63    1
   182    57    60    1
   183    57    56    1
   184   203   204    2
   185   203   205   am
   186   144   142   ar
   187   205   206    1
   188    23    22    2
   189   145   143   ar
   190   207   208    2
   191   207   206    1
   192    21    22    1
   193    21    24    1
   194    22    29   am
   195    56    47   am
   196   206   209    1
   197    63    64    2
   198   142   141   ar
   199    29    30    1
   200    25    24    1
   201    25    26    1
   202   143   141   ar
   203    47    48    2
   204    47    46    1
   205    65    64    1
   206    49    50    1
   207    49    46    1
   208   209   210    1
   209    30    33    1
   210    30    31    1
   211    64    66    1
   212   141   140    1
   213    33    34    1
   214    50    52   ar
   215    50    51   ar
   216    46    45    1
   217    44    42   ar
   218    52    54   ar
   219    51    53   ar
   220    26    28   ar
   221    26    27   ar
   222    31    37   am
   223    31    32    2
   224   210   211   ar
   225   210   212   ar
   226    37    38    1
   227    54    55   ar
   228   140   137    1
   229    53    55   ar
   230    42    43   ar
   231    42    41    1
   232    35    34   ar
   233    34    36   ar
   234   138   137    1
   235   138   139    2
   236    38    41    1
   237    38    39    1
   238   137   136    1
   239    39    40    2
