@<TRIPOS>MOLECULE
tmp/2ynfA01.pdb
 202 198 0 0 0
SMALL
GASTEIGER

@<TRIPOS>ATOM
      1  N        -11.1450   55.6520   21.9860 N.3    94  PRO94      -0.2116
      2  CA       -10.4560   55.8650   20.7060 C.3    94  PRO94       0.1372
      3  C         -8.9470   55.9340   20.8860 C.2    94  PRO94       0.2244
      4  O         -8.4810   56.5480   21.8310 O.2    94  PRO94      -0.2868
      5  CB       -10.9790   57.2040   20.2380 C.3    94  PRO94       0.0268
      6  CG       -12.2970   57.3870   20.9320 C.3    94  PRO94       0.0207
      7  CD       -12.1520   56.6890   22.2550 C.3    94  PRO94       0.0892
      8  N         -5.5720   57.5470   19.3770 N.3    96  PRO96      -0.2116
      9  CA        -5.1450   58.6270   18.4730 C.3    96  PRO96       0.1372
     10  C         -4.5950   58.1520   17.1150 C.2    96  PRO96       0.2244
     11  O         -4.8800   58.7710   16.0790 O.2    96  PRO96      -0.2868
     12  CB        -4.0330   59.3080   19.2680 C.3    96  PRO96       0.0268
     13  CG        -4.4600   59.1500   20.6840 C.3    96  PRO96       0.0207
     14  CD        -5.1460   57.8150   20.7670 C.3    96  PRO96       0.0892
     15  N         -7.2020   58.1440   14.4720 N.3    99  LEU99      -0.1231
     16  CA        -7.8080   59.3750   13.9920 C.3    99  LEU99       0.1693
     17  C         -7.2660   59.8020   12.6150 C.2    99  LEU99       0.2592
     18  O         -6.0790   59.6410   12.3340 O.2    99  LEU99      -0.2718
     19  CB        -7.5790   60.5100   15.0100 C.3    99  LEU99       0.0284
     20  CG        -8.1270   60.3090   16.4320 C.3    99  LEU99       0.0019
     21  CD1       -7.6720   61.4580   17.3270 C.3    99  LEU99       0.0001
     22  CD2       -9.6530   60.1500   16.4360 C.3    99  LEU99       0.0001
     23  N         -8.1600   60.3160   11.7690 N.am  100  LYS100     -0.1966
     24  CA        -7.7890   60.9200   10.4880 C.3   100  LYS100      0.1728
     25  C         -7.6120   62.4110   10.6990 C.2   100  LYS100      0.2616
     26  O         -8.4550   63.0650   11.3540 O.2   100  LYS100     -0.2715
     27  CB        -8.8710   60.6790    9.4350 C.3   100  LYS100      0.0311
     28  CG        -9.2170   59.2160    9.2280 C.3   100  LYS100      0.0038
     29  CD       -10.6250   59.0140    8.6800 C.3   100  LYS100      0.0206
     30  CE       -11.2050   57.6860    9.1660 C.3   100  LYS100      0.1093
     31  NZ       -11.3470   57.6790   10.6590 N.3   100  LYS100     -0.1314
     32  N         -6.5360   62.9500   10.1460 N.am  101  LYS101     -0.1963
     33  CA        -6.2010   64.3490   10.3180 C.3   101  LYS101      0.1728
     34  C         -7.2950   65.2700    9.7590 C.2   101  LYS101      0.2616
     35  O         -7.8370   65.0230    8.6870 O.2   101  LYS101     -0.2715
     36  CB        -4.8470   64.6310    9.6640 C.3   101  LYS101      0.0311
     37  CG        -4.2940   66.0240    9.9770 C.3   101  LYS101      0.0038
     38  CD        -2.8550   66.1780    9.4570 C.3   101  LYS101      0.0206
     39  CE        -2.7620   66.4200    7.9590 C.3   101  LYS101      0.1093
     40  NZ        -1.5400   65.7710    7.4040 N.3   101  LYS101     -0.1314
     41  N         -7.6410   66.3080   10.5210 N.am  102  LYS102     -0.1963
     42  CA        -8.5940   67.3360   10.0580 C.3   102  LYS102      0.1728
     43  C         -7.9100   68.6970   10.0760 C.2   102  LYS102      0.2616
     44  O         -7.0250   68.9360   10.9000 O.2   102  LYS102     -0.2715
     45  CB        -9.8620   67.3640   10.9330 C.3   102  LYS102      0.0311
     46  CG       -10.7630   66.1270   10.8600 C.3   102  LYS102      0.0038
     47  CD       -11.3230   65.8880    9.4570 C.3   102  LYS102      0.0206
     48  CE       -12.4140   64.8110    9.4200 C.3   102  LYS102      0.1093
     49  NZ       -11.9380   63.3940    9.3090 N.3   102  LYS102     -0.1314
     50  N         -8.3230   69.5880    9.1740 N.am  103  LYS103     -0.1963
     51  CA        -7.7910   70.9560    9.1390 C.3   103  LYS103      0.1728
     52  C         -8.0740   71.6780   10.4520 C.2   103  LYS103      0.2617
     53  O         -7.2280   72.4070   10.9560 O.2   103  LYS103     -0.2715
     54  CB        -8.3660   71.7480    7.9590 C.3   103  LYS103      0.0311
     55  CG        -7.6110   73.0900    7.8150 C.3   103  LYS103      0.0038
     56  CD        -8.1720   73.7450    6.5530 C.3   103  LYS103      0.0206
     57  CE        -7.2470   74.8540    6.1310 C.3   103  LYS103      0.1093
     58  NZ        -7.7330   75.5370    4.9000 N.3   103  LYS103     -0.1314
     59  N         -9.2620   71.4670   11.0060 N.am  104  SER104     -0.1936
     60  CA        -9.6760   72.1690   12.2180 C.3   104  SER104      0.2055
     61  C        -10.4400   71.2340   13.1420 C.2   104  SER104      0.2642
     62  O        -11.2620   70.4340   12.6830 O.2   104  SER104     -0.2714
     63  CB       -10.5400   73.3920   11.8760 C.3   104  SER104      0.2130
     64  OG        -9.9170   74.1950   10.8910 O.3   104  SER104     -0.2179
     65  N        -10.1550   71.3360   14.4370 N.am  105  VAL105     -0.1977
     66  CA       -10.7620   70.4840   15.4340 C.3   105  VAL105      0.1596
     67  C        -11.1570   71.3270   16.6480 C.2   105  VAL105      0.2287
     68  O        -10.3670   72.1480   17.1110 O.2   105  VAL105     -0.2864
     69  CB        -9.7840   69.3720   15.8760 C.3   105  VAL105      0.0276
     70  CG1      -10.2310   68.7360   17.1700 C.3   105  VAL105      0.0022
     71  CG2       -9.6430   68.3100   14.7870 C.3   105  VAL105      0.0022
     72  N        -13.0220   71.0460   20.6440 N.3   107  VAL107     -0.1245
     73  CA       -13.5400   70.3190   21.7760 C.3   107  VAL107      0.1561
     74  C        -14.6480   71.1680   22.4290 C.2   107  VAL107      0.2260
     75  O        -14.4210   72.3290   22.8030 O.2   107  VAL107     -0.2867
     76  CB       -12.3990   70.0100   22.7680 C.3   107  VAL107      0.0252
     77  CG1      -12.9170   69.4380   24.0750 C.3   107  VAL107      0.0019
     78  CG2      -11.4290   69.0290   22.1370 C.3   107  VAL107      0.0019
     79  N        -16.9410   65.2360   11.4650 N.3   178  VAL178     -0.1245
     80  CA       -16.8710   64.1590   12.4370 C.3   178  VAL178      0.1561
     81  C        -17.1350   64.7190   13.8240 C.2   178  VAL178      0.2260
     82  O        -16.6840   65.8180   14.1710 O.2   178  VAL178     -0.2867
     83  CB       -15.5170   63.4230   12.4600 C.3   178  VAL178      0.0252
     84  CG1      -15.1270   62.9860   11.0590 C.3   178  VAL178      0.0019
     85  CG2      -14.4350   64.2810   13.0990 C.3   178  VAL178      0.0019
     86  N        -16.9150   62.9640   17.6130 N.3   180  TYR180     -0.1241
     87  CA       -16.7310   61.8840   18.5390 C.3   180  TYR180      0.1605
     88  C        -17.3330   62.2390   19.8870 C.2   180  TYR180      0.2264
     89  O        -17.2430   63.3770   20.3370 O.2   180  TYR180     -0.2867
     90  CB       -15.2490   61.5370   18.6410 C.3   180  TYR180      0.0534
     91  CG       -14.6610   61.1920   17.2850 C.ar  180  TYR180     -0.0201
     92  CD1      -15.4420   60.5480   16.3170 C.ar  180  TYR180     -0.0009
     93  CD2      -13.3420   61.5100   16.9570 C.ar  180  TYR180     -0.0009
     94  CE1      -14.9350   60.2350   15.0680 C.ar  180  TYR180      0.0417
     95  CE2      -12.8180   61.1850   15.7120 C.ar  180  TYR180      0.0417
     96  CZ       -13.6180   60.5410   14.7700 C.ar  180  TYR180      0.1957
     97  OH       -13.1520   60.1770   13.5190 O.3   180  TYR180     -0.2866
     98  N        -17.4900   65.1570   26.6270 N.3   185  ASP185     -0.1239
     99  CA       -16.8860   65.9250   25.5540 C.3   185  ASP185      0.1674
    100  C        -17.4460   65.5490   24.1890 C.2   185  ASP185      0.2266
    101  O        -17.7230   64.3850   23.9060 O.2   185  ASP185     -0.2867
    102  CB       -15.3660   65.7240   25.5540 C.3   185  ASP185      0.1410
    103  CG       -14.6870   66.3430   26.7740 C.2   185  ASP185      0.3668
    104  OD1      -15.2100   67.3500   27.3270 O.co2 185  ASP185     -0.2456
    105  OD2      -13.6120   65.8130   27.1650 O.co2 185  ASP185     -0.2456
    106  N        -16.0250   66.0000   20.3530 N.3   187  LEU187     -0.1231
    107  CA       -14.7630   66.2470   19.6770 C.3   187  LEU187      0.1693
    108  C        -15.1420   66.4190   18.2250 C.2   187  LEU187      0.2592
    109  O        -15.6530   65.4940   17.6100 O.2   187  LEU187     -0.2718
    110  CB       -13.8040   65.0750   19.9000 C.3   187  LEU187      0.0284
    111  CG       -13.7200   64.5600   21.3490 C.3   187  LEU187      0.0019
    112  CD1      -13.0630   63.1810   21.4360 C.3   187  LEU187      0.0001
    113  CD2      -13.0070   65.5590   22.2500 C.3   187  LEU187      0.0001
    114  N        -14.9300   67.6170   17.7030 N.am  188  VAL188     -0.1966
    115  CA       -15.5200   68.0130   16.4340 C.3   188  VAL188      0.1727
    116  C        -14.4530   68.3960   15.4320 C.2   188  VAL188      0.2616
    117  O        -13.7380   69.3740   15.6490 O.2   188  VAL188     -0.2715
    118  CB       -16.4470   69.2410   16.6020 C.3   188  VAL188      0.0290
    119  CG1      -17.2170   69.4960   15.3220 C.3   188  VAL188      0.0023
    120  CG2      -17.4090   69.0450   17.7590 C.3   188  VAL188      0.0023
    121  N        -14.3940   67.6690   14.3190 N.am  189  GLY189     -0.1955
    122  CA       -13.3690   67.8830   13.2930 C.3   189  GLY189      0.1869
    123  C        -13.9460   68.0980   11.9030 C.2   189  GLY189      0.2309
    124  O        -14.9160   67.4450   11.5240 O.2   189  GLY189     -0.2863
    125  N        -11.0550   75.2000   24.2750 N.3   222  LYS222     -0.1245
    126  CA        -9.6510   74.8110   24.3650 C.3   222  LYS222      0.1561
    127  C         -8.9700   74.9260   22.9970 C.2   222  LYS222      0.2260
    128  O         -9.5760   74.5910   21.9770 O.2   222  LYS222     -0.2867
    129  CB        -9.5290   73.3610   24.8750 C.3   222  LYS222      0.0271
    130  CG       -10.2780   73.1070   26.1910 C.3   222  LYS222      0.0035
    131  CD       -10.5890   71.6220   26.4060 C.3   222  LYS222      0.0206
    132  CE        -9.3250   70.7570   26.5080 C.3   222  LYS222      0.1093
    133  NZ        -9.6410   69.3460   26.4070 N.3   222  LYS222     -0.1314
    134  N         -5.3790   73.8200   20.6260 N.3   224  PRO224     -0.2116
    135  CA        -4.3890   72.7390   20.5580 C.3   224  PRO224      0.1372
    136  C         -2.9860   73.1930   20.9760 C.2   224  PRO224      0.2244
    137  O         -2.6630   74.3660   20.8210 O.2   224  PRO224     -0.2868
    138  CB        -4.4030   72.3270   19.0740 C.3   224  PRO224      0.0268
    139  CG        -5.5750   73.0300   18.4620 C.3   224  PRO224      0.0207
    140  CD        -5.7900   74.2550   19.2810 C.3   224  PRO224      0.0892
    141  N         -4.2100   69.4560   22.4060 N.3   226  PHE226     -0.1241
    142  CA        -5.2170   68.9900   23.3480 C.3   226  PHE226      0.1605
    143  C         -4.5980   67.9370   24.2410 C.2   226  PHE226      0.2264
    144  O         -3.9760   67.0080   23.7590 O.2   226  PHE226     -0.2867
    145  CB        -6.4130   68.3910   22.6150 C.3   226  PHE226      0.0534
    146  CG        -7.1570   69.3760   21.7610 C.ar  226  PHE226     -0.0203
    147  CD1       -7.9290   70.3660   22.3410 C.ar  226  PHE226     -0.0042
    148  CD2       -7.0960   69.3020   20.3760 C.ar  226  PHE226     -0.0042
    149  CE1       -8.6110   71.2810   21.5590 C.ar  226  PHE226     -0.0003
    150  CE2       -7.7780   70.2030   19.5870 C.ar  226  PHE226     -0.0003
    151  CZ        -8.5370   71.1980   20.1780 C.ar  226  PHE226     -0.0000
    152  N         -5.4610   64.9560   26.7530 N.3   228  TRP228     -0.1241
    153  CA        -6.6500   64.1150   26.7510 C.3   228  TRP228      0.1605
    154  C         -6.2810   62.7010   27.0390 C.2   228  TRP228      0.2264
    155  O         -5.5680   62.0890   26.2580 O.2   228  TRP228     -0.2867
    156  CB        -7.3290   64.1990   25.3860 C.3   228  TRP228      0.0550
    157  CG        -8.5180   63.2800   25.2400 C.ar  228  TRP228      0.0003
    158  CD1       -9.8320   63.5270   25.6440 C.ar  228  TRP228      0.0946
    159  CD2       -8.5510   61.9340   24.6440 C.ar  228  TRP228      0.0152
    160  NE1      -10.6340   62.4550   25.3530 N.ar  228  TRP228     -0.2442
    161  CE2       -9.9350   61.4710   24.7600 C.ar  228  TRP228      0.0810
    162  CE3       -7.6100   61.0980   24.0520 C.ar  228  TRP228      0.0012
    163  CZ2      -10.3390   60.2320   24.2900 C.ar  228  TRP228      0.0191
    164  CZ3       -8.0260   59.8440   23.5910 C.ar  228  TRP228      0.0001
    165  CH2       -9.3630   59.4210   23.7110 C.ar  228  TRP228      0.0015
    166  N         -2.5560   65.7600   21.5740 N.3   233  LEU233     -0.1231
    167  CA        -3.0520   65.7470   20.2040 C.3   233  LEU233      0.1693
    168  C         -2.7770   67.0830   19.4600 C.2   233  LEU233      0.2592
    169  O         -3.4690   68.0690   19.6510 O.2   233  LEU233     -0.2718
    170  CB        -4.5400   65.4210   20.1980 C.3   233  LEU233      0.0284
    171  CG        -4.9730   64.1370   20.9180 C.3   233  LEU233      0.0019
    172  CD1       -6.4900   64.0870   20.9940 C.3   233  LEU233      0.0001
    173  CD2       -4.4580   62.8720   20.2530 C.3   233  LEU233      0.0001
    174  N         -1.7750   67.0700   18.5810 N.am  234  HIS234     -0.1962
    175  CA        -1.4070   68.2390   17.7760 C.3   234  HIS234      0.1772
    176  C         -2.0410   68.1300   16.4130 C.2   234  HIS234      0.2462
    177  O         -2.6150   67.0850   16.0990 O.2   234  HIS234     -0.2730
    178  CB         0.1040   68.3090   17.6400 C.3   234  HIS234      0.0785
    179  CG         0.8410   68.2370   18.9510 C.ar  234  HIS234      0.0821
    180  ND1        1.3950   69.3150   19.5280 N.ar  234  HIS234     -0.2267
    181  CD2        1.1170   67.1640   19.7840 C.ar  234  HIS234      0.1154
    182  CE1        1.9980   68.9520   20.6700 C.ar  234  HIS234      0.1986
    183  NE2        1.8230   67.6360   20.8290 N.ar  234  HIS234     -0.2212
    184  N         -1.9460   69.1960   15.5780 N.am  235  PRO235     -0.2727
    185  CA        -2.5160   69.1920   14.2190 C.3   235  PRO235      0.1402
    186  C         -2.0270   68.1280   13.2380 C.2   235  PRO235      0.2269
    187  O         -2.7770   67.7390   12.3600 O.2   235  PRO235     -0.2865
    188  CB        -2.1640   70.5870   13.7020 C.3   235  PRO235      0.0296
    189  CG        -2.2350   71.4320   14.9250 C.3   235  PRO235      0.0237
    190  CD        -1.5960   70.5760   15.9830 C.3   235  PRO235      0.0939
    191  N         -0.9520   60.4670   12.2320 N.3   317  TYR317     -0.1241
    192  CA        -2.3530   60.1050   12.1320 C.3   317  TYR317      0.1605
    193  C         -2.5900   59.1700   10.9490 C.2   317  TYR317      0.2264
    194  O         -1.7280   58.9690   10.1320 O.2   317  TYR317     -0.2867
    195  CB        -3.2290   61.3750   12.0110 C.3   317  TYR317      0.0534
    196  CG        -3.2630   62.2140   13.2620 C.ar  317  TYR317     -0.0201
    197  CD1       -3.5540   61.6510   14.4820 C.ar  317  TYR317     -0.0009
    198  CD2       -3.0010   63.5830   13.2210 C.ar  317  TYR317     -0.0009
    199  CE1       -3.5710   62.4160   15.6370 C.ar  317  TYR317      0.0417
    200  CE2       -3.0280   64.3510   14.3650 C.ar  317  TYR317      0.0417
    201  CZ        -3.3060   63.7600   15.5720 C.ar  317  TYR317      0.1957
    202  OH        -3.3410   64.5160   16.7260 O.3   317  TYR317     -0.2866
@<TRIPOS>BOND
     1    58    57    1
     2    57    56    1
     3    56    55    1
     4    40    39    1
     5    55    54    1
     6    39    38    1
     7    54    51    1
     8    29    30    1
     9    29    28    1
    10    35    34    2
    11    51    50    1
    12    51    52    1
    13    30    31    1
    14    50    43   am
    15    28    27    1
    16    49    48    1
    17    48    47    1
    18    27    24    1
    19    47    46    1
    20    38    37    1
    21    36    37    1
    22    36    33    1
    23    34    33    1
    24    34    41   am
    25    42    43    1
    26    42    41    1
    27    42    45    1
    28    43    44    2
    29   194   193    2
    30    32    33    1
    31    32    25   am
    32    52    53    2
    33    52    59   am
    34    24    25    1
    35    24    23    1
    36    25    26    2
    37    46    45    1
    38    64    63    1
    39   193   192    1
    40    59    60    1
    41    84    83    1
    42    79    80    1
    43   124   123    2
    44    23    17   am
    45    63    60    1
    46   123   122    1
    47   195   192    1
    48   195   196    1
    49   192   191    1
    50    60    61    1
    51    18    17    2
    52   187   186    2
    53    80    83    1
    54    80    81    1
    55    83    85    1
    56    17    16    1
    57    62    61    2
    58    61    65   am
    59   198   196   ar
    60   198   200   ar
    61   186   185    1
    62   196   197   ar
    63   122   121    1
    64    97    96    1
    65   188   185    1
    66   188   189    1
    67    81    82    2
    68    16    15    1
    69    16    19    1
    70   185   184    1
    71   121   116   am
    72   200   201   ar
    73    65    66    1
    74   197   199   ar
    75    96    94   ar
    76    96    95   ar
    77    71    69    1
    78   189   190    1
    79    19    20    1
    80    94    92   ar
    81   119   118    1
    82   116   117    2
    83   116   115    1
    84    66    69    1
    85    66    67    1
    86   201   199   ar
    87   201   202    1
    88   184   190    1
    89   184   176   am
    90    95    93   ar
    91    69    70    1
    92    11    10    2
    93   177   176    2
    94    92    91   ar
    95   176   175    1
    96    20    22    1
    97    20    21    1
    98   115   118    1
    99   115   114    1
   100   118   120    1
   101    67    68    2
   102    93    91   ar
   103    10     9    1
   104    91    90    1
   105   109   108    2
   106    86    87    1
   107   178   175    1
   108   178   179    1
   109   114   108   am
   110   175   174    1
   111   108   107    1
   112   139   138    1
   113   139   140    1
   114     9    12    1
   115     9     8    1
   116    87    90    1
   117    87    88    1
   118   174   168   am
   119   179   180   ar
   120   179   181   ar
   121   138   135    1
   122    12    13    1
   123   140   134    1
   124     8    14    1
   125   168   169    2
   126   168   167    1
   127   180   182   ar
   128   150   151   ar
   129   150   148   ar
   130   107   110    1
   131   107   106    1
   132   181   183   ar
   133    88    89    2
   134   110   111    1
   135   151   149   ar
   136   170   167    1
   137   170   171    1
   138   167   166    1
   139     5     2    1
   140     5     6    1
   141   173   171    1
   142   148   146   ar
   143   135   134    1
   144   135   136    1
   145    72    73    1
   146   182   183   ar
   147    13    14    1
   148     2     3    1
   149     2     1    1
   150   137   136    2
   151     3     4    2
   152   171   172    1
   153     6     7    1
   154   111   112    1
   155   111   113    1
   156   149   147   ar
   157   146   147   ar
   158   146   145    1
   159    73    74    1
   160    73    76    1
   161   128   127    2
   162     1     7    1
   163    78    76    1
   164   141   142    1
   165    74    75    2
   166   145   142    1
   167    76    77    1
   168   127   126    1
   169   142   143    1
   170   164   165   ar
   171   164   162   ar
   172   165   163   ar
   173   144   143    2
   174   101   100    2
   175   162   159   ar
   176   100    99    1
   177   125   126    1
   178   163   161   ar
   179   126   129    1
   180   159   161   ar
   181   159   157   ar
   182   161   160   ar
   183   129   130    1
   184   157   156    1
   185   157   158   ar
   186   160   158   ar
   187   156   153    1
   188    99   102    1
   189    99    98    1
   190   102   103    1
   191   130   131    1
   192   155   154    2
   193   131   132    1
   194   133   132    1
   195   153   152    1
   196   153   154    1
   197   103   105   ar
   198   103   104   ar
