@<TRIPOS>MOLECULE
tmp/2ynhA01.pdb
 197 197 0 0 0
SMALL
GASTEIGER

@<TRIPOS>ATOM
      1  N        -11.2410   55.7880   22.1000 N.3    97  PRO97      -0.2116
      2  CA       -10.5530   55.9870   20.8190 C.3    97  PRO97       0.1372
      3  C         -9.0470   56.1350   20.9400 C.2    97  PRO97       0.2244
      4  O         -8.5760   56.8750   21.7770 O.2    97  PRO97      -0.2868
      5  CB       -11.1490   57.2980   20.2920 C.3    97  PRO97       0.0268
      6  CG       -12.4130   57.4890   21.0390 C.3    97  PRO97       0.0207
      7  CD       -12.1690   56.8960   22.3860 C.3    97  PRO97       0.0892
      8  N         -5.5620   57.6080   19.5700 N.3    99  PRO99      -0.2116
      9  CA        -5.0480   58.6840   18.7370 C.3    99  PRO99       0.1372
     10  C         -4.5970   58.2380   17.3550 C.2    99  PRO99       0.2244
     11  O         -4.9830   58.8550   16.3530 O.2    99  PRO99      -0.2868
     12  CB        -3.8610   59.1830   19.5400 C.3    99  PRO99       0.0268
     13  CG        -4.3110   59.0260   20.9430 C.3    99  PRO99       0.0207
     14  CD        -5.1310   57.7700   20.9690 C.3    99  PRO99       0.0892
     15  N         -7.0960   58.2300   14.6900 N.3   102  LEU102     -0.1231
     16  CA        -7.7270   59.4800   14.2830 C.3   102  LEU102      0.1693
     17  C         -7.2010   59.8800   12.9190 C.2   102  LEU102      0.2592
     18  O         -6.0080   59.7450   12.6560 O.2   102  LEU102     -0.2718
     19  CB        -7.4340   60.6000   15.2860 C.3   102  LEU102      0.0284
     20  CG        -7.9190   60.3920   16.7190 C.3   102  LEU102      0.0019
     21  CD1       -7.4270   61.5170   17.6040 C.3   102  LEU102      0.0001
     22  CD2       -9.4280   60.3120   16.7710 C.3   102  LEU102      0.0001
     23  N         -8.0980   60.3480   12.0520 N.am  103  LYS103     -0.1966
     24  CA        -7.7250   60.8830   10.7440 C.3   103  LYS103      0.1728
     25  C         -7.4690   62.3780   10.9090 C.2   103  LYS103      0.2616
     26  O         -8.2660   63.0690   11.5470 O.2   103  LYS103     -0.2715
     27  CB        -8.8480   60.6470    9.7260 C.3   103  LYS103      0.0311
     28  CG        -9.3240   59.2030    9.6670 C.3   103  LYS103      0.0038
     29  CD       -10.5960   59.0190    8.8520 C.3   103  LYS103      0.0206
     30  CE       -11.2400   57.6820    9.1970 C.3   103  LYS103      0.1093
     31  NZ       -11.9940   57.0790    8.0640 N.3   103  LYS103     -0.1314
     32  N         -6.3790   62.8750   10.3320 N.am  104  LYS104     -0.1963
     33  CA        -6.0390   64.2920   10.4360 C.3   104  LYS104      0.1728
     34  C         -7.0810   65.1860    9.7620 C.2   104  LYS104      0.2616
     35  O         -7.5930   64.8720    8.6820 O.2   104  LYS104     -0.2715
     36  CB        -4.6650   64.5560    9.8240 C.3   104  LYS104      0.0311
     37  CG        -4.0870   65.9020   10.2060 C.3   104  LYS104      0.0038
     38  CD        -2.6340   66.0390    9.7680 C.3   104  LYS104      0.0206
     39  CE        -2.5010   66.2050    8.2610 C.3   104  LYS104      0.1093
     40  NZ        -1.1110   66.5950    7.8920 N.3   104  LYS104     -0.1314
     41  N         -7.3860   66.2990   10.4240 N.am  105  LYS105     -0.1963
     42  CA        -8.3890   67.2540    9.9470 C.3   105  LYS105      0.1728
     43  C         -7.7900   68.6560    9.9250 C.2   105  LYS105      0.2616
     44  O         -6.9840   69.0050   10.7970 O.2   105  LYS105     -0.2715
     45  CB        -9.6250   67.2200   10.8470 C.3   105  LYS105      0.0311
     46  CG       -10.3930   65.9000   10.8360 C.3   105  LYS105      0.0038
     47  CD       -11.0900   65.6660    9.5040 C.3   105  LYS105      0.0206
     48  CE       -12.1610   64.5730    9.5630 C.3   105  LYS105      0.1093
     49  NZ       -11.6480   63.1760    9.7070 N.3   105  LYS105     -0.1314
     50  N         -8.1770   69.4400    8.9150 N.am  106  LYS106     -0.1963
     51  CA        -7.7160   70.8270    8.7600 C.3   106  LYS106      0.1728
     52  C         -8.0390   71.6810    9.9950 C.2   106  LYS106      0.2617
     53  O         -7.2030   72.4780   10.4130 O.2   106  LYS106     -0.2715
     54  CB        -8.3140   71.4680    7.5000 C.3   106  LYS106      0.0311
     55  CG        -7.9160   72.9130    7.3060 C.3   106  LYS106      0.0038
     56  CD        -8.3180   73.4080    5.9430 C.3   106  LYS106      0.0206
     57  CE        -7.4120   72.8410    4.8680 C.3   106  LYS106      0.1093
     58  NZ        -7.8710   73.3730    3.5390 N.3   106  LYS106     -0.1314
     59  N         -9.2270   71.5040   10.5850 N.am  107  SER107     -0.1936
     60  CA        -9.6000   72.2250   11.8200 C.3   107  SER107      0.2055
     61  C        -10.4530   71.3890   12.7920 C.2   107  SER107      0.2642
     62  O        -11.3670   70.6700   12.3700 O.2   107  SER107     -0.2714
     63  CB       -10.3110   73.5380   11.4760 C.3   107  SER107      0.2130
     64  OG       -11.1880   73.3610   10.3720 O.3   107  SER107     -0.2179
     65  N        -10.1490   71.5180   14.0910 N.am  108  VAL108     -0.1977
     66  CA       -10.7040   70.6540   15.1510 C.3   108  VAL108      0.1596
     67  C        -11.1200   71.4350   16.4060 C.2   108  VAL108      0.2287
     68  O        -10.3050   72.1630   16.9840 O.2   108  VAL108     -0.2864
     69  CB        -9.6620   69.5970   15.5790 C.3   108  VAL108      0.0276
     70  CG1       -9.9280   69.0970   16.9910 C.3   108  VAL108      0.0022
     71  CG2       -9.6480   68.4460   14.5870 C.3   108  VAL108      0.0022
     72  N        -13.1620   71.3400   20.3590 N.3   110  VAL110     -0.1245
     73  CA       -13.6450   70.5830   21.5160 C.3   110  VAL110      0.1561
     74  C        -14.7980   71.3280   22.2020 C.2   110  VAL110      0.2260
     75  O        -14.6670   72.5020   22.5700 O.2   110  VAL110     -0.2867
     76  CB       -12.5090   70.3240   22.5390 C.3   110  VAL110      0.0252
     77  CG1      -13.0600   69.8040   23.8530 C.3   110  VAL110      0.0019
     78  CG2      -11.5010   69.3320   21.9810 C.3   110  VAL110      0.0019
     79  N        -16.9100   65.0620   11.3670 N.3   181  VAL181     -0.1245
     80  CA       -16.6600   64.0040   12.3220 C.3   181  VAL181      0.1561
     81  C        -16.9600   64.5180   13.7290 C.2   181  VAL181      0.2260
     82  O        -16.4390   65.5560   14.1460 O.2   181  VAL181     -0.2867
     83  CB       -15.2060   63.4870   12.1930 C.3   181  VAL181      0.0252
     84  CG1      -14.6040   63.1560   13.5470 C.3   181  VAL181      0.0019
     85  CG2      -15.1630   62.2740   11.2750 C.3   181  VAL181      0.0019
     86  N        -16.7880   62.8700   17.4130 N.3   183  TYR183     -0.1241
     87  CA       -16.5450   61.8550   18.4270 C.3   183  TYR183      0.1605
     88  C        -17.3550   62.1660   19.6890 C.2   183  TYR183      0.2264
     89  O        -17.3740   63.3070   20.1370 O.2   183  TYR183     -0.2867
     90  CB       -15.0640   61.8290   18.7970 C.3   183  TYR183      0.0534
     91  CG       -14.1570   61.1890   17.7790 C.ar  183  TYR183     -0.0201
     92  CD1      -13.6960   61.8950   16.6900 C.ar  183  TYR183     -0.0009
     93  CD2      -13.7270   59.8790   17.9340 C.ar  183  TYR183     -0.0009
     94  CE1      -12.8500   61.3110   15.7580 C.ar  183  TYR183      0.0417
     95  CE2      -12.8820   59.2830   17.0130 C.ar  183  TYR183      0.0417
     96  CZ       -12.4490   60.0060   15.9250 C.ar  183  TYR183      0.1957
     97  OH       -11.6050   59.4170   15.0100 O.3   183  TYR183     -0.2866
     98  N        -15.8680   65.9600   20.2190 N.3   190  TYR190     -0.1227
     99  CA       -14.7140   66.4370   19.4750 C.3   190  TYR190      0.1736
    100  C        -15.1380   66.5470   18.0210 C.2   190  TYR190      0.2595
    101  O        -15.6460   65.5860   17.4500 O.2   190  TYR190     -0.2718
    102  CB       -13.5300   65.4970   19.6830 C.3   190  TYR190      0.0548
    103  CG       -13.3550   65.1170   21.1400 C.ar  190  TYR190     -0.0200
    104  CD1      -13.2510   66.0980   22.1230 C.ar  190  TYR190     -0.0009
    105  CD2      -13.3230   63.7880   21.5440 C.ar  190  TYR190     -0.0009
    106  CE1      -13.1100   65.7700   23.4620 C.ar  190  TYR190      0.0417
    107  CE2      -13.1870   63.4500   22.8840 C.ar  190  TYR190      0.0417
    108  CZ       -13.0820   64.4490   23.8360 C.ar  190  TYR190      0.1957
    109  OH       -12.9410   64.1300   25.1610 O.3   190  TYR190     -0.2866
    110  N        -14.9790   67.7330   17.4410 N.am  191  VAL191     -0.1966
    111  CA       -15.5510   68.0180   16.1310 C.3   191  VAL191      0.1727
    112  C        -14.4690   68.4400   15.1570 C.2   191  VAL191      0.2616
    113  O        -13.7940   69.4530   15.3580 O.2   191  VAL191     -0.2715
    114  CB       -16.6290   69.1180   16.1980 C.3   191  VAL191      0.0290
    115  CG1      -17.3890   69.1840   14.8770 C.3   191  VAL191      0.0023
    116  CG2      -17.5790   68.8650   17.3570 C.3   191  VAL191      0.0023
    117  N        -14.3210   67.6570   14.0940 N.am  192  GLY192     -0.1955
    118  CA       -13.2530   67.8580   13.1150 C.3   192  GLY192      0.1869
    119  C        -13.7960   67.8630   11.7020 C.2   192  GLY192      0.2309
    120  O        -14.6380   67.0220   11.3460 O.2   192  GLY192     -0.2863
    121  N         -5.1070   73.7860   20.5390 N.3   227  PRO227     -0.2116
    122  CA        -4.0430   72.8130   20.2830 C.3   227  PRO227      0.1372
    123  C         -2.7120   73.2070   20.9120 C.2   227  PRO227      0.2244
    124  O         -2.3930   74.3870   20.9570 O.2   227  PRO227     -0.2868
    125  CB        -3.9030   72.8460   18.7630 C.3   227  PRO227      0.0268
    126  CG        -5.2370   73.2740   18.2690 C.3   227  PRO227      0.0207
    127  CD        -5.6980   74.2760   19.2800 C.3   227  PRO227      0.0892
    128  N         -4.1780   69.6120   22.3750 N.3   229  PHE229     -0.1227
    129  CA        -5.1370   69.1350   23.3710 C.3   229  PHE229      0.1736
    130  C         -4.5160   68.0770   24.2630 C.2   229  PHE229      0.2595
    131  O         -4.0290   67.0700   23.7790 O.2   229  PHE229     -0.2718
    132  CB        -6.3600   68.5310   22.6990 C.3   229  PHE229      0.0547
    133  CG        -7.1190   69.5000   21.8470 C.ar  229  PHE229     -0.0202
    134  CD1       -7.8120   70.5470   22.4240 C.ar  229  PHE229     -0.0042
    135  CD2       -7.1520   69.3560   20.4670 C.ar  229  PHE229     -0.0042
    136  CE1       -8.5170   71.4380   21.6440 C.ar  229  PHE229     -0.0003
    137  CE2       -7.8540   70.2490   19.6800 C.ar  229  PHE229     -0.0003
    138  CZ        -8.5360   71.2920   20.2690 C.ar  229  PHE229     -0.0000
    139  N         -4.5220   68.3180   25.5670 N.am  230  LEU230     -0.1966
    140  CA        -4.1720   67.2920   26.5350 C.3   230  LEU230      0.1728
    141  C         -5.4220   66.4490   26.7620 C.2   230  LEU230      0.2616
    142  O         -6.4650   66.9850   27.0990 O.2   230  LEU230     -0.2715
    143  CB        -3.7020   67.9350   27.8410 C.3   230  LEU230      0.0311
    144  CG        -2.5280   68.9230   27.7690 C.3   230  LEU230      0.0022
    145  CD1       -1.6810   68.7780   29.0190 C.3   230  LEU230      0.0001
    146  CD2       -1.6550   68.7310   26.5390 C.3   230  LEU230      0.0001
    147  N         -5.3380   65.1380   26.5590 N.am  231  TRP231     -0.1974
    148  CA        -6.5330   64.2940   26.6650 C.3   231  TRP231      0.1640
    149  C         -6.2180   62.8750   27.0200 C.2   231  TRP231      0.2290
    150  O         -5.5140   62.2070   26.2870 O.2   231  TRP231     -0.2864
    151  CB        -7.3090   64.3380   25.3560 C.3   231  TRP231      0.0576
    152  CG        -8.5270   63.4430   25.3270 C.ar  231  TRP231      0.0006
    153  CD1       -9.7870   63.6970   25.8610 C.ar  231  TRP231      0.0946
    154  CD2       -8.6360   62.1110   24.7200 C.ar  231  TRP231      0.0152
    155  NE1      -10.6350   62.6460   25.6360 N.ar  231  TRP231     -0.2442
    156  CE2      -10.0120   61.6660   24.9530 C.ar  231  TRP231      0.0810
    157  CE3       -7.7680   61.2800   24.0240 C.ar  231  TRP231      0.0012
    158  CZ2      -10.4690   60.4430   24.5100 C.ar  231  TRP231      0.0191
    159  CZ3       -8.2430   60.0440   23.5820 C.ar  231  TRP231      0.0001
    160  CH2       -9.5620   59.6380   23.8200 C.ar  231  TRP231      0.0015
    161  N         -2.4830   65.8310   21.6730 N.3   236  LEU236     -0.1231
    162  CA        -2.9850   65.8020   20.3140 C.3   236  LEU236      0.1693
    163  C         -2.6960   67.1230   19.6060 C.2   236  LEU236      0.2592
    164  O         -3.4420   68.0990   19.7540 O.2   236  LEU236     -0.2718
    165  CB        -4.4790   65.5070   20.3010 C.3   236  LEU236      0.0284
    166  CG        -4.9580   64.2860   21.0830 C.3   236  LEU236      0.0019
    167  CD1       -6.4280   64.0570   20.7740 C.3   236  LEU236      0.0001
    168  CD2       -4.1550   63.0320   20.7730 C.3   236  LEU236      0.0001
    169  N         -1.6070   67.1250   18.8320 N.am  237  HIS237     -0.1962
    170  CA        -1.1640   68.2680   18.0340 C.3   237  HIS237      0.1772
    171  C         -1.8280   68.2180   16.6710 C.2   237  HIS237      0.2462
    172  O         -2.4960   67.2400   16.3530 O.2   237  HIS237     -0.2730
    173  CB         0.3530   68.2250   17.8930 C.3   237  HIS237      0.0785
    174  CG         1.1000   68.2460   19.2100 C.ar  237  HIS237      0.0821
    175  ND1        1.9690   69.2220   19.5300 N.ar  237  HIS237     -0.2267
    176  CD2        1.1000   67.3590   20.2840 C.ar  237  HIS237      0.1154
    177  CE1        2.4920   68.9830   20.7480 C.ar  237  HIS237      0.1986
    178  NE2        1.9630   67.8430   21.2100 N.ar  237  HIS237     -0.2212
    179  N         -1.6690   69.2770   15.8460 N.am  238  PRO238     -0.2727
    180  CA        -2.3150   69.3350   14.5160 C.3   238  PRO238      0.1402
    181  C         -1.9490   68.2730   13.4840 C.2   238  PRO238      0.2269
    182  O         -2.7710   67.9730   12.6180 O.2   238  PRO238     -0.2865
    183  CB        -1.9240   70.7200   13.9910 C.3   238  PRO238      0.0296
    184  CG        -1.7630   71.5340   15.2220 C.3   238  PRO238      0.0237
    185  CD        -1.1390   70.6010   16.2300 C.3   238  PRO238      0.0939
    186  N         -0.8780   60.5080   12.3560 N.3   320  TYR320     -0.1241
    187  CA        -2.2850   60.1410   12.3490 C.3   320  TYR320      0.1605
    188  C         -2.5520   59.1920   11.1860 C.2   320  TYR320      0.2264
    189  O         -1.6840   58.9710   10.3540 O.2   320  TYR320     -0.2867
    190  CB        -3.1750   61.3860   12.2470 C.3   320  TYR320      0.0534
    191  CG        -3.1840   62.2510   13.4880 C.ar  320  TYR320     -0.0201
    192  CD1       -3.6250   61.7560   14.7020 C.ar  320  TYR320     -0.0009
    193  CD2       -2.7570   63.5660   13.4400 C.ar  320  TYR320     -0.0009
    194  CE1       -3.6340   62.5450   15.8360 C.ar  320  TYR320      0.0417
    195  CE2       -2.7530   64.3600   14.5700 C.ar  320  TYR320      0.0417
    196  CZ        -3.1940   63.8490   15.7660 C.ar  320  TYR320      0.1957
    197  OH        -3.1920   64.6540   16.8880 O.3   320  TYR320     -0.2866
@<TRIPOS>BOND
     1    58    57    1
     2    57    56    1
     3    56    55    1
     4    55    54    1
     5    54    51    1
     6    40    39    1
     7    31    30    1
     8    39    38    1
     9    35    34    2
    10    51    50    1
    11    51    52    1
    12    29    30    1
    13    29    28    1
    14    50    43   am
    15    47    48    1
    16    47    46    1
    17    48    49    1
    18    28    27    1
    19    27    24    1
    20    34    41   am
    21    34    33    1
    22    38    37    1
    23    36    37    1
    24    36    33    1
    25    43    42    1
    26    43    44    2
    27    42    41    1
    28    42    45    1
    29    52    53    2
    30    52    59   am
    31    32    33    1
    32    32    25   am
    33   189   188    2
    34    64    63    1
    35    59    60    1
    36    24    25    1
    37    24    23    1
    38    46    45    1
    39    25    26    2
    40   188   187    1
    41    85    83    1
    42   120   119    2
    43    79    80    1
    44    63    60    1
    45   119   118    1
    46    60    61    1
    47    23    17   am
    48    83    80    1
    49    83    84    1
    50   190   187    1
    51   190   191    1
    52    80    81    1
    53   187   186    1
    54    62    61    2
    55   182   181    2
    56    18    17    2
    57    61    65   am
    58    17    16    1
    59   118   117    1
    60   193   191   ar
    61   193   195   ar
    62   181   180    1
    63   191   192   ar
    64    81    82    2
    65   183   180    1
    66   183   184    1
    67    65    66    1
    68   117   112   am
    69    16    15    1
    70    16    19    1
    71   180   179    1
    72   195   196   ar
    73    71    69    1
    74   192   194   ar
    75   115   114    1
    76    97    96    1
    77    66    69    1
    78    66    67    1
    79   112   113    2
    80   112   111    1
    81   184   185    1
    82    19    20    1
    83    69    70    1
    84    94    96   ar
    85    94    92   ar
    86   196   194   ar
    87   196   197    1
    88   179   185    1
    89   179   171   am
    90    96    95   ar
    91   111   114    1
    92   111   110    1
    93   114   116    1
    94   172   171    2
    95    11    10    2
    96    67    68    2
    97   171   170    1
    98    92    91   ar
    99    20    22    1
   100    20    21    1
   101    95    93   ar
   102    10     9    1
   103    86    87    1
   104   110   100   am
   105   101   100    2
   106    91    93   ar
   107    91    90    1
   108   173   170    1
   109   173   174    1
   110   100    99    1
   111   170   169    1
   112   126   125    1
   113   126   127    1
   114    87    90    1
   115    87    88    1
   116     9    12    1
   117     9     8    1
   118   125   122    1
   119   169   163   am
   120   174   175   ar
   121   174   176   ar
   122   127   121    1
   123    99   102    1
   124    99    98    1
   125   175   177   ar
   126    12    13    1
   127     8    14    1
   128   163   164    2
   129   163   162    1
   130   137   138   ar
   131   137   135   ar
   132   102   103    1
   133    88    89    2
   134   138   136   ar
   135   122   121    1
   136   122   123    1
   137   176   178   ar
   138     5     2    1
   139     5     6    1
   140   165   162    1
   141   165   166    1
   142   162   161    1
   143    72    73    1
   144   135   133   ar
   145   177   178   ar
   146   168   166    1
   147   167   166    1
   148     2     3    1
   149     2     1    1
   150   123   124    2
   151     3     4    2
   152    13    14    1
   153     6     7    1
   154   103   105   ar
   155   103   104   ar
   156    73    74    1
   157    73    76    1
   158   105   107   ar
   159   136   134   ar
   160   133   134   ar
   161   133   132    1
   162    78    76    1
   163     1     7    1
   164   104   106   ar
   165    74    75    2
   166   128   129    1
   167    76    77    1
   168   132   129    1
   169   107   108   ar
   170   129   130    1
   171   106   108   ar
   172   159   160   ar
   173   159   157   ar
   174   131   130    2
   175   160   158   ar
   176   108   109    1
   177   157   154   ar
   178   130   139   am
   179   158   156   ar
   180   154   156   ar
   181   154   152   ar
   182   156   155   ar
   183   152   151    1
   184   152   153   ar
   185   151   148    1
   186   139   140    1
   187   155   153   ar
   188   150   149    2
   189   140   141    1
   190   140   143    1
   191   146   144    1
   192   147   148    1
   193   147   141   am
   194   148   149    1
   195   141   142    2
   196   144   143    1
   197   144   145    1
