@<TRIPOS>MOLECULE
tmp/2ynkA07.pdb
 65 61 0 0 0
SMALL
GASTEIGER

@<TRIPOS>ATOM
      1  N        120.1420   81.2990   32.9570 N.3    75  THR75      -0.1203
      2  CA       121.3260   81.8140   33.6400 C.3    75  THR75       0.1994
      3  C        121.7100   80.8650   34.7650 C.2    75  THR75       0.2619
      4  O        120.8460   80.2080   35.3430 O.2    75  THR75      -0.2717
      5  CB       121.0760   83.2110   34.2290 C.3    75  THR75       0.1784
      6  OG1      122.2560   83.6660   34.8880 O.3    75  THR75      -0.2211
      7  CG2      119.9160   83.1840   35.2310 C.3    75  THR75       0.0376
      8  N        123.0000   80.7940   35.0800 N.am   76  SER76      -0.1937
      9  CA       123.4750   79.8650   36.1090 C.3    76  SER76       0.2055
     10  C        124.8060   80.2570   36.7370 C.2    76  SER76       0.2643
     11  O        125.5460   81.0910   36.2200 O.2    76  SER76      -0.2714
     12  CB       123.5960   78.4600   35.5260 C.3    76  SER76       0.2130
     13  OG       124.4850   78.4530   34.4260 O.3    76  SER76      -0.2179
     14  N        125.0940   79.6330   37.8690 N.am   77  THR77      -0.1950
     15  CA       126.3360   79.8520   38.5620 C.3    77  THR77       0.1897
     16  C        127.4390   79.0450   37.8900 C.2    77  THR77       0.2313
     17  O        128.5860   79.4780   37.8440 O.2    77  THR77      -0.2863
     18  CB       126.2240   79.4610   40.0450 C.3    77  THR77       0.1794
     19  OG1      125.8910   78.0770   40.1560 O.3    77  THR77      -0.2208
     20  CG2      125.1630   80.2820   40.7390 C.3    77  THR77       0.0378
     21  N        124.9220   81.0420   30.3400 N.3    94  ASN94      -0.1240
     22  CA       123.9360   82.0970   30.1950 C.3    94  ASN94       0.1653
     23  C        123.4780   82.1390   28.7560 C.2    94  ASN94       0.2266
     24  O        124.2910   82.1160   27.8420 O.2    94  ASN94      -0.2867
     25  CB       124.5190   83.4560   30.5840 C.3    94  ASN94       0.1155
     26  CG       125.1220   83.4620   31.9740 C.2    94  ASN94       0.2627
     27  OD1      124.4820   83.0980   32.9540 O.2    94  ASN94      -0.2716
     28  ND2      126.3660   83.8850   32.0610 N.am   94  ASN94      -0.0877
     29  N        113.5900   76.9830   37.9940 N.3   405  THR405     -0.1203
     30  CA       114.7920   77.0090   38.8250 C.3   405  THR405      0.1994
     31  C        115.3470   75.6230   39.1060 C.2   405  THR405      0.2619
     32  O        114.6530   74.6150   38.9950 O.2   405  THR405     -0.2717
     33  CB       114.5140   77.7030   40.1630 C.3   405  THR405      0.1784
     34  OG1      113.2760   77.2140   40.7080 O.3   405  THR405     -0.2211
     35  CG2      114.4260   79.2150   39.9580 C.3   405  THR405      0.0376
     36  N        116.6210   75.5890   39.4660 N.am  406  SER406     -0.1937
     37  CA       117.3030   74.3470   39.8110 C.3   406  SER406      0.2055
     38  C        118.3830   74.6420   40.8390 C.2   406  SER406      0.2642
     39  O        118.9490   75.7290   40.8530 O.2   406  SER406     -0.2714
     40  CB       117.9070   73.6990   38.5640 C.3   406  SER406      0.2130
     41  OG       118.0240   72.2910   38.7360 O.3   406  SER406     -0.2179
     42  N        118.6370   73.6730   41.7090 N.am  407  LEU407     -0.1977
     43  CA       119.6290   73.7910   42.7690 C.3   407  LEU407      0.1596
     44  C        120.2710   72.4280   42.9540 C.2   407  LEU407      0.2287
     45  O        119.5610   71.4380   43.0590 O.2   407  LEU407     -0.2864
     46  CB       118.9470   74.2160   44.0610 C.3   407  LEU407      0.0297
     47  CG       119.8440   74.4260   45.2820 C.3   407  LEU407      0.0022
     48  CD1      120.5610   75.7680   45.2070 C.3   407  LEU407      0.0001
     49  CD2      119.0210   74.3220   46.5590 C.3   407  LEU407      0.0001
     50  N        123.2560   76.7240   41.1710 N.3   422  ALA422     -0.1231
     51  CA       121.8520   76.9480   40.9140 C.3   422  ALA422      0.1694
     52  C        121.7110   77.5790   39.5430 C.2   422  ALA422      0.2593
     53  O        122.5370   78.4010   39.1480 O.2   422  ALA422     -0.2718
     54  CB       121.2630   77.8550   41.9760 C.3   422  ALA422      0.0304
     55  N        120.6880   77.1620   38.8050 N.am  423  SER423     -0.1938
     56  CA       120.3480   77.8080   37.5500 C.3   423  SER423      0.2055
     57  C        118.9230   78.3440   37.6390 C.2   423  SER423      0.2642
     58  O        118.2470   78.1460   38.6430 O.2   423  SER423     -0.2714
     59  CB       120.5330   76.8590   36.3640 C.3   423  SER423      0.2130
     60  OG       119.7220   75.7130   36.4680 O.3   423  SER423     -0.2179
     61  N        118.5030   79.0640   36.6050 N.am  424  ALA424     -0.1977
     62  CA       117.1530   79.6200   36.5300 C.3   424  ALA424      0.1597
     63  C        116.8500   79.9850   35.0880 C.2   424  ALA424      0.2287
     64  O        117.6520   80.6610   34.4450 O.2   424  ALA424     -0.2864
     65  CB       117.0150   80.8450   37.4240 C.3   424  ALA424      0.0319
@<TRIPOS>BOND
     1    24    23    2
     2    23    22    1
     3    22    21    1
     4    22    25    1
     5    25    26    1
     6    26    28   am
     7    26    27    2
     8     1     2    1
     9     2     5    1
    10     2     3    1
    11     5     6    1
    12     5     7    1
    13    13    12    1
    14    64    63    2
    15     3     8   am
    16     3     4    2
    17     8     9    1
    18    63    62    1
    19    12     9    1
    20     9    10    1
    21    11    10    2
    22    59    60    1
    23    59    56    1
    24    62    61    1
    25    62    65    1
    26    61    57   am
    27    10    14   am
    28    56    57    1
    29    56    55    1
    30    57    58    2
    31    17    16    2
    32    14    15    1
    33    16    15    1
    34    29    30    1
    35    15    18    1
    36    40    41    1
    37    40    37    1
    38    55    52   am
    39    30    31    1
    40    30    33    1
    41    32    31    2
    42    31    36   am
    43    53    52    2
    44    36    37    1
    45    52    51    1
    46    37    38    1
    47    35    33    1
    48    18    19    1
    49    18    20    1
    50    33    34    1
    51    38    39    2
    52    38    42   am
    53    51    50    1
    54    51    54    1
    55    42    43    1
    56    43    44    1
    57    43    46    1
    58    44    45    2
    59    46    47    1
    60    48    47    1
    61    47    49    1
