@<TRIPOS>MOLECULE
tmp/2ynkA08.pdb
 97 91 0 0 0
SMALL
GASTEIGER

@<TRIPOS>ATOM
      1  N        115.1810   82.4080   28.2570 N.3    73  GLY73      -0.1210
      2  CA       116.3760   82.8210   28.9640 C.3    73  GLY73       0.1956
      3  C        116.8260   81.7360   29.9170 C.2    73  GLY73       0.2612
      4  O        116.0000   80.9910   30.4620 O.2    73  GLY73      -0.2717
      5  N        118.1460   81.6350   30.0850 N.am   74  TYR74      -0.1962
      6  CA       118.7520   80.7370   31.0550 C.3    74  TYR74       0.1771
      7  C        119.9590   81.4330   31.6510 C.2    74  TYR74       0.2620
      8  O        120.7000   82.0910   30.9380 O.2    74  TYR74      -0.2715
      9  CB       119.1750   79.4470   30.3750 C.3    74  TYR74       0.0574
     10  CG       119.9170   78.4650   31.2640 C.ar   74  TYR74      -0.0198
     11  CD1      119.2260   77.6000   32.1030 C.ar   74  TYR74      -0.0009
     12  CD2      121.3120   78.3890   31.2490 C.ar   74  TYR74      -0.0009
     13  CE1      119.8960   76.6910   32.9050 C.ar   74  TYR74       0.0417
     14  CE2      121.9880   77.4820   32.0500 C.ar   74  TYR74       0.0417
     15  CZ       121.2750   76.6340   32.8760 C.ar   74  TYR74       0.1957
     16  OH       121.9280   75.7240   33.6780 O.3    74  TYR74      -0.2866
     17  N        120.1420   81.2990   32.9570 N.am   75  THR75      -0.1951
     18  CA       121.3260   81.8140   33.6400 C.3    75  THR75       0.1897
     19  C        121.7100   80.8650   34.7650 C.2    75  THR75       0.2313
     20  O        120.8460   80.2080   35.3430 O.2    75  THR75      -0.2863
     21  CB       121.0760   83.2110   34.2290 C.3    75  THR75       0.1794
     22  OG1      122.2560   83.6660   34.8880 O.3    75  THR75      -0.2208
     23  CG2      119.9160   83.1840   35.2310 C.3    75  THR75       0.0378
     24  N        124.9220   81.0420   30.3400 N.3    94  ASN94      -0.1225
     25  CA       123.9360   82.0970   30.1950 C.3    94  ASN94       0.1785
     26  C        123.4780   82.1390   28.7560 C.2    94  ASN94       0.2598
     27  O        124.2910   82.1160   27.8420 O.2    94  ASN94      -0.2718
     28  CB       124.5190   83.4560   30.5840 C.3    94  ASN94       0.1169
     29  CG       125.1220   83.4620   31.9740 C.2    94  ASN94       0.2627
     30  OD1      124.4820   83.0980   32.9540 O.2    94  ASN94      -0.2716
     31  ND2      126.3660   83.8850   32.0610 N.am   94  ASN94      -0.0877
     32  N        122.1690   82.1940   28.5520 N.am   95  SER95      -0.1938
     33  CA       121.6120   82.1010   27.2160 C.3    95  SER95       0.2055
     34  C        120.4140   83.0260   27.0820 C.2    95  SER95       0.2642
     35  O        119.7640   83.3720   28.0660 O.2    95  SER95      -0.2714
     36  CB       121.2090   80.6530   26.9400 C.3    95  SER95       0.2130
     37  OG       121.4680   80.2940   25.5960 O.3    95  SER95      -0.2179
     38  N        120.1350   83.4340   25.8560 N.am   96  LEU96      -0.1977
     39  CA       118.9470   84.2050   25.5780 C.3    96  LEU96       0.1596
     40  C        118.4630   83.8640   24.1850 C.2    96  LEU96       0.2287
     41  O        119.2380   83.9350   23.2350 O.2    96  LEU96      -0.2864
     42  CB       119.2570   85.6840   25.6820 C.3    96  LEU96       0.0297
     43  CG       118.0540   86.6110   25.5870 C.3    96  LEU96       0.0022
     44  CD1      116.9720   86.1890   26.5740 C.3    96  LEU96       0.0001
     45  CD2      118.5290   88.0350   25.8380 C.3    96  LEU96       0.0001
     46  N        121.8190   83.9720   21.6930 N.3   115  VAL115     -0.1231
     47  CA       123.0780   84.5830   22.0680 C.3   115  VAL115      0.1692
     48  C        123.4910   84.0030   23.4150 C.2   115  VAL115      0.2592
     49  O        122.6430   83.7410   24.2710 O.2   115  VAL115     -0.2718
     50  CB       122.9670   86.1040   22.1810 C.3   115  VAL115      0.0266
     51  CG1      122.1410   86.4810   23.3930 C.3   115  VAL115      0.0020
     52  CG2      124.3520   86.7240   22.2750 C.3   115  VAL115      0.0020
     53  N        124.8010   83.8230   23.6020 N.am  116  GLU116     -0.1966
     54  CA       125.3250   83.0500   24.7300 C.3   116  GLU116      0.1733
     55  C        126.4690   83.7040   25.5050 C.2   116  GLU116      0.2616
     56  O        127.2070   84.5290   24.9770 O.2   116  GLU116     -0.2715
     57  CB       125.7810   81.6850   24.2270 C.3   116  GLU116      0.0429
     58  CG       124.6390   80.7010   24.0800 C.3   116  GLU116      0.1163
     59  CD       124.9880   79.5260   23.1890 C.2   116  GLU116      0.3649
     60  OE1      126.2090   79.3410   22.8910 O.co2 116  GLU116     -0.2457
     61  OE2      124.0330   78.7960   22.7940 O.co2 116  GLU116     -0.2457
     62  N        126.6060   83.2920   26.7620 N.am  117  GLY117     -0.1955
     63  CA       127.6190   83.7930   27.6540 C.3   117  GLY117      0.1869
     64  C        128.1740   82.6600   28.4910 C.2   117  GLY117      0.2309
     65  O        127.4210   81.9260   29.1150 O.2   117  GLY117     -0.2863
     66  N        129.2090   83.2520   19.5930 N.3   126  ARG126     -0.1245
     67  CA       128.2480   83.2560   20.6920 C.3   126  ARG126      0.1563
     68  C        126.8050   83.4070   20.2020 C.2   126  ARG126      0.2260
     69  O        125.8810   83.3370   20.9960 O.2   126  ARG126     -0.2867
     70  CB       128.5800   84.3510   21.7060 C.3   126  ARG126      0.0307
     71  CG       128.4050   85.7800   21.2180 C.3   126  ARG126      0.0489
     72  CD       129.3510   86.6900   21.9840 C.3   126  ARG126      0.2205
     73  NE       129.1600   88.1090   21.6860 N.pl3 126  ARG126     -0.0865
     74  CZ       128.3740   88.9360   22.3720 C.cat 126  ARG126      0.5346
     75  NH1      127.6650   88.5100   23.4200 N.pl3 126  ARG126      0.1354
     76  NH2      128.2900   90.2070   21.9990 N.pl3 126  ARG126      0.1354
     77  N        108.8440   80.4650   34.9930 N.3   403  LEU403     -0.1245
     78  CA       110.1550   80.4930   35.5930 C.3   403  LEU403      0.1561
     79  C        110.5580   79.0600   35.9560 C.2   403  LEU403      0.2260
     80  O        109.7350   78.3020   36.4640 O.2   403  LEU403     -0.2867
     81  CB       110.0690   81.3670   36.8440 C.3   403  LEU403      0.0270
     82  CG       111.3260   81.7680   37.6120 C.3   403  LEU403      0.0019
     83  CD1      112.2800   82.5730   36.7380 C.3   403  LEU403      0.0001
     84  CD2      110.9150   82.5550   38.8460 C.3   403  LEU403      0.0001
     85  N        118.5030   79.0640   36.6050 N.3   424  ALA424     -0.1245
     86  CA       117.1530   79.6200   36.5300 C.3   424  ALA424      0.1562
     87  C        116.8500   79.9850   35.0880 C.2   424  ALA424      0.2260
     88  O        117.6520   80.6610   34.4450 O.2   424  ALA424     -0.2867
     89  CB       117.0150   80.8450   37.4240 C.3   424  ALA424      0.0290
     90  N        113.5980   81.1380   32.0780 N.3   426  ILE426     -0.1245
     91  CA       112.3860   81.9240   31.9250 C.3   426  ILE426      0.1561
     92  C        111.7910   81.7200   30.5330 C.2   426  ILE426      0.2260
     93  O        112.5240   81.5300   29.5710 O.2   426  ILE426     -0.2867
     94  CB       112.6870   83.4150   32.1720 C.3   426  ILE426      0.0252
     95  CG1      111.3970   84.1890   32.4340 C.3   426  ILE426      0.0019
     96  CG2      113.4660   84.0080   31.0060 C.3   426  ILE426      0.0019
     97  CD1      111.6360   85.5620   33.0180 C.3   426  ILE426      0.0001
@<TRIPOS>BOND
     1    66    67    1
     2    68    67    1
     3    68    69    2
     4    67    70    1
     5    71    70    1
     6    71    72    1
     7    73    72    1
     8    73    74    2
     9    46    47    1
    10    76    74    1
    11    47    50    1
    12    47    48    1
    13    50    52    1
    14    50    51    1
    15    74    75    1
    16    61    59   ar
    17    60    59   ar
    18    59    58    1
    19    41    40    2
    20    48    53   am
    21    48    49    2
    22    53    54    1
    23    58    57    1
    24    40    39    1
    25    57    54    1
    26    54    55    1
    27    56    55    2
    28    55    62   am
    29    39    42    1
    30    39    38    1
    31    43    42    1
    32    43    45    1
    33    43    44    1
    34    37    36    1
    35    38    34   am
    36    62    63    1
    37    36    33    1
    38    34    33    1
    39    34    35    2
    40    33    32    1
    41    63    64    1
    42    27    26    2
    43     1     2    1
    44    64    65    2
    45    32    26   am
    46    26    25    1
    47     2     3    1
    48    93    92    2
    49     3     5   am
    50     3     4    2
    51     5     6    1
    52    25    24    1
    53    25    28    1
    54     9     6    1
    55     9    10    1
    56    92    91    1
    57    28    29    1
    58     8     7    2
    59    96    94    1
    60     6     7    1
    61    12    10   ar
    62    12    14   ar
    63    10    11   ar
    64     7    17   am
    65    91    90    1
    66    91    94    1
    67    29    31   am
    68    29    30    2
    69    14    15   ar
    70    11    13   ar
    71    94    95    1
    72    95    97    1
    73    15    13   ar
    74    15    16    1
    75    17    18    1
    76    18    21    1
    77    18    19    1
    78    21    22    1
    79    21    23    1
    80    88    87    2
    81    19    20    2
    82    77    78    1
    83    87    86    1
    84    78    79    1
    85    78    81    1
    86    79    80    2
    87    86    85    1
    88    86    89    1
    89    83    82    1
    90    81    82    1
    91    82    84    1
