@<TRIPOS>MOLECULE
tmp/2ynkA01.pdb
 72 68 0 0 0
SMALL
GASTEIGER

@<TRIPOS>ATOM
      1  N        107.0530   76.6460   10.7980 N.3   109  VAL109     -0.1245
      2  CA       108.2480   77.4730   10.7380 C.3   109  VAL109      0.1561
      3  C        108.6080   77.9800   12.1230 C.2   109  VAL109      0.2260
      4  O        107.7890   78.6180   12.7820 O.2   109  VAL109     -0.2867
      5  CB       108.0530   78.6640    9.7950 C.3   109  VAL109      0.0252
      6  CG1      109.1800   79.6680    9.9730 C.3   109  VAL109      0.0019
      7  CG2      107.9920   78.1720    8.3620 C.3   109  VAL109      0.0019
      8  N        111.7090   80.1020   13.5820 N.3   111  LEU111     -0.1245
      9  CA       112.9470   80.8510   13.4040 C.3   111  LEU111      0.1561
     10  C        113.4920   81.2110   14.7720 C.2   111  LEU111      0.2260
     11  O        112.9050   82.0190   15.4840 O.2   111  LEU111     -0.2867
     12  CB       112.7200   82.1300   12.5980 C.3   111  LEU111      0.0270
     13  CG       112.2750   81.9650   11.1490 C.3   111  LEU111      0.0019
     14  CD1      112.2690   83.3150   10.4490 C.3   111  LEU111      0.0001
     15  CD2      113.1700   80.9740   10.4160 C.3   111  LEU111      0.0001
     16  N        121.6630   79.6430   15.6240 N.3   129  ALA129     -0.1245
     17  CA       120.2850   79.3970   15.2420 C.3   129  ALA129      0.1562
     18  C        119.8570   77.9650   15.5730 C.2   129  ALA129      0.2260
     19  O        119.2010   77.3190   14.7620 O.2   129  ALA129     -0.2867
     20  CB       120.1120   79.6810   13.7570 C.3   129  ALA129      0.0290
     21  N        116.3080   76.1400   15.0790 N.3   132  ALA132     -0.1231
     22  CA       115.6370   76.8020   13.9550 C.3   132  ALA132      0.1694
     23  C        115.3600   75.8030   12.8610 C.2   132  ALA132      0.2592
     24  O        116.2810   75.1560   12.3860 O.2   132  ALA132     -0.2718
     25  CB       116.4630   77.9550   13.4020 C.3   132  ALA132      0.0304
     26  N        114.0920   75.6690   12.4760 N.am  133  TYR133     -0.1962
     27  CA       113.7250   74.8590   11.3180 C.3   133  TYR133      0.1771
     28  C        112.5270   75.4410   10.5840 C.2   133  TYR133      0.2620
     29  O        111.7920   76.2780   11.1140 O.2   133  TYR133     -0.2715
     30  CB       113.3890   73.4260   11.7460 C.3   133  TYR133      0.0574
     31  CG       112.1290   73.3420   12.5800 C.ar  133  TYR133     -0.0198
     32  CD1      110.8720   73.2170   11.9850 C.ar  133  TYR133     -0.0009
     33  CD2      112.1900   73.4130   13.9650 C.ar  133  TYR133     -0.0009
     34  CE1      109.7130   73.1620   12.7540 C.ar  133  TYR133      0.0417
     35  CE2      111.0480   73.3510   14.7430 C.ar  133  TYR133      0.0417
     36  CZ       109.8070   73.2280   14.1360 C.ar  133  TYR133      0.1957
     37  OH       108.6790   73.1790   14.9280 O.3   133  TYR133     -0.2866
     38  N        112.3510   74.9790    9.3540 N.am  134  GLY134     -0.1954
     39  CA       111.0760   75.0640    8.6600 C.3   134  GLY134      0.1869
     40  C        110.6930   73.6720    8.1850 C.2   134  GLY134      0.2309
     41  O        111.5630   72.8810    7.8130 O.2   134  GLY134     -0.2863
     42  N        113.8820   71.0570    7.4200 N.3   145  PHE145     -0.1227
     43  CA       115.2740   71.4890    7.3340 C.3   145  PHE145      0.1736
     44  C        115.5720   72.4670    8.4490 C.2   145  PHE145      0.2596
     45  O        114.7600   73.3420    8.7420 O.2   145  PHE145     -0.2718
     46  CB       115.6160   72.1460    5.9940 C.3   145  PHE145      0.0547
     47  CG       117.0680   72.5400    5.8860 C.ar  145  PHE145     -0.0202
     48  CD1      118.0330   71.6030    5.5500 C.ar  145  PHE145     -0.0042
     49  CD2      117.4790   73.8370    6.1710 C.ar  145  PHE145     -0.0042
     50  CE1      119.3770   71.9580    5.4800 C.ar  145  PHE145     -0.0003
     51  CE2      118.8120   74.1950    6.1030 C.ar  145  PHE145     -0.0003
     52  CZ       119.7610   73.2550    5.7570 C.ar  145  PHE145     -0.0000
     53  N        116.7530   72.3210    9.0490 N.am  146  GLY146     -0.1942
     54  CA       117.1790   73.1840   10.1450 C.3   146  GLY146      0.2014
     55  C        118.1330   72.5060   11.1070 C.2   146  GLY146      0.2638
     56  O        118.8290   71.5480   10.7510 O.2   146  GLY146     -0.2714
     57  N        118.1670   73.0150   12.3340 N.am  147  GLN147     -0.1977
     58  CA       118.9440   72.4040   13.3950 C.3   147  GLN147      0.1601
     59  C        117.9760   71.9000   14.4280 C.2   147  GLN147      0.2287
     60  O        117.7710   72.5530   15.4580 O.2   147  GLN147     -0.2864
     61  CB       119.9250   73.4050   14.0120 C.3   147  GLN147      0.0394
     62  CG       121.0750   73.7410   13.0820 C.3   147  GLN147      0.0908
     63  CD       122.0880   74.7010   13.6710 C.2   147  GLN147      0.2608
     64  OE1      121.8010   75.4530   14.6050 O.2   147  GLN147     -0.2717
     65  NE2      123.2890   74.6900   13.1110 N.am  147  GLN147     -0.0878
     66  N        122.7190   70.5840   11.6990 N.3   168  THR168     -0.1218
     67  CA       121.9960   71.0690   10.5370 C.3   168  THR168      0.1862
     68  C        121.7470   69.9390    9.5680 C.2   168  THR168      0.2287
     69  O        122.6860   69.2280    9.1830 O.2   168  THR168     -0.2866
     70  CB       122.7610   72.1880    9.8360 C.3   168  THR168      0.1770
     71  OG1      122.6300   73.3800   10.6140 O.3   168  THR168     -0.2211
     72  CG2      122.2190   72.4380    8.4430 C.3   168  THR168      0.0375
@<TRIPOS>BOND
     1    50    48   ar
     2    50    52   ar
     3    48    47   ar
     4    52    51   ar
     5    47    46    1
     6    47    49   ar
     7    46    43    1
     8    51    49   ar
     9    43    42    1
    10    43    44    1
    11    41    40    2
    12    40    39    1
    13     7     5    1
    14    72    70    1
    15    44    45    2
    16    44    53   am
    17    39    38    1
    18    53    54    1
    19    69    68    2
    20    38    28   am
    21    68    67    1
    22     5     6    1
    23     5     2    1
    24    70    67    1
    25    70    71    1
    26    54    55    1
    27    15    13    1
    28    14    13    1
    29    67    66    1
    30    28    29    2
    31    28    27    1
    32     2     1    1
    33     2     3    1
    34    56    55    2
    35    55    57   am
    36    13    12    1
    37    27    30    1
    38    27    26    1
    39    30    31    1
    40    32    31   ar
    41    32    34   ar
    42     3     4    2
    43    57    58    1
    44    24    23    2
    45    26    23   am
    46    31    33   ar
    47    12     9    1
    48    34    36   ar
    49    23    22    1
    50    62    63    1
    51    62    61    1
    52    65    63   am
    53    58    61    1
    54    58    59    1
    55    25    22    1
    56     9     8    1
    57     9    10    1
    58    63    64    2
    59    20    17    1
    60    22    21    1
    61    33    35   ar
    62    36    35   ar
    63    36    37    1
    64    59    60    2
    65    19    18    2
    66    10    11    2
    67    17    18    1
    68    17    16    1
