@<TRIPOS>MOLECULE
tmp/2ynkA03.pdb
 95 95 0 0 0
SMALL
GASTEIGER

@<TRIPOS>ATOM
      1  N        105.4460   80.0960   13.2290 N.3   102  ASN102     -0.1240
      2  CA       104.2530   80.0650   12.4110 C.3   102  ASN102      0.1653
      3  C        104.0370   78.7030   11.7810 C.2   102  ASN102      0.2266
      4  O        104.9350   78.1490   11.1470 O.2   102  ASN102     -0.2867
      5  CB       104.3130   81.1130   11.3160 C.3   102  ASN102      0.1155
      6  CG       102.9510   81.3960   10.7330 C.2   102  ASN102      0.2627
      7  OD1      102.5760   80.8550    9.6920 O.2   102  ASN102     -0.2716
      8  ND2      102.1830   82.2130   11.4330 N.am  102  ASN102     -0.0877
      9  N         99.7720   72.4010    6.6820 N.3   106  TRP106     -0.1227
     10  CA       100.8630   71.7540    5.9510 C.3   106  TRP106      0.1737
     11  C        102.2190   72.3890    6.1510 C.2   106  TRP106      0.2595
     12  O        103.1350   72.1110    5.3790 O.2   106  TRP106     -0.2718
     13  CB       100.5340   71.6960    4.4570 C.3   106  TRP106      0.0564
     14  CG       100.3040   73.0530    3.8390 C.ar  106  TRP106      0.0003
     15  CD1       99.1110   73.7560    3.7790 C.ar  106  TRP106      0.0946
     16  CD2      101.2910   73.9300    3.1880 C.ar  106  TRP106      0.0152
     17  NE1       99.2810   74.9620    3.1530 N.ar  106  TRP106     -0.2442
     18  CE2      100.5590   75.1290    2.7740 C.ar  106  TRP106      0.0810
     19  CE3      102.6510   73.8420    2.9120 C.ar  106  TRP106      0.0012
     20  CZ2      101.1780   76.1790    2.1200 C.ar  106  TRP106      0.0191
     21  CZ3      103.2670   74.9120    2.2510 C.ar  106  TRP106      0.0001
     22  CH2      102.5460   76.0520    1.8670 C.ar  106  TRP106      0.0015
     23  N        102.3860   73.2140    7.1850 N.am  107  TRP107     -0.1976
     24  CA       103.6610   73.8930    7.3980 C.3   107  TRP107      0.1640
     25  C        103.9740   74.2040    8.8340 C.2   107  TRP107      0.2290
     26  O        103.0710   74.3940    9.6430 O.2   107  TRP107     -0.2864
     27  CB       103.7270   75.1680    6.5670 C.3   107  TRP107      0.0576
     28  CG       102.9650   76.3380    7.1240 C.ar  107  TRP107      0.0006
     29  CD1      103.4520   77.3550    7.9310 C.ar  107  TRP107      0.0946
     30  CD2      101.5600   76.6690    6.9080 C.ar  107  TRP107      0.0152
     31  NE1      102.4710   78.2600    8.2330 N.ar  107  TRP107     -0.2442
     32  CE2      101.3110   77.9090    7.6500 C.ar  107  TRP107      0.0810
     33  CE3      100.5120   76.0820    6.2040 C.ar  107  TRP107      0.0012
     34  CZ2      100.0580   78.5160    7.6690 C.ar  107  TRP107      0.0191
     35  CZ3       99.2610   76.7030    6.2270 C.ar  107  TRP107      0.0001
     36  CH2       99.0410   77.8930    6.9430 C.ar  107  TRP107      0.0015
     37  N        107.0530   76.6460   10.7980 N.3   109  VAL109     -0.1245
     38  CA       108.2480   77.4730   10.7380 C.3   109  VAL109      0.1561
     39  C        108.6080   77.9800   12.1230 C.2   109  VAL109      0.2260
     40  O        107.7890   78.6180   12.7820 O.2   109  VAL109     -0.2867
     41  CB       108.0530   78.6640    9.7950 C.3   109  VAL109      0.0252
     42  CG1      109.1800   79.6680    9.9730 C.3   109  VAL109      0.0019
     43  CG2      107.9920   78.1720    8.3620 C.3   109  VAL109      0.0019
     44  N        112.3510   74.9790    9.3540 N.3   134  GLY134     -0.1210
     45  CA       111.0760   75.0640    8.6600 C.3   134  GLY134      0.1956
     46  C        110.6930   73.6720    8.1850 C.2   134  GLY134      0.2612
     47  O        111.5630   72.8810    7.8130 O.2   134  GLY134     -0.2717
     48  N        109.4000   73.3540    8.2210 N.am  135  ALA135     -0.1965
     49  CA       108.9190   72.0550    7.7400 C.3   135  ALA135      0.1728
     50  C        107.6650   72.2040    6.9170 C.2   135  ALA135      0.2616
     51  O        106.8920   73.1450    7.1070 O.2   135  ALA135     -0.2715
     52  CB       108.6750   71.1030    8.8950 C.3   135  ALA135      0.0334
     53  N        107.4780   71.2660    5.9940 N.am  136  VAL136     -0.1977
     54  CA       106.2500   71.1620    5.2170 C.3   136  VAL136      0.1596
     55  C        105.6780   69.7460    5.2850 C.2   136  VAL136      0.2287
     56  O        106.4230   68.7780    5.4630 O.2   136  VAL136     -0.2864
     57  CB       106.4710   71.5310    3.7370 C.3   136  VAL136      0.0276
     58  CG1      106.7680   73.0130    3.6010 C.3   136  VAL136      0.0022
     59  CG2      107.5600   70.6700    3.1130 C.3   136  VAL136      0.0022
     60  N        108.5110   66.9030    6.1800 N.3   143  LEU143     -0.1231
     61  CA       109.8740   67.1110    5.7170 C.3   143  LEU143      0.1693
     62  C        110.3950   68.3880    6.3360 C.2   143  LEU143      0.2593
     63  O        109.7490   69.4310    6.2470 O.2   143  LEU143     -0.2718
     64  CB       109.9310   67.2170    4.1940 C.3   143  LEU143      0.0284
     65  CG       111.3360   67.3970    3.5910 C.3   143  LEU143      0.0019
     66  CD1      112.3070   66.3300    4.0880 C.3   143  LEU143      0.0001
     67  CD2      111.2570   67.3970    2.0690 C.3   143  LEU143      0.0001
     68  N        111.5740   68.3060    6.9420 N.am  144  SER144     -0.1938
     69  CA       112.1080   69.4030    7.7330 C.3   144  SER144      0.2055
     70  C        113.5550   69.7700    7.3760 C.2   144  SER144      0.2643
     71  O        114.3600   68.8980    7.0680 O.2   144  SER144     -0.2714
     72  CB       112.0570   68.9950    9.1900 C.3   144  SER144      0.2130
     73  OG       112.5280   70.0530    9.9880 O.3   144  SER144     -0.2179
     74  N        113.8820   71.0570    7.4200 N.am  145  PHE145     -0.1973
     75  CA       115.2740   71.4890    7.3340 C.3   145  PHE145      0.1639
     76  C        115.5720   72.4670    8.4490 C.2   145  PHE145      0.2290
     77  O        114.7600   73.3420    8.7420 O.2   145  PHE145     -0.2864
     78  CB       115.6160   72.1460    5.9940 C.3   145  PHE145      0.0560
     79  CG       117.0680   72.5400    5.8860 C.ar  145  PHE145     -0.0200
     80  CD1      118.0330   71.6030    5.5500 C.ar  145  PHE145     -0.0042
     81  CD2      117.4790   73.8370    6.1710 C.ar  145  PHE145     -0.0042
     82  CE1      119.3770   71.9580    5.4800 C.ar  145  PHE145     -0.0003
     83  CE2      118.8120   74.1950    6.1030 C.ar  145  PHE145     -0.0003
     84  CZ       119.7610   73.2550    5.7570 C.ar  145  PHE145     -0.0000
     85  N        118.3320   67.4590    7.2690 N.3   170  PHE170     -0.1241
     86  CA       116.9860   67.1190    6.8370 C.3   170  PHE170      0.1605
     87  C        116.4120   66.0390    7.7460 C.2   170  PHE170      0.2264
     88  O        117.1420   65.1880    8.2560 O.2   170  PHE170     -0.2867
     89  CB       117.0070   66.6380    5.3880 C.3   170  PHE170      0.0534
     90  CG       117.3810   67.7100    4.4070 C.ar  170  PHE170     -0.0203
     91  CD1      116.4100   68.5240    3.8450 C.ar  170  PHE170     -0.0042
     92  CD2      118.7070   67.9240    4.0630 C.ar  170  PHE170     -0.0042
     93  CE1      116.7460   69.5230    2.9520 C.ar  170  PHE170     -0.0003
     94  CE2      119.0510   68.9220    3.1690 C.ar  170  PHE170     -0.0003
     95  CZ       118.0640   69.7180    2.6090 C.ar  170  PHE170     -0.0000
@<TRIPOS>BOND
     1    22    20   ar
     2    22    21   ar
     3    67    65    1
     4    20    18   ar
     5    21    19   ar
     6    95    93   ar
     7    95    94   ar
     8    18    17   ar
     9    18    16   ar
    10    19    16   ar
    11    93    91   ar
    12    59    57    1
    13    17    15   ar
    14    94    92   ar
    15    16    14   ar
    16    65    66    1
    17    65    64    1
    18    58    57    1
    19    57    54    1
    20    15    14   ar
    21    14    13    1
    22    91    90   ar
    23    92    90   ar
    24    64    61    1
    25    90    89    1
    26    13    10    1
    27    54    55    1
    28    54    53    1
    29    55    56    2
    30    12    11    2
    31    89    86    1
    32    82    80   ar
    33    82    84   ar
    34    80    79   ar
    35    61    60    1
    36    61    62    1
    37    84    83   ar
    38    79    78    1
    39    79    81   ar
    40    10    11    1
    41    10     9    1
    42    53    50   am
    43    78    75    1
    44    83    81   ar
    45    11    23   am
    46    33    35   ar
    47    33    30   ar
    48    35    36   ar
    49    63    62    2
    50    62    68   am
    51    27    28    1
    52    27    24    1
    53    86    85    1
    54    86    87    1
    55    30    28   ar
    56    30    32   ar
    57    50    51    2
    58    50    49    1
    59    68    69    1
    60    36    34   ar
    61    71    70    2
    62    28    29   ar
    63    23    24    1
    64    75    74    1
    65    75    76    1
    66    70    74   am
    67    70    69    1
    68    24    25    1
    69    32    34   ar
    70    32    31   ar
    71    69    72    1
    72    49    48    1
    73    49    52    1
    74    87    88    2
    75    47    46    2
    76    29    31   ar
    77    46    48   am
    78    46    45    1
    79    43    41    1
    80    76    77    2
    81    45    44    1
    82    25    26    2
    83    72    73    1
    84     7     6    2
    85    41    42    1
    86    41    38    1
    87     6     5    1
    88     6     8   am
    89    38    37    1
    90    38    39    1
    91     4     3    2
    92     5     2    1
    93     3     2    1
    94    39    40    2
    95     2     1    1
