@<TRIPOS>MOLECULE
tmp/2ynmB02.pdb
 153 146 0 0 0
SMALL
GASTEIGER

@<TRIPOS>ATOM
      1  N         64.3330   30.2580  -11.9930 N.3    12  GLY12      -0.1225
      2  CA        65.7520   30.5570  -11.9110 C.3    12  GLY12       0.1811
      3  C         66.5570   29.5840  -11.0730 C.2    12  GLY12       0.2280
      4  O         67.7560   29.7750  -10.8590 O.2    12  GLY12      -0.2866
      5  N         67.6320   26.8200  -11.7950 N.3    14  GLY14      -0.1210
      6  CA        68.6640   26.1930  -12.5990 C.3    14  GLY14       0.1956
      7  C         68.1140   25.0590  -13.4410 C.2    14  GLY14       0.2612
      8  O         68.8020   24.0640  -13.6810 O.2    14  GLY14      -0.2717
      9  N         66.8680   25.2110  -13.8870 N.am   15  LYS15      -0.1965
     10  CA        66.2020   24.1850  -14.6850 C.3    15  LYS15       0.1728
     11  C         66.8690   23.9880  -16.0440 C.2    15  LYS15       0.2617
     12  O         67.1060   22.8560  -16.4660 O.2    15  LYS15      -0.2715
     13  CB        64.7180   24.5190  -14.8720 C.3    15  LYS15       0.0311
     14  CG        63.8790   24.3670  -13.6110 C.3    15  LYS15       0.0038
     15  CD        62.4270   24.7420  -13.8730 C.3    15  LYS15       0.0206
     16  CE        62.2980   26.2080  -14.2640 C.3    15  LYS15       0.1093
     17  NZ        62.6470   27.1150  -13.1410 N.3    15  LYS15      -0.1314
     18  N         67.1690   25.0930  -16.7240 N.am   16  SER16      -0.1936
     19  CA        67.8060   25.0330  -18.0370 C.3    16  SER16       0.2055
     20  C         69.2520   24.5600  -17.9520 C.2    16  SER16       0.2643
     21  O         69.7210   23.8100  -18.8090 O.2    16  SER16      -0.2714
     22  CB        67.7410   26.3910  -18.7340 C.3    16  SER16       0.2130
     23  OG        66.4040   26.7300  -19.0420 O.3    16  SER16      -0.2179
     24  N         69.9500   25.0120  -16.9150 N.am   17  THR17      -0.1950
     25  CA        71.3270   24.6020  -16.6820 C.3    17  THR17       0.1897
     26  C         71.3870   23.1000  -16.4390 C.2    17  THR17       0.2313
     27  O         72.2080   22.3930  -17.0280 O.2    17  THR17      -0.2863
     28  CB        71.9310   25.3290  -15.4720 C.3    17  THR17       0.1794
     29  OG1       71.8760   26.7440  -15.6820 O.3    17  THR17      -0.2208
     30  CG2       73.3750   24.9120  -15.2700 C.3    17  THR17       0.0378
     31  N         61.4430   32.6670  -23.5300 N.3    41  LYS41      -0.1245
     32  CA        62.8070   33.1920  -23.5750 C.3    41  LYS41       0.1561
     33  C         63.7320   32.3970  -24.4980 C.2    41  LYS41       0.2260
     34  O         64.7990   32.8830  -24.8750 O.2    41  LYS41      -0.2867
     35  CB        63.4170   33.2410  -22.1710 C.3    41  LYS41       0.0271
     36  CG        62.7700   34.2450  -21.2300 C.3    41  LYS41       0.0035
     37  CD        63.7080   34.6160  -20.0820 C.3    41  LYS41       0.0206
     38  CE        63.5480   33.6960  -18.8750 C.3    41  LYS41       0.1093
     39  NZ        63.9100   32.2790  -19.1600 N.3    41  LYS41      -0.1314
     40  N         65.8490   30.0650  -23.9780 N.3    43  ASP43      -0.1239
     41  CA        67.2120   30.0200  -23.4590 C.3    43  ASP43       0.1674
     42  C         67.5420   28.6610  -22.8470 C.2    43  ASP43       0.2266
     43  O         68.4160   28.5530  -21.9880 O.2    43  ASP43      -0.2867
     44  CB        67.4190   31.1210  -22.4150 C.3    43  ASP43       0.1410
     45  CG        66.3560   31.1040  -21.3270 C.2    43  ASP43       0.3668
     46  OD1       65.4940   30.2000  -21.3440 O.co2  43  ASP43      -0.2456
     47  OD2       66.3860   31.9930  -20.4470 O.co2  43  ASP43      -0.2456
     48  N         69.9250   21.9420   -5.8300 N.3   182  ASN182     -0.1225
     49  CA        70.8180   22.7690   -6.6300 C.3   182  ASN182      0.1785
     50  C         71.1530   24.0800   -5.9210 C.2   182  ASN182      0.2597
     51  O         70.3200   24.6280   -5.1950 O.2   182  ASN182     -0.2718
     52  CB        70.1790   23.0520   -7.9910 C.3   182  ASN182      0.1169
     53  CG        71.1790   23.5380   -9.0170 C.2   182  ASN182      0.2627
     54  OD1       72.3250   23.0950   -9.0410 O.2   182  ASN182     -0.2716
     55  ND2       70.7500   24.4610   -9.8700 N.am  182  ASN182     -0.0877
     56  N         72.3740   24.5700   -6.1330 N.am  183  ARG183     -0.1979
     57  CA        72.8500   25.8180   -5.5300 C.3   183  ARG183      0.1597
     58  C         72.8220   25.8000   -4.0040 C.2   183  ARG183      0.2287
     59  O         72.6730   26.8450   -3.3700 O.2   183  ARG183     -0.2864
     60  CB        72.0460   27.0190   -6.0420 C.3   183  ARG183      0.0334
     61  CG        72.1470   27.2530   -7.5310 C.3   183  ARG183      0.0492
     62  CD        71.3060   28.4450   -7.9580 C.3   183  ARG183      0.2205
     63  NE        71.6180   29.6380   -7.1790 N.pl3 183  ARG183     -0.0865
     64  CZ        72.6390   30.4500   -7.4340 C.cat 183  ARG183      0.5346
     65  NH1       73.4530   30.1940   -8.4480 N.pl3 183  ARG183      0.1354
     66  NH2       72.8500   31.5150   -6.6720 N.pl3 183  ARG183      0.1354
     67  N         73.6850   19.3050   -6.1290 N.3   205  PHE205     -0.1227
     68  CA        74.6910   20.2230   -6.6500 C.3   205  PHE205      0.1736
     69  C         74.8760   21.3840   -5.6830 C.2   205  PHE205      0.2595
     70  O         73.9010   21.9950   -5.2420 O.2   205  PHE205     -0.2718
     71  CB        74.2710   20.7780   -8.0120 C.3   205  PHE205      0.0547
     72  CG        74.0850   19.7290   -9.0720 C.ar  205  PHE205     -0.0202
     73  CD1       75.1590   19.3000   -9.8350 C.ar  205  PHE205     -0.0042
     74  CD2       72.8340   19.1870   -9.3170 C.ar  205  PHE205     -0.0042
     75  CE1       74.9890   18.3450  -10.8160 C.ar  205  PHE205     -0.0003
     76  CE2       72.6590   18.2260  -10.2930 C.ar  205  PHE205     -0.0003
     77  CZ        73.7370   17.8040  -11.0430 C.ar  205  PHE205     -0.0000
     78  N         76.1260   21.6890   -5.3580 N.am  206  ARG206     -0.1966
     79  CA        76.4350   22.8370   -4.5170 C.3   206  ARG206      0.1729
     80  C         76.3610   24.1190   -5.3330 C.2   206  ARG206      0.2616
     81  O         76.0500   24.0920   -6.5220 O.2   206  ARG206     -0.2715
     82  CB        77.8320   22.6950   -3.9170 C.3   206  ARG206      0.0348
     83  CG        77.9290   21.6840   -2.7900 C.3   206  ARG206      0.0492
     84  CD        79.3770   21.4910   -2.3640 C.3   206  ARG206      0.2205
     85  NE        79.5300   21.4930   -0.9120 N.pl3 206  ARG206     -0.0865
     86  CZ        79.7670   22.5820   -0.1870 C.cat 206  ARG206      0.5346
     87  NH1       79.8760   23.7670   -0.7760 N.pl3 206  ARG206      0.1354
     88  NH2       79.8940   22.4870    1.1300 N.pl3 206  ARG206      0.1354
     89  N         76.6440   25.2430   -4.6860 N.am  207  ASN207     -0.1958
     90  CA        76.7490   26.5120   -5.3870 C.3   207  ASN207      0.1819
     91  C         78.1310   26.6020   -6.0210 C.2   207  ASN207      0.2621
     92  O         79.1030   26.9750   -5.3630 O.2   207  ASN207     -0.2715
     93  CB        76.5260   27.6740   -4.4170 C.3   207  ASN207      0.1195
     94  CG        76.1730   28.9690   -5.1230 C.2   207  ASN207      0.2630
     95  OD1       76.6790   29.2600   -6.2080 O.2   207  ASN207     -0.2716
     96  ND2       75.2950   29.7550   -4.5080 N.am  207  ASN207     -0.0877
     97  N         78.2160   26.2420   -7.2980 N.am  208  VAL208     -0.1963
     98  CA        79.4970   26.1790   -7.9960 C.3   208  VAL208      0.1727
     99  C         79.6320   27.2930   -9.0310 C.2   208  VAL208      0.2616
    100  O         78.7830   27.4440   -9.9080 O.2   208  VAL208     -0.2715
    101  CB        79.6790   24.8230   -8.7000 C.3   208  VAL208      0.0290
    102  CG1       81.0750   24.7150   -9.2900 C.3   208  VAL208      0.0023
    103  CG2       79.4170   23.6910   -7.7290 C.3   208  VAL208      0.0023
    104  N         80.7100   28.0640   -8.9320 N.am  209  ASP209     -0.1971
    105  CA        80.9080   29.2050   -9.8210 C.3   209  ASP209      0.1709
    106  C         81.2130   28.7750  -11.2540 C.2   209  ASP209      0.2293
    107  O         80.9240   29.5050  -12.2030 O.2   209  ASP209     -0.2864
    108  CB        82.0130   30.1170   -9.2900 C.3   209  ASP209      0.1436
    109  CG        82.0040   31.4780   -9.9490 C.2   209  ASP209      0.3671
    110  OD1       81.0180   32.2200   -9.7550 O.co2 209  ASP209     -0.2456
    111  OD2       82.9790   31.8080  -10.6560 O.co2 209  ASP209     -0.2456
    112  N         79.7310   26.4990  -12.8090 N.3   211  ILE211     -0.1231
    113  CA        78.4250   26.3180  -13.4340 C.3   211  ILE211      0.1692
    114  C         77.8960   27.6460  -13.9670 C.2   211  ILE211      0.2591
    115  O         77.4160   27.7220  -15.0980 O.2   211  ILE211     -0.2718
    116  CB        77.4200   25.6940  -12.4540 C.3   211  ILE211      0.0266
    117  CG1       77.8100   24.2420  -12.1680 C.3   211  ILE211      0.0019
    118  CG2       76.0160   25.7530  -13.0130 C.3   211  ILE211      0.0020
    119  CD1       76.9090   23.5480  -11.1840 C.3   211  ILE211      0.0001
    120  N         77.9950   28.6890  -13.1480 N.am  212  ARG212     -0.1980
    121  CA        77.6260   30.0380  -13.5620 C.3   212  ARG212      0.1597
    122  C         78.4500   30.4650  -14.7710 C.2   212  ARG212      0.2287
    123  O         77.9210   31.0160  -15.7340 O.2   212  ARG212     -0.2864
    124  CB        77.8560   31.0290  -12.4210 C.3   212  ARG212      0.0334
    125  CG        77.6400   32.4840  -12.8150 C.3   212  ARG212      0.0492
    126  CD        78.2180   33.4350  -11.7770 C.3   212  ARG212      0.2205
    127  NE        79.6800   33.4460  -11.7980 N.pl3 212  ARG212     -0.0865
    128  CZ        80.4150   34.4260  -12.3170 C.cat 212  ARG212      0.5346
    129  NH1       79.8300   35.4860  -12.8560 N.pl3 212  ARG212      0.1354
    130  NH2       81.7360   34.3490  -12.2930 N.pl3 212  ARG212      0.1354
    131  N         77.4660   28.7940  -18.2890 N.3   215  ARG215     -0.1245
    132  CA        76.3490   29.4120  -18.9960 C.3   215  ARG215      0.1563
    133  C         76.8310   30.6480  -19.7480 C.2   215  ARG215      0.2260
    134  O         76.3610   30.9420  -20.8470 O.2   215  ARG215     -0.2867
    135  CB        75.2270   29.7900  -18.0240 C.3   215  ARG215      0.0307
    136  CG        74.5940   28.6070  -17.3040 C.3   215  ARG215      0.0489
    137  CD        73.7220   27.7790  -18.2400 C.3   215  ARG215      0.2205
    138  NE        72.4760   28.4590  -18.5900 N.pl3 215  ARG215     -0.0865
    139  CZ        71.5210   27.9250  -19.3450 C.cat 215  ARG215      0.5346
    140  NH1       71.6650   26.6970  -19.8280 N.pl3 215  ARG215      0.1354
    141  NH2       70.4200   28.6130  -19.6160 N.pl3 215  ARG215      0.1354
    142  N         76.0710   14.9810  -12.7060 N.3   238  TYR238     -0.1241
    143  CA        75.1690   14.9250  -13.8520 C.3   238  TYR238      0.1605
    144  C         75.1310   13.5230  -14.4590 C.2   238  TYR238      0.2264
    145  O         74.0700   13.0350  -14.8540 O.2   238  TYR238     -0.2867
    146  CB        75.5700   15.9510  -14.9130 C.3   238  TYR238      0.0534
    147  CG        75.1310   17.3650  -14.5970 C.ar  238  TYR238     -0.0201
    148  CD1       73.7850   17.6810  -14.4670 C.ar  238  TYR238     -0.0009
    149  CD2       76.0590   18.3860  -14.4490 C.ar  238  TYR238     -0.0009
    150  CE1       73.3740   18.9740  -14.1840 C.ar  238  TYR238      0.0417
    151  CE2       75.6580   19.6810  -14.1700 C.ar  238  TYR238      0.0417
    152  CZ        74.3170   19.9700  -14.0350 C.ar  238  TYR238      0.1957
    153  OH        73.9220   21.2590  -13.7560 O.3   238  TYR238     -0.2866
@<TRIPOS>BOND
     1    34    33    2
     2    33    32    1
     3    40    41    1
     4    32    31    1
     5    32    35    1
     6    41    42    1
     7    41    44    1
     8    42    43    2
     9    44    45    1
    10    35    36    1
    11    46    45   ar
    12    45    47   ar
    13    36    37    1
    14   134   133    2
    15    37    38    1
    16   140   139    1
    17   133   132    1
    18   141   139    1
    19   139   138    2
    20    39    38    1
    21    23    22    1
    22   132   131    1
    23   132   135    1
    24    21    20    2
    25    22    19    1
    26   138   137    1
    27   137   136    1
    28    19    20    1
    29    19    18    1
    30   135   136    1
    31    20    24   am
    32    27    26    2
    33    24    25    1
    34    18    11   am
    35    25    26    1
    36    25    28    1
    37    12    11    2
    38    11    10    1
    39   123   122    2
    40    29    28    1
    41    28    30    1
    42   115   114    2
    43   146   147    1
    44   146   143    1
    45    13    10    1
    46    13    14    1
    47   145   144    2
    48   122   121    1
    49    10     9    1
    50   147   148   ar
    51   147   149   ar
    52   148   150   ar
    53   144   143    1
    54   149   151   ar
    55    16    15    1
    56    16    17    1
    57   150   152   ar
    58   151   152   ar
    59   152   153    1
    60   114   113    1
    61   114   120   am
    62     9     7   am
    63    15    14    1
    64   143   142    1
    65     8     7    2
    66   121   120    1
    67   121   124    1
    68     7     6    1
    69   113   112    1
    70   113   116    1
    71   118   116    1
    72   129   128    1
    73   125   124    1
    74   125   126    1
    75     6     5    1
    76   116   117    1
    77   128   130    1
    78   128   127    2
    79   107   106    2
    80   117   119    1
    81     1     2    1
    82     2     3    1
    83   127   126    1
    84   106   105    1
    85     3     4    2
    86    77    75   ar
    87    77    76   ar
    88    75    73   ar
    89   111   109   ar
    90    76    74   ar
    91   109   110   ar
    92   109   108    1
    93   100    99    2
    94    55    53   am
    95    73    72   ar
    96   105   108    1
    97   105   104    1
    98    74    72   ar
    99   102   101    1
   100    72    71    1
   101    54    53    2
   102    99   104   am
   103    99    98    1
   104    53    52    1
   105   101    98    1
   106   101   103    1
   107    65    64    1
   108    71    68    1
   109    98    97    1
   110    52    49    1
   111    62    61    1
   112    62    63    1
   113    61    60    1
   114    64    63    2
   115    64    66    1
   116    97    91   am
   117    68    67    1
   118    68    69    1
   119    49    50    1
   120    49    48    1
   121    81    80    2
   122    95    94    2
   123    56    50   am
   124    56    57    1
   125    60    57    1
   126    91    90    1
   127    91    92    2
   128    50    51    2
   129    69    78   am
   130    69    70    2
   131    57    58    1
   132    90    89    1
   133    90    93    1
   134    78    79    1
   135    80    89   am
   136    80    79    1
   137    94    96   am
   138    94    93    1
   139    79    82    1
   140    58    59    2
   141    82    83    1
   142    83    84    1
   143    84    85    1
   144    85    86    2
   145    87    86    1
   146    86    88    1
