@<TRIPOS>MOLECULE
tmp/2ynmC00.pdb
 117 113 0 0 0
SMALL
GASTEIGER

@<TRIPOS>ATOM
      1  N         33.6930   33.3480  -40.1190 N.3    22  PHE22      -0.1241
      2  CA        33.1490   32.6110  -38.9850 C.3    22  PHE22       0.1605
      3  C         34.2330   31.7260  -38.3900 C.2    22  PHE22       0.2264
      4  O         35.1180   31.2590  -39.1070 O.2    22  PHE22      -0.2867
      5  CB        31.9800   31.7290  -39.4260 C.3    22  PHE22       0.0534
      6  CG        30.6920   32.4700  -39.6120 C.ar   22  PHE22      -0.0203
      7  CD1       30.2550   33.3790  -38.6630 C.ar   22  PHE22      -0.0042
      8  CD2       29.9150   32.2570  -40.7400 C.ar   22  PHE22      -0.0042
      9  CE1       29.0630   34.0600  -38.8350 C.ar   22  PHE22      -0.0003
     10  CE2       28.7230   32.9340  -40.9170 C.ar   22  PHE22      -0.0003
     11  CZ        28.2970   33.8400  -39.9630 C.ar   22  PHE22      -0.0000
     12  N         30.8820   27.1820  -35.9400 N.3    26  THR26      -0.1218
     13  CA        29.7070   27.2830  -36.7930 C.3    26  THR26       0.1862
     14  C         29.4300   25.9960  -37.5730 C.2    26  THR26       0.2287
     15  O         28.3600   25.8420  -38.1630 O.2    26  THR26      -0.2866
     16  CB        29.8530   28.4590  -37.7690 C.3    26  THR26       0.1770
     17  OG1       30.9520   28.2100  -38.6530 O.3    26  THR26      -0.2211
     18  CG2       30.1220   29.7500  -37.0030 C.3    26  THR26       0.0375
     19  N         26.1410   24.0380  -36.9470 N.3    29  VAL29      -0.1231
     20  CA        24.9000   24.4070  -37.6240 C.3    29  VAL29       0.1692
     21  C         24.4920   23.4100  -38.7120 C.2    29  VAL29       0.2592
     22  O         23.3140   23.0890  -38.8500 O.2    29  VAL29      -0.2718
     23  CB        24.9780   25.8320  -38.2170 C.3    29  VAL29       0.0266
     24  CG1       23.6540   26.2170  -38.8760 C.3    29  VAL29       0.0020
     25  CG2       25.3460   26.8310  -37.1300 C.3    29  VAL29       0.0020
     26  N         25.4540   22.9100  -39.4800 N.am   30  TRP30      -0.1976
     27  CA        25.1130   21.8970  -40.4780 C.3    30  TRP30       0.1640
     28  C         25.3510   20.4620  -40.0020 C.2    30  TRP30       0.2290
     29  O         24.6290   19.5480  -40.3920 O.2    30  TRP30      -0.2864
     30  CB        25.7780   22.1710  -41.8400 C.3    30  TRP30       0.0576
     31  CG        27.2800   21.9990  -41.9130 C.ar   30  TRP30       0.0006
     32  CD1       27.9630   20.8450  -42.1810 C.ar   30  TRP30       0.0946
     33  CD2       28.2730   23.0270  -41.7720 C.ar   30  TRP30       0.0152
     34  NE1       29.3150   21.0880  -42.1940 N.ar   30  TRP30      -0.2442
     35  CE2       29.5310   22.4190  -41.9460 C.ar   30  TRP30       0.0810
     36  CE3       28.2180   24.3990  -41.5070 C.ar   30  TRP30       0.0012
     37  CZ2       30.7250   23.1350  -41.8630 C.ar   30  TRP30       0.0191
     38  CZ3       29.4050   25.1090  -41.4260 C.ar   30  TRP30       0.0001
     39  CH2       30.6400   24.4760  -41.6060 C.ar   30  TRP30       0.0015
     40  N         26.9580   32.9550  -30.2480 N.3    51  LEU51      -0.1245
     41  CA        27.2160   32.7120  -31.6620 C.3    51  LEU51       0.1561
     42  C         26.2870   31.6520  -32.2420 C.2    51  LEU51       0.2260
     43  O         25.5960   31.8920  -33.2340 O.2    51  LEU51      -0.2867
     44  CB        28.6690   32.2820  -31.8850 C.3    51  LEU51       0.0270
     45  CG        28.9120   31.5750  -33.2270 C.3    51  LEU51       0.0019
     46  CD1       28.8900   32.5540  -34.3960 C.3    51  LEU51       0.0001
     47  CD2       30.2040   30.7810  -33.2090 C.3    51  LEU51       0.0001
     48  N         22.5340   32.4880  -32.2240 N.3    54  SER54      -0.1202
     49  CA        22.2240   33.5800  -33.1410 C.3    54  SER54       0.2020
     50  C         22.1810   33.0370  -34.5670 C.2    54  SER54       0.2618
     51  O         21.5520   33.6210  -35.4500 O.2    54  SER54      -0.2717
     52  CB        23.2410   34.7200  -33.0220 C.3    54  SER54       0.2103
     53  OG        23.0960   35.4210  -31.7970 O.3    54  SER54      -0.2182
     54  N         22.8490   31.9060  -34.7740 N.am   55  ALA55      -0.1979
     55  CA        22.8860   31.2510  -36.0750 C.3    55  ALA55       0.1597
     56  C         21.6920   30.3220  -36.2550 C.2    55  ALA55       0.2287
     57  O         20.9110   30.4660  -37.1980 O.2    55  ALA55      -0.2864
     58  CB        24.1830   30.4710  -36.2320 C.3    55  ALA55       0.0319
     59  N         17.0710   30.7500  -34.8600 N.3    58  VAL58      -0.1245
     60  CA        15.9360   31.2670  -35.6100 C.3    58  VAL58       0.1561
     61  C         14.9250   30.1300  -35.7760 C.2    58  VAL58       0.2260
     62  O         13.7190   30.3570  -35.9030 O.2    58  VAL58      -0.2867
     63  CB        16.3750   31.8380  -36.9760 C.3    58  VAL58       0.0252
     64  CG1       17.1550   30.7910  -37.7790 C.3    58  VAL58       0.0019
     65  CG2       15.1800   32.3640  -37.7540 C.3    58  VAL58       0.0019
     66  N         35.4480   28.7810  -40.1770 N.3   147  PHE147     -0.1241
     67  CA        34.2120   28.2850  -40.7820 C.3   147  PHE147      0.1605
     68  C         34.2130   26.7750  -41.0180 C.2   147  PHE147      0.2264
     69  O         34.0860   25.9850  -40.0830 O.2   147  PHE147     -0.2867
     70  CB        33.9470   29.0150  -42.1040 C.3   147  PHE147      0.0534
     71  CG        32.5590   28.8050  -42.6570 C.ar  147  PHE147     -0.0203
     72  CD1       31.4840   28.5820  -41.8130 C.ar  147  PHE147     -0.0042
     73  CD2       32.3360   28.8220  -44.0250 C.ar  147  PHE147     -0.0042
     74  CE1       30.2090   28.3900  -42.3210 C.ar  147  PHE147     -0.0003
     75  CE2       31.0650   28.6280  -44.5410 C.ar  147  PHE147     -0.0003
     76  CZ        30.0010   28.4120  -43.6860 C.ar  147  PHE147     -0.0000
     77  N         27.5550   37.6540  -44.6300 N.3   369  MET369     -0.1245
     78  CA        26.3550   38.4120  -44.2940 C.3   369  MET369      0.1570
     79  C         26.6420   39.6230  -43.4040 C.2   369  MET369      0.2261
     80  O         25.7300   40.3640  -43.0380 O.2   369  MET369     -0.2867
     81  CB        25.3040   37.4920  -43.6660 C.3   369  MET369      0.0387
     82  CG        24.7260   36.4790  -44.6510 C.3   369  MET369      0.0595
     83  SD        23.6060   35.2840  -43.8980 S.3   369  MET369     -0.1393
     84  CE        24.7590   34.2640  -42.9820 C.3   369  MET369      0.0692
     85  N         25.3060   36.0180  -51.1060 N.3   384  TRP384     -0.1241
     86  CA        25.7620   35.6260  -49.7770 C.3   384  TRP384      0.1605
     87  C         26.4530   34.2630  -49.7850 C.2   384  TRP384      0.2264
     88  O         25.8790   33.2600  -50.2070 O.2   384  TRP384     -0.2867
     89  CB        24.6270   35.6940  -48.7500 C.3   384  TRP384      0.0550
     90  CG        23.4250   34.8550  -49.0590 C.ar  384  TRP384      0.0003
     91  CD1       22.4790   35.0880  -50.0180 C.ar  384  TRP384      0.0946
     92  CD2       23.0150   33.6660  -48.3730 C.ar  384  TRP384      0.0152
     93  NE1       21.5160   34.1060  -49.9810 N.ar  384  TRP384     -0.2442
     94  CE2       21.8230   33.2220  -48.9800 C.ar  384  TRP384      0.0810
     95  CE3       23.5470   32.9290  -47.3090 C.ar  384  TRP384      0.0012
     96  CZ2       21.1550   32.0760  -48.5590 C.ar  384  TRP384      0.0191
     97  CZ3       22.8820   31.7920  -46.8920 C.ar  384  TRP384      0.0001
     98  CH2       21.6990   31.3760  -47.5170 C.ar  384  TRP384      0.0015
     99  N         27.5150   31.9850  -47.6310 N.3   386  ILE386     -0.1245
    100  CA        27.1940   30.8370  -46.7890 C.3   386  ILE386      0.1561
    101  C         26.3130   29.8060  -47.5040 C.2   386  ILE386      0.2260
    102  O         26.3950   28.6070  -47.2240 O.2   386  ILE386     -0.2867
    103  CB        26.5360   31.2880  -45.4680 C.3   386  ILE386      0.0252
    104  CG1       27.4250   32.3130  -44.7620 C.3   386  ILE386      0.0019
    105  CG2       26.2760   30.1040  -44.5480 C.3   386  ILE386      0.0019
    106  CD1       28.8120   31.7960  -44.4410 C.3   386  ILE386      0.0001
    107  N         25.1010   25.1930  -47.6780 N.3   390  PHE390     -0.1241
    108  CA        23.7670   24.7020  -47.3420 C.3   390  PHE390      0.1605
    109  C         22.8980   24.4470  -48.5770 C.2   390  PHE390      0.2264
    110  O         21.6750   24.5610  -48.5170 O.2   390  PHE390     -0.2867
    111  CB        23.0730   25.6670  -46.3760 C.3   390  PHE390      0.0534
    112  CG        23.6630   25.6630  -44.9930 C.ar  390  PHE390     -0.0203
    113  CD1       24.8950   26.2500  -44.7470 C.ar  390  PHE390     -0.0042
    114  CD2       22.9880   25.0690  -43.9400 C.ar  390  PHE390     -0.0042
    115  CE1       25.4430   26.2420  -43.4780 C.ar  390  PHE390     -0.0003
    116  CE2       23.5300   25.0590  -42.6680 C.ar  390  PHE390     -0.0003
    117  CZ        24.7600   25.6460  -42.4380 C.ar  390  PHE390     -0.0000
@<TRIPOS>BOND
     1    85    86    1
     2    88    87    2
     3    91    93   ar
     4    91    90   ar
     5    93    94   ar
     6    87    86    1
     7    86    89    1
     8    90    89    1
     9    90    92   ar
    10    94    96   ar
    11    94    92   ar
    12   109   110    2
    13   109   108    1
    14    96    98   ar
    15    92    95   ar
    16   107   108    1
    17    99   100    1
    18    98    97   ar
    19   101   102    2
    20   101   100    1
    21   108   111    1
    22    95    97   ar
    23   100   103    1
    24   111   112    1
    25   103   104    1
    26   103   105    1
    27   112   113   ar
    28   112   114   ar
    29   104   106    1
    30   113   115   ar
    31    82    83    1
    32    82    81    1
    33    77    78    1
    34    75    73   ar
    35    75    76   ar
    36    78    81    1
    37    78    79    1
    38    73    71   ar
    39   114   116   ar
    40    83    84    1
    41    76    74   ar
    42   115   117   ar
    43    79    80    2
    44   116   117   ar
    45    71    70    1
    46    71    72   ar
    47    74    72   ar
    48    34    32   ar
    49    34    35   ar
    50    32    31   ar
    51    70    67    1
    52    35    37   ar
    53    35    33   ar
    54    31    30    1
    55    31    33   ar
    56    37    39   ar
    57    30    27    1
    58    33    36   ar
    59    39    38   ar
    60    36    38   ar
    61    68    67    1
    62    68    69    2
    63    10     8   ar
    64    10    11   ar
    65    67    66    1
    66     8     6   ar
    67    27    28    1
    68    27    26    1
    69    29    28    2
    70     1     2    1
    71    11     9   ar
    72     6     5    1
    73     6     7   ar
    74    26    21   am
    75     5     2    1
    76     4     3    2
    77     2     3    1
    78    24    23    1
    79    22    21    2
    80     9     7   ar
    81    21    20    1
    82    17    16    1
    83    23    20    1
    84    23    25    1
    85    15    14    2
    86    64    63    1
    87    16    18    1
    88    16    13    1
    89    65    63    1
    90    20    19    1
    91    14    13    1
    92    57    56    2
    93    63    60    1
    94    13    12    1
    95    56    55    1
    96    58    55    1
    97    55    54    1
    98    62    61    2
    99    61    60    1
   100    60    59    1
   101    51    50    2
   102    54    50   am
   103    50    49    1
   104    46    45    1
   105    43    42    2
   106    45    47    1
   107    45    44    1
   108    49    52    1
   109    49    48    1
   110    52    53    1
   111    42    41    1
   112    44    41    1
   113    41    40    1
