@<TRIPOS>MOLECULE
tmp/2ynmD02.pdb
 106 98 0 0 0
SMALL
GASTEIGER

@<TRIPOS>ATOM
      1  N         11.5880   46.1950  -30.0670 N.3   171  ARG171     -0.1245
      2  CA        10.6620   47.1220  -30.7180 C.3   171  ARG171      0.1563
      3  C         10.9620   48.5870  -30.4000 C.2   171  ARG171      0.2260
      4  O         10.0570   49.4200  -30.3790 O.2   171  ARG171     -0.2867
      5  CB         9.2100   46.7930  -30.3540 C.3   171  ARG171      0.0307
      6  CG         8.8550   45.3200  -30.4580 C.3   171  ARG171      0.0489
      7  CD         8.7100   44.8620  -31.9010 C.3   171  ARG171      0.2205
      8  NE         8.3300   43.4540  -31.9710 N.pl3 171  ARG171     -0.0865
      9  CZ         7.0840   43.0110  -31.8310 C.cat 171  ARG171      0.5346
     10  NH1        6.0940   43.8710  -31.6200 N.pl3 171  ARG171      0.1354
     11  NH2        6.8260   41.7100  -31.9000 N.pl3 171  ARG171      0.1354
     12  N          9.9090   29.7620  -26.8270 N.3   363  ARG363     -0.1245
     13  CA         9.2900   29.1060  -27.9710 C.3   363  ARG363      0.1563
     14  C          9.7910   27.6680  -28.0550 C.2   363  ARG363      0.2260
     15  O          9.0480   26.7660  -28.4380 O.2   363  ARG363     -0.2867
     16  CB         9.6020   29.8650  -29.2640 C.3   363  ARG363      0.0307
     17  CG         9.1600   31.3200  -29.2440 C.3   363  ARG363      0.0489
     18  CD         9.5520   32.0400  -30.5190 C.3   363  ARG363      0.2205
     19  NE         8.8580   31.5040  -31.6860 N.pl3 363  ARG363     -0.0865
     20  CZ         9.0450   31.9350  -32.9290 C.cat 363  ARG363      0.5346
     21  NH1        9.9070   32.9130  -33.1720 N.pl3 363  ARG363      0.1354
     22  NH2        8.3690   31.3900  -33.9320 N.pl3 363  ARG363      0.1354
     23  N          2.4270   30.0680  -27.6880 N.3   373  CYS373     -0.1221
     24  CA         3.4620   30.9810  -27.2250 C.3   373  CYS373      0.1808
     25  C          3.4520   32.3020  -27.9840 C.2   373  CYS373      0.2601
     26  O          3.0170   32.3690  -29.1320 O.2   373  CYS373     -0.2717
     27  CB         4.8390   30.3230  -27.3580 C.3   373  CYS373      0.0970
     28  SG         6.1980   31.2550  -26.6090 S.3   373  CYS373     -0.0800
     29  N          3.9380   33.3470  -27.3240 N.am  374  ALA374     -0.1965
     30  CA         4.1310   34.6510  -27.9470 C.3   374  ALA374      0.1728
     31  C          5.3640   35.3230  -27.3450 C.2   374  ALA374      0.2616
     32  O          5.6240   35.1950  -26.1500 O.2   374  ALA374     -0.2715
     33  CB         2.9070   35.5180  -27.7500 C.3   374  ALA374      0.0334
     34  N          6.1220   36.0370  -28.1710 N.am  375  VAL375     -0.1977
     35  CA         7.3350   36.6990  -27.7020 C.3   375  VAL375      0.1596
     36  C          7.0360   38.1010  -27.1860 C.2   375  VAL375      0.2287
     37  O          6.3930   38.8970  -27.8710 O.2   375  VAL375     -0.2864
     38  CB         8.3880   36.7900  -28.8150 C.3   375  VAL375      0.0276
     39  CG1        9.6070   37.5710  -28.3310 C.3   375  VAL375      0.0022
     40  CG2        8.7800   35.3960  -29.2840 C.3   375  VAL375      0.0022
     41  N         12.1290   37.6570  -36.8520 N.3   383  GLN383     -0.1231
     42  CA        10.6740   37.8140  -36.9240 C.3   383  GLN383      0.1698
     43  C         10.1860   38.9820  -36.0740 C.2   383  GLN383      0.2592
     44  O          9.1670   39.5970  -36.3820 O.2   383  GLN383     -0.2718
     45  CB         9.9440   36.5410  -36.4840 C.3   383  GLN383      0.0381
     46  CG        10.0630   35.3590  -37.4290 C.3   383  GLN383      0.0905
     47  CD         9.2690   34.1600  -36.9380 C.2   383  GLN383      0.2608
     48  OE1        9.7540   33.3670  -36.1300 O.2   383  GLN383     -0.2717
     49  NE2        8.0370   34.0290  -37.4170 N.am  383  GLN383     -0.0878
     50  N         10.9150   39.2860  -35.0040 N.am  384  ASP384     -0.1974
     51  CA        10.5050   40.3600  -34.0990 C.3   384  ASP384      0.1709
     52  C         11.1410   41.7080  -34.4230 C.2   384  ASP384      0.2293
     53  O         11.1220   42.6240  -33.6020 O.2   384  ASP384     -0.2864
     54  CB        10.7530   39.9780  -32.6390 C.3   384  ASP384      0.1436
     55  CG         9.7030   39.0260  -32.1080 C.2   384  ASP384      0.3671
     56  OD1        8.5640   39.4770  -31.8570 O.co2 384  ASP384     -0.2456
     57  OD2       10.0140   37.8270  -31.9430 O.co2 384  ASP384     -0.2456
     58  N         10.0410   43.5230  -37.3990 N.3   386  PRO386     -0.2116
     59  CA         9.1890   43.5230  -38.5900 C.3   386  PRO386      0.1372
     60  C          9.2320   44.8460  -39.3390 C.2   386  PRO386      0.2244
     61  O          9.6980   45.8510  -38.8050 O.2   386  PRO386     -0.2868
     62  CB         7.7960   43.3120  -38.0040 C.3   386  PRO386      0.0268
     63  CG         7.8690   44.0030  -36.6890 C.3   386  PRO386      0.0207
     64  CD         9.2620   43.7910  -36.1750 C.3   386  PRO386      0.0892
     65  N          6.4810   46.4370  -40.4280 N.3   388  ARG388     -0.1245
     66  CA         5.3290   47.2390  -40.0250 C.3   388  ARG388      0.1563
     67  C          5.5220   47.9000  -38.6650 C.2   388  ARG388      0.2260
     68  O          6.3980   47.5190  -37.8890 O.2   388  ARG388     -0.2867
     69  CB         4.0590   46.3830  -39.9960 C.3   388  ARG388      0.0307
     70  CG         3.9510   45.4970  -38.7630 C.3   388  ARG388      0.0489
     71  CD         2.7440   44.5720  -38.8240 C.3   388  ARG388      0.2205
     72  NE         1.4840   45.3070  -38.7960 N.pl3 388  ARG388     -0.0865
     73  CZ         0.2860   44.7330  -38.7930 C.cat 388  ARG388      0.5346
     74  NH1        0.1830   43.4110  -38.8170 N.pl3 388  ARG388      0.1354
     75  NH2       -0.8110   45.4800  -38.7670 N.pl3 388  ARG388      0.1354
     76  N          5.1670   48.4270  -35.0650 N.3   390  SER390     -0.1217
     77  CA         4.9160   47.4070  -34.0490 C.3   390  SER390      0.1889
     78  C          5.3960   47.7860  -32.6460 C.2   390  SER390      0.2288
     79  O          6.1980   47.0700  -32.0480 O.2   390  SER390     -0.2866
     80  CB         5.5740   46.0940  -34.4760 C.3   390  SER390      0.2089
     81  OG         5.4130   45.8830  -35.8690 O.3   390  SER390     -0.2183
     82  N         -1.3160   46.3120  -30.4530 N.3   400  VAL400     -0.1245
     83  CA        -0.4470   45.2620  -30.9690 C.3   400  VAL400      0.1561
     84  C         -0.3940   44.1050  -29.9830 C.2   400  VAL400      0.2260
     85  O         -0.4930   42.9380  -30.3650 O.2   400  VAL400     -0.2867
     86  CB         0.9860   45.7860  -31.2000 C.3   400  VAL400      0.0252
     87  CG1        1.9170   44.6460  -31.5900 C.3   400  VAL400      0.0019
     88  CG2        0.9910   46.8670  -32.2650 C.3   400  VAL400      0.0019
     89  N         -1.4630   40.1610  -30.6380 N.3   404  ASP404     -0.1239
     90  CA        -0.3860   39.1780  -30.5920 C.3   404  ASP404      0.1674
     91  C         -0.4740   38.1800  -29.4420 C.2   404  ASP404      0.2266
     92  O         -0.0630   37.0290  -29.5880 O.2   404  ASP404     -0.2867
     93  CB         0.9730   39.8750  -30.5730 C.3   404  ASP404      0.1410
     94  CG         1.3100   40.5210  -31.8990 C.2   404  ASP404      0.3668
     95  OD1        0.5640   40.2870  -32.8730 O.co2 404  ASP404     -0.2456
     96  OD2        2.3290   41.2450  -31.9710 O.co2 404  ASP404     -0.2456
     97  N         -3.7000   35.8370  -30.2330 N.3   407  HIS407     -0.1241
     98  CA        -3.5480   35.0340  -31.4520 C.3   407  HIS407      0.1621
     99  C         -3.1960   33.5440  -31.2720 C.2   407  HIS407      0.2264
    100  O         -3.7920   32.6960  -31.9370 O.2   407  HIS407     -0.2867
    101  CB        -2.5560   35.6990  -32.4140 C.3   407  HIS407      0.0745
    102  CG        -2.3420   34.9360  -33.6850 C.ar  407  HIS407      0.0817
    103  ND1       -1.2010   34.2030  -33.9310 N.ar  407  HIS407     -0.2268
    104  CD2       -3.1240   34.7940  -34.7820 C.ar  407  HIS407      0.1154
    105  CE1       -1.2880   33.6430  -35.1250 C.ar  407  HIS407      0.1986
    106  NE2       -2.4460   33.9850  -35.6610 N.ar  407  HIS407     -0.2212
@<TRIPOS>BOND
     1    65    66    1
     2    66    69    1
     3    66    67    1
     4    69    70    1
     5    60    61    2
     6    60    59    1
     7    71    72    1
     8    71    70    1
     9    74    73    1
    10    72    73    2
    11    73    75    1
    12    67    68    2
    13    59    62    1
    14    59    58    1
    15    62    63    1
    16    46    47    1
    17    46    45    1
    18    49    47   am
    19    58    64    1
    20    47    48    2
    21    42    41    1
    22    42    45    1
    23    42    43    1
    24    63    64    1
    25    44    43    2
    26    43    50   am
    27    81    80    1
    28   106   105   ar
    29   106   104   ar
    30   105   103   ar
    31    76    77    1
    32    50    51    1
    33   104   102   ar
    34    80    77    1
    35    52    51    1
    36    52    53    2
    37    51    54    1
    38    77    78    1
    39    22    20    1
    40   103   102   ar
    41   102   101    1
    42    21    20    1
    43    20    19    2
    44    95    94   ar
    45    78    79    2
    46    54    55    1
    47   101    98    1
    48    88    86    1
    49    55    57   ar
    50    55    56   ar
    51     8     7    1
    52     8     9    2
    53    96    94   ar
    54   100    99    2
    55     7     6    1
    56    11     9    1
    57    94    93    1
    58     9    10    1
    59    19    18    1
    60    87    86    1
    61    98    99    1
    62    98    97    1
    63    86    83    1
    64    83    82    1
    65    83    84    1
    66     2     3    1
    67     2     5    1
    68     2     1    1
    69    89    90    1
    70    90    93    1
    71    90    91    1
    72    18    17    1
    73     6     5    1
    74     3     4    2
    75    85    84    2
    76    92    91    2
    77    40    38    1
    78    16    17    1
    79    16    13    1
    80    26    25    2
    81    38    39    1
    82    38    35    1
    83    15    14    2
    84    34    35    1
    85    34    31   am
    86    14    13    1
    87    25    29   am
    88    25    24    1
    89    13    12    1
    90    30    33    1
    91    30    31    1
    92    30    29    1
    93    37    36    2
    94    35    36    1
    95    23    24    1
    96    27    24    1
    97    27    28    1
    98    31    32    2
