@<TRIPOS>MOLECULE
tmp/2ynrA01.pdb
 180 171 0 0 0
SMALL
GASTEIGER

@<TRIPOS>ATOM
      1  N         -9.4740   19.7190    1.1110 N.3   169  LYS169     -0.1245
      2  CA       -10.1010   20.9700    0.6390 C.3   169  LYS169      0.1561
      3  C        -11.6140   21.0150    0.2760 C.2   169  LYS169      0.2260
      4  O        -12.1550   22.1360    0.2750 O.2   169  LYS169     -0.2867
      5  CB        -9.3570   21.4620   -0.6150 C.3   169  LYS169      0.0271
      6  CG        -7.9840   22.0940   -0.3430 C.3   169  LYS169      0.0035
      7  CD        -7.8880   23.5510   -0.8340 C.3   169  LYS169      0.0206
      8  CE        -7.6080   23.6980   -2.3170 C.3   169  LYS169      0.1093
      9  NZ        -7.7680   25.1050   -2.7760 N.3   169  LYS169     -0.1314
     10  N         -4.0720   27.3220    2.1180 N.3   209  ASP209     -0.1225
     11  CA        -4.5070   26.9980    0.7660 C.3   209  ASP209      0.1805
     12  C         -6.0240   27.0670    0.6450 C.2   209  ASP209      0.2598
     13  O         -6.7260   26.1060    0.9340 O.2   209  ASP209     -0.2718
     14  CB        -4.0380   25.6040    0.3530 C.3   209  ASP209      0.1424
     15  CG        -4.3300   25.2980   -1.1050 C.2   209  ASP209      0.3668
     16  OD1       -4.5400   26.2360   -1.8940 O.co2 209  ASP209     -0.2456
     17  OD2       -4.3440   24.1150   -1.4770 O.co2 209  ASP209     -0.2456
     18  N         -6.5130   28.2130    0.1980 N.am  210  GLY210     -0.1943
     19  CA        -7.9420   28.4600    0.0470 C.3   210  GLY210      0.1998
     20  C         -8.2960   29.9320    0.1490 C.2   210  GLY210      0.2481
     21  O         -7.5190   30.7740   -0.3210 O.2   210  GLY210     -0.2729
     22  N         -9.4610   30.2690    0.7780 N.am  211  PRO211     -0.2715
     23  CA        -9.8810   31.6900    0.8790 C.3   211  PRO211      0.1536
     24  C         -8.9800   32.5460    1.7670 C.2   211  PRO211      0.2598
     25  O         -8.3240   32.0300    2.6700 O.2   211  PRO211     -0.2715
     26  CB       -11.2920   31.6090    1.4760 C.3   211  PRO211      0.0310
     27  CG       -11.7190   30.2010    1.3290 C.3   211  PRO211      0.0237
     28  CD       -10.4740   29.3740    1.3770 C.3   211  PRO211      0.0939
     29  N         -8.9680   33.8580    1.5130 N.am  212  ASN212     -0.1973
     30  CA        -8.1480   34.8440    2.2220 C.3   212  ASN212      0.1688
     31  C         -8.4720   34.9400    3.7220 C.2   212  ASN212      0.2292
     32  O         -7.5820   35.2700    4.5120 O.2   212  ASN212     -0.2864
     33  CB        -8.2590   36.2210    1.5500 C.3   212  ASN212      0.1181
     34  CG        -7.6190   36.2610    0.1710 C.2   212  ASN212      0.2629
     35  OD1       -7.2140   35.2380   -0.4050 O.2   212  ASN212     -0.2716
     36  ND2       -7.5120   37.4400   -0.4010 N.am  212  ASN212     -0.0877
     37  N         -6.3360   32.4250    5.3590 N.3   215  ILE215     -0.1245
     38  CA        -4.9550   32.9380    5.3730 C.3   215  ILE215      0.1561
     39  C         -4.8190   33.9100    6.5600 C.2   215  ILE215      0.2260
     40  O         -3.8380   33.8340    7.3060 O.2   215  ILE215     -0.2867
     41  CB        -4.5690   33.6290    4.0130 C.3   215  ILE215      0.0252
     42  CG1       -4.5580   32.6230    2.8380 C.3   215  ILE215      0.0019
     43  CG2       -3.2170   34.3710    4.1110 C.3   215  ILE215      0.0019
     44  CD1       -4.5150   33.2560    1.4390 C.3   215  ILE215      0.0001
     45  N          5.7270   26.4480    0.6910 N.3   244  ARG244     -0.1245
     46  CA         4.3530   26.2100    0.3070 C.3   244  ARG244      0.1563
     47  C          3.4320   27.1720    1.0470 C.2   244  ARG244      0.2260
     48  O          2.6190   27.8400    0.4440 O.2   244  ARG244     -0.2867
     49  CB         3.9740   24.7680    0.6130 C.3   244  ARG244      0.0307
     50  CG         4.7590   23.7540   -0.1880 C.3   244  ARG244      0.0489
     51  CD         3.9920   23.2720   -1.4030 C.3   244  ARG244      0.2205
     52  NE         2.8220   22.4970   -1.0090 N.pl3 244  ARG244     -0.0865
     53  CZ         1.8860   22.0800   -1.8500 C.cat 244  ARG244      0.5346
     54  NH1        1.9780   22.3470   -3.1410 N.pl3 244  ARG244      0.1354
     55  NH2        0.8540   21.3870   -1.4010 N.pl3 244  ARG244      0.1354
     56  N          1.3260   30.2220   -0.4180 N.3   248  ASN248     -0.1240
     57  CA        -0.1050   30.3780   -0.1820 C.3   248  ASN248      0.1653
     58  C         -0.4790   31.7520    0.3680 C.2   248  ASN248      0.2266
     59  O         -1.3800   32.3980   -0.1370 O.2   248  ASN248     -0.2867
     60  CB        -0.6220   29.2990    0.7720 C.3   248  ASN248      0.1155
     61  CG        -0.7050   27.9360    0.1300 C.2   248  ASN248      0.2627
     62  OD1       -0.7660   27.8020   -1.0810 O.2   248  ASN248     -0.2716
     63  ND2       -0.7060   26.9190    0.9520 N.am  248  ASN248     -0.0877
     64  N          0.9140   34.6030    0.0510 N.3   250  VAL250     -0.1231
     65  CA         0.9640   35.6670   -0.9520 C.3   250  VAL250      0.1692
     66  C         -0.0610   35.5480   -2.0900 C.2   250  VAL250      0.2593
     67  O         -0.1180   36.3980   -2.9640 O.2   250  VAL250     -0.2718
     68  CB         2.3970   35.9280   -1.4970 C.3   250  VAL250      0.0266
     69  CG1        3.3880   36.1080   -0.3610 C.3   250  VAL250      0.0020
     70  CG2        2.8380   34.8480   -2.4600 C.3   250  VAL250      0.0020
     71  N         -0.9040   34.5250   -2.0500 N.am  251  THR251     -0.1939
     72  CA        -2.0260   34.4440   -2.9860 C.3   251  THR251      0.2028
     73  C         -3.1840   35.3120   -2.4930 C.2   251  THR251      0.2643
     74  O         -4.1040   35.6030   -3.2370 O.2   251  THR251     -0.2714
     75  CB        -2.5430   33.0030   -3.1880 C.3   251  THR251      0.1808
     76  OG1       -2.8300   32.4060   -1.9220 O.3   251  THR251     -0.2208
     77  CG2       -1.5330   32.1600   -3.9320 C.3   251  THR251      0.0379
     78  N         -3.1140   35.7110   -1.2300 N.am  252  GLY252     -0.1939
     79  CA        -4.1280   36.5290   -0.5910 C.3   252  GLY252      0.2014
     80  C         -3.9740   38.0230   -0.8250 C.2   252  GLY252      0.2640
     81  O         -3.5590   38.4460   -1.8910 O.2   252  GLY252     -0.2714
     82  N         -4.3820   38.8230    0.1470 N.am  253  THR253     -0.1936
     83  CA        -4.3420   40.2800    0.0110 C.3   253  THR253      0.2028
     84  C         -2.9390   40.8750    0.0110 C.2   253  THR253      0.2642
     85  O         -2.0090   40.3080    0.5690 O.2   253  THR253     -0.2714
     86  CB        -5.1710   40.9990    1.0930 C.3   253  THR253      0.1808
     87  OG1       -4.5780   40.8110    2.3790 O.3   253  THR253     -0.2208
     88  CG2       -6.5830   40.4850    1.1140 C.3   253  THR253      0.0379
     89  N         -2.8040   42.0290   -0.6260 N.am  254  ASP254     -0.1971
     90  CA        -1.5510   42.7580   -0.6360 C.3   254  ASP254      0.1709
     91  C         -1.0180   42.9810    0.7670 C.2   254  ASP254      0.2293
     92  O          0.1720   42.9500    0.9850 O.2   254  ASP254     -0.2864
     93  CB        -1.7310   44.0830   -1.3530 C.3   254  ASP254      0.1436
     94  CG        -2.0520   43.9070   -2.8050 C.2   254  ASP254      0.3671
     95  OD1       -2.0280   42.7710   -3.2890 O.co2 254  ASP254     -0.2456
     96  OD2       -2.3290   44.9080   -3.4720 O.co2 254  ASP254     -0.2456
     97  N          0.4300   39.7070    1.8330 N.3   257  THR257     -0.1218
     98  CA         1.6780   39.6180    1.1200 C.3   257  THR257      0.1862
     99  C          2.7550   40.4600    1.7880 C.2   257  THR257      0.2287
    100  O          3.8710   40.0000    1.9780 O.2   257  THR257     -0.2866
    101  CB         1.5070   40.0770   -0.3210 C.3   257  THR257      0.1770
    102  OG1        1.6670   38.9570   -1.1870 O.3   257  THR257     -0.2211
    103  CG2        2.5310   41.1130   -0.6600 C.3   257  THR257      0.0375
    104  N          8.2130   26.4450   -7.1770 N.3   283  GLU283     -0.1245
    105  CA         7.4020   27.0650   -6.1440 C.3   283  GLU283      0.1567
    106  C          7.8840   28.4470   -5.7140 C.2   283  GLU283      0.2260
    107  O          7.0880   29.2820   -5.3120 O.2   283  GLU283     -0.2867
    108  CB         7.3440   26.1640   -4.9230 C.3   283  GLU283      0.0388
    109  CG         6.5500   24.8940   -5.1350 C.3   283  GLU283      0.1160
    110  CD         5.2020   24.9490   -4.4680 C.2   283  GLU283      0.3649
    111  OE1        5.1400   24.8420   -3.2350 O.co2 283  GLU283     -0.2457
    112  OE2        4.2080   25.1170   -5.1840 O.co2 283  GLU283     -0.2457
    113  N          6.8030   30.7620   -8.5640 N.3   286  TRP286     -0.1241
    114  CA         5.3760   30.9430   -8.4260 C.3   286  TRP286      0.1605
    115  C          5.0520   31.9270   -7.3320 C.2   286  TRP286      0.2264
    116  O          4.1960   32.7930   -7.5150 O.2   286  TRP286     -0.2867
    117  CB         4.7080   29.5850   -8.1960 C.3   286  TRP286      0.0550
    118  CG         3.2800   29.6350   -7.7270 C.ar  286  TRP286      0.0003
    119  CD1        2.1630   29.9980   -8.4580 C.ar  286  TRP286      0.0946
    120  CD2        2.7700   29.3060   -6.3980 C.ar  286  TRP286      0.0152
    121  NE1        1.0380   29.9160   -7.6960 N.ar  286  TRP286     -0.2442
    122  CE2        1.3290   29.5060   -6.4540 C.ar  286  TRP286      0.0810
    123  CE3        3.3410   28.8790   -5.2140 C.ar  286  TRP286      0.0012
    124  CZ2        0.5190   29.2930   -5.3610 C.ar  286  TRP286      0.0191
    125  CZ3        2.5100   28.6570   -4.1190 C.ar  286  TRP286      0.0001
    126  CH2        1.1330   28.8630   -4.1930 C.ar  286  TRP286      0.0015
    127  N          5.8200   35.3390   -8.7370 N.3   289  SER289     -0.1202
    128  CA         4.7660   35.8210   -9.6420 C.3   289  SER289      0.2020
    129  C          3.5980   36.4410   -8.8810 C.2   289  SER289      0.2618
    130  O          3.0470   37.4360   -9.3450 O.2   289  SER289     -0.2717
    131  CB         4.2560   34.7040  -10.5490 C.3   289  SER289      0.2103
    132  OG         3.4970   33.7330   -9.8490 O.3   289  SER289     -0.2182
    133  N          3.2590   35.9120   -7.7150 N.am  290  ASN290     -0.1974
    134  CA         2.1940   36.4840   -6.9060 C.3   290  ASN290      0.1688
    135  C          2.6210   37.7030   -6.1010 C.2   290  ASN290      0.2292
    136  O          1.7850   38.4360   -5.5910 O.2   290  ASN290     -0.2864
    137  CB         1.5730   35.4280   -5.9940 C.3   290  ASN290      0.1181
    138  CG         0.7190   34.4390   -6.7550 C.2   290  ASN290      0.2629
    139  OD1        0.1450   34.7670   -7.7850 O.2   290  ASN290     -0.2716
    140  ND2        0.6470   33.2210   -6.2590 N.am  290  ASN290     -0.0877
    141  N          2.6400   40.5450   -8.8070 N.3   293  ALA293     -0.1231
    142  CA         1.2590   40.8740   -9.1210 C.3   293  ALA293      0.1694
    143  C          0.6890   41.8620   -8.1070 C.2   293  ALA293      0.2592
    144  O         -0.4350   42.3120   -8.2390 O.2   293  ALA293     -0.2718
    145  CB         0.4120   39.6120   -9.1680 C.3   293  ALA293      0.0304
    146  N          1.4850   42.1880   -7.1010 N.am  294  GLY294     -0.1957
    147  CA         1.1190   43.1350   -6.0550 C.3   294  GLY294      0.1869
    148  C          1.2690   44.5890   -6.4310 C.2   294  GLY294      0.2309
    149  O          1.2930   44.9240   -7.6170 O.2   294  GLY294     -0.2863
    150  N          6.3450   29.6870  -14.8260 N.3   325  GLU325     -0.1245
    151  CA         6.0520   30.5480  -13.6730 C.3   325  GLU325      0.1567
    152  C          6.7750   31.8800  -13.8050 C.2   325  GLU325      0.2260
    153  O          6.2640   32.9080  -13.3520 O.2   325  GLU325     -0.2867
    154  CB         6.4640   29.8760  -12.3470 C.3   325  GLU325      0.0388
    155  CG         5.7240   28.5930  -11.9980 C.3   325  GLU325      0.1160
    156  CD         4.2080   28.6470  -12.0020 C.2   325  GLU325      0.3649
    157  OE1        3.6320   29.6820  -11.5950 O.co2 325  GLU325     -0.2457
    158  OE2        3.5940   27.6390  -12.4160 O.co2 325  GLU325     -0.2457
    159  N          4.9490   34.2760  -16.1860 N.3   328  TRP328     -0.1241
    160  CA         3.8690   34.8170  -15.3650 C.3   328  TRP328      0.1605
    161  C          4.3630   35.9330  -14.4450 C.2   328  TRP328      0.2264
    162  O          3.6850   36.9500  -14.3190 O.2   328  TRP328     -0.2867
    163  CB         3.2200   33.7060  -14.5230 C.3   328  TRP328      0.0550
    164  CG         2.0680   33.0070  -15.1870 C.ar  328  TRP328      0.0003
    165  CD1        2.0360   31.7180  -15.6320 C.ar  328  TRP328      0.0946
    166  CD2        0.7680   33.5540  -15.4430 C.ar  328  TRP328      0.0152
    167  NE1        0.7930   31.4250  -16.1460 N.ar  328  TRP328     -0.2442
    168  CE2       -0.0050   32.5350  -16.0430 C.ar  328  TRP328      0.0810
    169  CE3        0.1750   34.8110  -15.2150 C.ar  328  TRP328      0.0012
    170  CZ2       -1.3410   32.7320  -16.4210 C.ar  328  TRP328      0.0191
    171  CZ3       -1.1450   35.0050  -15.5920 C.ar  328  TRP328      0.0001
    172  CH2       -1.8930   33.9710  -16.1780 C.ar  328  TRP328      0.0015
    173  N          3.1330   39.8310  -14.7620 N.3   332  ASN332     -0.1240
    174  CA         2.5660   40.4690  -13.5680 C.3   332  ASN332      0.1653
    175  C          3.3370   41.7250  -13.2020 C.2   332  ASN332      0.2266
    176  O          2.7190   42.7390  -12.8800 O.2   332  ASN332     -0.2867
    177  CB         2.5460   39.5040  -12.3880 C.3   332  ASN332      0.1155
    178  CG         1.4700   38.4460  -12.4770 C.2   332  ASN332      0.2627
    179  OD1        0.5520   38.5050  -13.3020 O.2   332  ASN332     -0.2716
    180  ND2        1.5690   37.4490  -11.6240 N.am  332  ASN332     -0.0877
@<TRIPOS>BOND
     1   170   172   ar
     2   170   168   ar
     3   159   160    1
     4   172   171   ar
     5   167   168   ar
     6   167   165   ar
     7   168   166   ar
     8   165   164   ar
     9   171   169   ar
    10   166   169   ar
    11   166   164   ar
    12   160   163    1
    13   160   161    1
    14   164   163    1
    15   150   151    1
    16   173   174    1
    17   161   162    2
    18   152   151    1
    19   152   153    2
    20   151   154    1
    21   174   175    1
    22   174   177    1
    23   179   178    2
    24   175   176    2
    25   178   177    1
    26   178   180   am
    27   158   156   ar
    28   154   155    1
    29   156   155    1
    30   156   157   ar
    31   131   132    1
    32   131   128    1
    33   128   129    1
    34   128   127    1
    35   130   129    2
    36   145   142    1
    37   142   141    1
    38   142   143    1
    39   129   133   am
    40   113   114    1
    41   119   118   ar
    42   119   121   ar
    43   114   117    1
    44   114   115    1
    45   144   143    2
    46   117   118    1
    47   143   146   am
    48   139   138    2
    49   118   120   ar
    50   133   134    1
    51   121   122   ar
    52   149   148    2
    53   116   115    2
    54   104   105    1
    55   146   147    1
    56   134   135    1
    57   134   137    1
    58   138   140   am
    59   138   137    1
    60   122   120   ar
    61   122   124   ar
    62   148   147    1
    63   120   123   ar
    64   105   106    1
    65   105   108    1
    66   135   136    2
    67   106   107    2
    68   124   126   ar
    69   123   125   ar
    70   112   110   ar
    71   109   108    1
    72   109   110    1
    73   110   111   ar
    74   126   125   ar
    75    77    75    1
    76    96    94   ar
    77    95    94   ar
    78    74    73    2
    79    75    72    1
    80    75    76    1
    81    54    53    1
    82    72    73    1
    83    72    71    1
    84    67    66    2
    85    94    93    1
    86     9     8    1
    87    73    78   am
    88    70    68    1
    89     8     7    1
    90    66    71   am
    91    66    65    1
    92    16    15   ar
    93    81    80    2
    94    53    55    1
    95    53    52    2
    96    68    65    1
    97    68    69    1
    98    17    15   ar
    99    51    52    1
   100    51    50    1
   101    93    90    1
   102    78    79    1
   103   102   101    1
   104    15    14    1
   105    62    61    2
   106    65    64    1
   107     7     6    1
   108    80    79    1
   109    80    82   am
   110   103   101    1
   111    90    89    1
   112    90    91    1
   113    89    84   am
   114     5     6    1
   115     5     2    1
   116    56    57    1
   117    35    34    2
   118    36    34   am
   119   101    98    1
   120    21    20    2
   121    50    49    1
   122    57    58    1
   123    57    60    1
   124    59    58    2
   125    83    84    1
   126    83    82    1
   127    83    86    1
   128    84    85    2
   129    19    20    1
   130    19    18    1
   131    61    60    1
   132    61    63   am
   133    20    22   am
   134    34    33    1
   135    18    12   am
   136     4     3    2
   137     3     2    1
   138    46    49    1
   139    46    45    1
   140    46    47    1
   141    14    11    1
   142    48    47    2
   143     2     1    1
   144    12    11    1
   145    12    13    2
   146    11    10    1
   147    91    92    2
   148    22    23    1
   149    22    28    1
   150    23    26    1
   151    23    24    1
   152    86    88    1
   153    86    87    1
   154    98    99    1
   155    98    97    1
   156    27    28    1
   157    27    26    1
   158    44    42    1
   159    29    24   am
   160    29    30    1
   161    33    30    1
   162    24    25    2
   163    99   100    2
   164    30    31    1
   165    42    41    1
   166    31    32    2
   167    41    43    1
   168    41    38    1
   169    37    38    1
   170    38    39    1
   171    39    40    2
