@<TRIPOS>MOLECULE
tmp/2yoeC00.pdb
 127 120 0 0 0
SMALL
GASTEIGER

@<TRIPOS>ATOM
      1  N        -82.1280  -44.3810  -63.7070 N.3    29  ILE29      -0.1245
      2  CA       -81.2020  -45.4640  -64.0080 C.3    29  ILE29       0.1561
      3  C        -80.6240  -45.1440  -65.3650 C.2    29  ILE29       0.2260
      4  O        -81.3420  -44.6870  -66.2610 O.2    29  ILE29      -0.2867
      5  CB       -81.8640  -46.8610  -64.1480 C.3    29  ILE29       0.0252
      6  CG1      -83.2140  -46.9560  -63.4410 C.3    29  ILE29       0.0019
      7  CG2      -80.9010  -47.9500  -63.7010 C.3    29  ILE29       0.0019
      8  CD1      -84.1090  -48.0670  -64.0140 C.3    29  ILE29       0.0001
      9  N        -90.0770  -46.1880  -77.7370 N.3    53  ILE53      -0.1245
     10  CA       -89.1660  -47.2550  -77.3490 C.3    53  ILE53       0.1561
     11  C        -89.8230  -48.6090  -77.5770 C.2    53  ILE53       0.2260
     12  O        -89.1940  -49.5220  -78.1140 O.2    53  ILE53      -0.2867
     13  CB       -88.6930  -47.1290  -75.8960 C.3    53  ILE53       0.0252
     14  CG1      -87.8040  -45.9010  -75.7480 C.3    53  ILE53       0.0019
     15  CG2      -87.8840  -48.3380  -75.5050 C.3    53  ILE53       0.0019
     16  CD1      -87.3680  -45.6340  -74.3410 C.3    53  ILE53       0.0001
     17  N        -88.8200  -52.0500  -79.9610 N.3    57  ILE57      -0.1245
     18  CA       -88.7410  -53.3900  -79.3930 C.3    57  ILE57       0.1561
     19  C        -89.5360  -54.3950  -80.2340 C.2    57  ILE57       0.2260
     20  O        -89.0550  -55.4940  -80.5030 O.2    57  ILE57      -0.2867
     21  CB       -89.1600  -53.3840  -77.8990 C.3    57  ILE57       0.0252
     22  CG1      -88.0300  -52.7810  -77.0550 C.3    57  ILE57       0.0019
     23  CG2      -89.5000  -54.7810  -77.4170 C.3    57  ILE57       0.0019
     24  CD1      -88.4680  -52.1640  -75.7720 C.3    57  ILE57       0.0001
     25  N        -83.6650  -54.7780  -75.6830 N.3    63  VAL63      -0.1231
     26  CA       -83.5350  -53.9420  -74.5030 C.3    63  VAL63       0.1678
     27  C        -83.8060  -54.8260  -73.2990 C.2    63  VAL63       0.2434
     28  O        -84.9540  -55.1410  -73.0050 O.2    63  VAL63      -0.2733
     29  CB       -84.5410  -52.7920  -74.4970 C.3    63  VAL63       0.0265
     30  CG1      -84.1600  -51.7910  -73.4370 C.3    63  VAL63       0.0020
     31  CG2      -84.5820  -52.1150  -75.8350 C.3    63  VAL63       0.0020
     32  N        -82.7480  -55.2600  -72.6050 N.am   64  PRO64      -0.2718
     33  CA       -82.9830  -56.2000  -71.5090 C.3    64  PRO64       0.1535
     34  C        -83.7200  -55.5350  -70.3570 C.2    64  PRO64       0.2598
     35  O        -83.4090  -54.4010  -69.9880 O.2    64  PRO64      -0.2715
     36  CB       -81.5660  -56.5790  -71.0750 C.3    64  PRO64       0.0310
     37  CG       -80.7370  -55.4160  -71.4520 C.3    64  PRO64       0.0237
     38  CD       -81.3260  -54.9080  -72.7370 C.3    64  PRO64       0.0939
     39  N        -84.7020  -56.2310  -69.7990 N.am   65  ALA65      -0.1964
     40  CA       -85.4170  -55.7030  -68.6520 C.3    65  ALA65       0.1728
     41  C        -84.5650  -55.8710  -67.3970 C.2    65  ALA65       0.2616
     42  O        -84.2200  -56.9930  -67.0130 O.2    65  ALA65      -0.2715
     43  CB       -86.7520  -56.3950  -68.4940 C.3    65  ALA65       0.0334
     44  N        -84.2270  -54.7520  -66.7630 N.am   66  LEU66      -0.1977
     45  CA       -83.4650  -54.7900  -65.5230 C.3    66  LEU66       0.1596
     46  C        -84.4050  -54.6600  -64.3310 C.2    66  LEU66       0.2287
     47  O        -85.0610  -53.6350  -64.1580 O.2    66  LEU66      -0.2864
     48  CB       -82.3940  -53.6970  -65.5060 C.3    66  LEU66       0.0297
     49  CG       -81.3680  -53.7350  -66.6360 C.3    66  LEU66       0.0022
     50  CD1      -80.3380  -52.6470  -66.4480 C.3    66  LEU66       0.0001
     51  CD2      -80.6950  -55.0850  -66.6770 C.3    66  LEU66       0.0001
     52  N        -85.6380  -54.4060  -60.4150 N.3    68  PHE68      -0.1241
     53  CA       -85.3250  -53.9840  -59.0690 C.3    68  PHE68       0.1605
     54  C        -85.7340  -55.1170  -58.1440 C.2    68  PHE68       0.2264
     55  O        -86.9170  -55.2960  -57.8570 O.2    68  PHE68      -0.2867
     56  CB       -86.1130  -52.7320  -58.7250 C.3    68  PHE68       0.0534
     57  CG       -85.4570  -51.4620  -59.1600 C.ar   68  PHE68      -0.0203
     58  CD1      -84.1030  -51.2540  -58.9590 C.ar   68  PHE68      -0.0042
     59  CD2      -86.2060  -50.4680  -59.7670 C.ar   68  PHE68      -0.0042
     60  CE1      -83.5070  -50.0770  -59.3590 C.ar   68  PHE68      -0.0003
     61  CE2      -85.6210  -49.2940  -60.1710 C.ar   68  PHE68      -0.0003
     62  CZ       -84.2670  -49.0950  -59.9650 C.ar   68  PHE68      -0.0000
     63  N        -94.3880  -52.3190  -57.9820 N.3    74  SER74      -0.1203
     64  CA       -93.6300  -52.0150  -59.1820 C.3    74  SER74       0.2005
     65  C        -93.4820  -50.5080  -59.2970 C.2    74  SER74       0.2460
     66  O        -94.4480  -49.7730  -59.1180 O.2    74  SER74      -0.2732
     67  CB       -94.2730  -52.6390  -60.4330 C.3    74  SER74       0.2103
     68  OG       -95.6120  -52.2130  -60.6060 O.3    74  SER74      -0.2182
     69  N        -92.2560  -50.0470  -59.5600 N.am   75  PRO75      -0.2728
     70  CA       -91.9010  -48.6270  -59.5140 C.3    75  PRO75       0.1401
     71  C        -92.6730  -47.7850  -60.5210 C.2    75  PRO75       0.2269
     72  O        -93.0430  -48.2770  -61.5860 O.2    75  PRO75      -0.2865
     73  CB       -90.4120  -48.6280  -59.8840 C.3    75  PRO75       0.0296
     74  CG       -89.9550  -50.0390  -59.7040 C.3    75  PRO75       0.0237
     75  CD       -91.1320  -50.8800  -60.0130 C.3    75  PRO75       0.0939
     76  N        -92.3730  -45.5500  -63.2820 N.3    77  THR77      -0.1218
     77  CA       -91.3480  -45.1560  -64.2310 C.3    77  THR77       0.1862
     78  C        -91.8100  -43.8840  -64.9090 C.2    77  THR77       0.2287
     79  O        -92.9300  -43.8210  -65.4220 O.2    77  THR77      -0.2866
     80  CB       -91.0900  -46.2350  -65.2890 C.3    77  THR77       0.1770
     81  OG1      -90.4730  -47.3730  -64.6800 O.3    77  THR77      -0.2211
     82  CG2      -90.1810  -45.6990  -66.3820 C.3    77  THR77       0.0375
     83  N        -88.9790  -42.3920  -70.3680 N.3    80  LYS80      -0.1245
     84  CA       -88.0670  -43.3940  -70.8700 C.3    80  LYS80       0.1561
     85  C        -87.3880  -42.8290  -72.1040 C.2    80  LYS80       0.2260
     86  O        -87.9800  -42.0760  -72.8750 O.2    80  LYS80      -0.2867
     87  CB       -88.8120  -44.6690  -71.2530 C.3    80  LYS80       0.0271
     88  CG       -89.4970  -45.3710  -70.1020 C.3    80  LYS80       0.0035
     89  CD       -90.3200  -46.5450  -70.5610 C.3    80  LYS80       0.0206
     90  CE       -91.6280  -46.1520  -71.1850 C.3    80  LYS80       0.1093
     91  NZ       -92.5110  -47.3260  -71.4480 N.3    80  LYS80      -0.1314
     92  N        -79.8900  -46.7030  -72.2060 N.3    92  TYR92      -0.1241
     93  CA       -81.2510  -46.6100  -71.7090 C.3    92  TYR92       0.1605
     94  C        -81.2870  -45.7340  -70.4710 C.2    92  TYR92       0.2264
     95  O        -80.5830  -45.9870  -69.4940 O.2    92  TYR92      -0.2867
     96  CB       -81.8110  -47.9890  -71.3860 C.3    92  TYR92       0.0534
     97  CG       -83.2050  -47.9350  -70.8220 C.ar   92  TYR92      -0.0201
     98  CD1      -84.3090  -47.8640  -71.6560 C.ar   92  TYR92      -0.0009
     99  CD2      -83.4190  -47.9420  -69.4490 C.ar   92  TYR92      -0.0009
    100  CE1      -85.5940  -47.8110  -71.1390 C.ar   92  TYR92       0.0417
    101  CE2      -84.6980  -47.8860  -68.9210 C.ar   92  TYR92       0.0417
    102  CZ       -85.7830  -47.8210  -69.7700 C.ar   92  TYR92       0.1957
    103  OH       -87.0550  -47.7660  -69.2460 O.3    92  TYR92      -0.2866
    104  N        -84.0300  -43.7610  -67.8120 N.3    94  ALA94      -0.1245
    105  CA       -85.4070  -43.6290  -67.3450 C.3    94  ALA94       0.1562
    106  C        -85.4440  -43.1650  -65.8910 C.2    94  ALA94       0.2260
    107  O        -84.5950  -43.5600  -65.0810 O.2    94  ALA94      -0.2867
    108  CB       -86.1580  -44.9400  -67.5130 C.3    94  ALA94       0.0290
    109  N        -87.2830  -43.0740  -62.1880 N.3    96  PHE96      -0.1241
    110  CA       -88.1130  -43.9660  -61.3790 C.3    96  PHE96       0.1605
    111  C        -88.3290  -43.4860  -59.9470 C.2    96  PHE96       0.2264
    112  O        -87.4770  -42.8220  -59.3450 O.2    96  PHE96      -0.2867
    113  CB       -87.4970  -45.3700  -61.3240 C.3    96  PHE96       0.0534
    114  CG       -86.2250  -45.4380  -60.5410 C.ar   96  PHE96      -0.0203
    115  CD1      -85.0280  -45.0820  -61.1230 C.ar   96  PHE96      -0.0042
    116  CD2      -86.2260  -45.8440  -59.2240 C.ar   96  PHE96      -0.0042
    117  CE1      -83.8530  -45.1360  -60.4100 C.ar   96  PHE96      -0.0003
    118  CE2      -85.0520  -45.8980  -58.5040 C.ar   96  PHE96      -0.0003
    119  CZ       -83.8640  -45.5440  -59.0980 C.ar   96  PHE96      -0.0000
    120  N        -80.0890  -54.3070  -58.1510 N.3   120  LEU120     -0.1245
    121  CA       -80.4700  -54.3910  -59.5500 C.3   120  LEU120      0.1561
    122  C        -80.0060  -55.7190  -60.0880 C.2   120  LEU120      0.2260
    123  O        -78.9040  -56.1680  -59.7880 O.2   120  LEU120     -0.2867
    124  CB       -79.8100  -53.2840  -60.3630 C.3   120  LEU120      0.0270
    125  CG       -80.6720  -52.4750  -61.3220 C.3   120  LEU120      0.0019
    126  CD1      -79.7990  -51.8910  -62.4120 C.3   120  LEU120      0.0001
    127  CD2      -81.7600  -53.3290  -61.9080 C.3   120  LEU120      0.0001
@<TRIPOS>BOND
     1    20    19    2
     2    19    18    1
     3    17    18    1
     4    18    21    1
     5    12    11    2
     6    21    23    1
     7    21    22    1
     8     9    10    1
     9    11    10    1
    10    10    13    1
    11    22    24    1
    12    13    14    1
    13    13    15    1
    14    31    29    1
    15    14    16    1
    16    25    26    1
    17    26    29    1
    18    26    27    1
    19    29    30    1
    20    27    28    2
    21    27    32   am
    22    86    85    2
    23    38    32    1
    24    38    37    1
    25    32    33    1
    26    92    93    1
    27    85    84    1
    28    93    96    1
    29    93    94    1
    30    98   100   ar
    31    98    97   ar
    32    33    36    1
    33    33    34    1
    34    37    36    1
    35    91    90    1
    36    96    97    1
    37    87    84    1
    38    87    88    1
    39    90    89    1
    40   100   102   ar
    41    84    83    1
    42    97    99   ar
    43    89    88    1
    44    94    95    2
    45    34    35    2
    46    34    39   am
    47    39    40    1
    48   102   103    1
    49   102   101   ar
    50    99   101   ar
    51    40    43    1
    52    40    41    1
    53   104   105    1
    54   108   105    1
    55    41    42    2
    56    41    44   am
    57   105   106    1
    58    44    45    1
    59    51    49    1
    60    49    50    1
    61    49    48    1
    62    82    80    1
    63     4     3    2
    64   106   107    2
    65    45    48    1
    66    45    46    1
    67    79    78    2
    68     3     2    1
    69    80    81    1
    70    80    77    1
    71    78    77    1
    72    46    47    2
    73    77    76    1
    74     5     2    1
    75     5     7    1
    76     5     6    1
    77     8     6    1
    78     2     1    1
    79   126   125    1
    80   109   110    1
    81   127   125    1
    82    72    71    2
    83   110   113    1
    84   110   111    1
    85   113   114    1
    86   125   124    1
    87   115   114   ar
    88   115   117   ar
    89    68    67    1
    90   114   116   ar
    91    71    70    1
    92    67    64    1
    93    52    53    1
    94   117   119   ar
    95   124   121    1
    96    61    62   ar
    97    61    59   ar
    98   122   123    2
    99   122   121    1
   100    75    74    1
   101    75    69    1
   102    62    60   ar
   103   111   112    2
   104    73    74    1
   105    73    70    1
   106    59    57   ar
   107    69    70    1
   108    69    65   am
   109   121   120    1
   110    60    58   ar
   111    65    64    1
   112    65    66    2
   113   116   118   ar
   114    64    63    1
   115    57    58   ar
   116    57    56    1
   117   119   118   ar
   118    53    56    1
   119    53    54    1
   120    54    55    2
