@<TRIPOS>MOLECULE
tmp/2yofB00.pdb
 194 187 0 0 0
SMALL
GASTEIGER

@<TRIPOS>ATOM
      1  N         31.9540   31.3010   -1.6560 N.3    17  ASP17      -0.1225
      2  CA        32.2610   32.6600   -1.3430 C.3    17  ASP17       0.1805
      3  C         31.0160   33.2960   -0.7340 C.2    17  ASP17       0.2597
      4  O         29.9010   32.9220   -1.0910 O.2    17  ASP17      -0.2718
      5  CB        32.7490   33.3440   -2.6120 C.3    17  ASP17       0.1424
      6  CG        34.0770   32.7550   -3.0720 C.2    17  ASP17       0.3668
      7  OD1       35.0870   33.0870   -2.4110 O.co2  17  ASP17      -0.2456
      8  OD2       34.1210   31.9640   -4.0410 O.co2  17  ASP17      -0.2456
      9  N         31.2110   34.2000    0.2240 N.am   18  ARG18      -0.1979
     10  CA        30.0720   34.8270    0.9590 C.3    18  ARG18       0.1597
     11  C         29.2100   33.8160    1.7920 C.2    18  ARG18       0.2287
     12  O         27.9880   34.0100    1.9820 O.2    18  ARG18      -0.2864
     13  CB        29.1790   35.6580    0.0040 C.3    18  ARG18       0.0334
     14  CG        29.7710   37.0110   -0.3910 C.3    18  ARG18       0.0492
     15  CD        28.6790   37.8830   -1.0200 C.3    18  ARG18       0.2205
     16  NE        28.6980   39.2760   -0.5360 N.pl3  18  ARG18      -0.0865
     17  CZ        28.2820   40.3250   -1.2560 C.cat  18  ARG18       0.5346
     18  NH1       27.8360   40.1460   -2.4950 N.pl3  18  ARG18       0.1354
     19  NH2       28.3220   41.5530   -0.7500 N.pl3  18  ARG18       0.1354
     20  N         32.3190   32.5210    6.3120 N.3    21  LYS21      -0.1245
     21  CA        33.5060   31.7990    6.8390 C.3    21  LYS21       0.1561
     22  C         34.3420   32.6210    7.7800 C.2    21  LYS21       0.2260
     23  O         34.7090   32.1410    8.8520 O.2    21  LYS21      -0.2867
     24  CB        34.3910   31.2710    5.7180 C.3    21  LYS21       0.0271
     25  CG        33.8170   30.0920    4.9390 C.3    21  LYS21       0.0035
     26  CD        34.8790   29.4750    4.0130 C.3    21  LYS21       0.0206
     27  CE        35.4740   30.5020    3.0370 C.3    21  LYS21       0.1093
     28  NZ        34.3810   31.2030    2.2730 N.3    21  LYS21      -0.1314
     29  N         43.6620   30.7760    3.2850 N.3    44  PHE44      -0.1228
     30  CA        44.1730   30.4920    1.9690 C.3    44  PHE44       0.1721
     31  C         43.1850   31.0530    0.9050 C.2    44  PHE44       0.2437
     32  O         41.9510   31.0160    1.0890 O.2    44  PHE44      -0.2733
     33  CB        44.5230   28.9850    1.7410 C.3    44  PHE44       0.0547
     34  CG        45.7030   28.4930    2.5640 C.ar   44  PHE44      -0.0202
     35  CD1       47.0170   28.8790    2.2450 C.ar   44  PHE44      -0.0042
     36  CD2       45.5040   27.6840    3.6810 C.ar   44  PHE44      -0.0042
     37  CE1       48.1010   28.4660    3.0030 C.ar   44  PHE44      -0.0003
     38  CE2       46.5930   27.2460    4.4600 C.ar   44  PHE44      -0.0003
     39  CZ        47.9010   27.6250    4.1280 C.ar   44  PHE44      -0.0000
     40  N         43.7350   31.6140   -0.1960 N.am   45  PRO45      -0.2729
     41  CA        45.1670   31.7590   -0.4450 C.3    45  PRO45       0.1401
     42  C         45.8170   32.8040    0.4610 C.2    45  PRO45       0.2269
     43  O         45.1930   33.7440    0.8620 O.2    45  PRO45      -0.2865
     44  CB        45.2030   32.2600   -1.9290 C.3    45  PRO45       0.0296
     45  CG        43.9260   33.0570   -2.0490 C.3    45  PRO45       0.0237
     46  CD        42.9350   32.1210   -1.3340 C.3    45  PRO45       0.0939
     47  N         47.8830   35.6640   -0.1410 N.3    47  ARG47      -0.1245
     48  CA        48.1980   36.5030   -1.3130 C.3    47  ARG47       0.1563
     49  C         49.4380   37.3390   -1.1860 C.2    47  ARG47       0.2260
     50  O         49.8250   38.0080   -2.1470 O.2    47  ARG47      -0.2867
     51  CB        47.0400   37.4090   -1.6010 C.3    47  ARG47       0.0307
     52  CG        45.7660   36.6690   -1.9580 C.3    47  ARG47       0.0489
     53  CD        44.6940   37.7400   -1.9770 C.3    47  ARG47       0.2205
     54  NE        43.3920   37.1670   -1.9030 N.pl3  47  ARG47      -0.0865
     55  CZ        42.4490   37.3300   -2.8140 C.cat  47  ARG47       0.5346
     56  NH1       42.6740   38.0760   -3.8980 N.pl3  47  ARG47       0.1354
     57  NH2       41.2800   36.7420   -2.6240 N.pl3  47  ARG47       0.1354
     58  N         43.0680   35.9930   -9.6650 N.3    59  LEU59      -0.1245
     59  CA        41.7180   36.1400   -9.1520 C.3    59  LEU59       0.1561
     60  C         41.1280   37.4800   -9.5290 C.2    59  LEU59       0.2260
     61  O         39.9080   37.6130   -9.7110 O.2    59  LEU59      -0.2867
     62  CB        41.7450   36.0140   -7.5780 C.3    59  LEU59       0.0270
     63  CG        42.0440   34.6090   -7.0230 C.3    59  LEU59       0.0019
     64  CD1       42.1770   34.6920   -5.4560 C.3    59  LEU59       0.0001
     65  CD2       40.9870   33.5870   -7.4310 C.3    59  LEU59       0.0001
     66  N         47.9310   27.3130   -6.3570 N.3    74  PHE74      -0.1241
     67  CA        47.1150   27.2390   -5.1180 C.3    74  PHE74       0.1605
     68  C         47.6660   26.1880   -4.1600 C.2    74  PHE74       0.2264
     69  O         47.7840   26.4600   -2.9760 O.2    74  PHE74      -0.2867
     70  CB        45.6520   26.9530   -5.4360 C.3    74  PHE74       0.0534
     71  CG        44.8180   28.1770   -5.7090 C.ar   74  PHE74      -0.0203
     72  CD1       44.5340   29.0830   -4.6870 C.ar   74  PHE74      -0.0042
     73  CD2       44.2440   28.3860   -6.9870 C.ar   74  PHE74      -0.0042
     74  CE1       43.7280   30.1910   -4.9030 C.ar   74  PHE74      -0.0003
     75  CE2       43.4270   29.4970   -7.2350 C.ar   74  PHE74      -0.0003
     76  CZ        43.1700   30.4300   -6.1900 C.ar   74  PHE74      -0.0000
     77  N         49.8580   26.4400   -0.3010 N.3    78  ARG78      -0.1245
     78  CA        49.6540   25.7290    0.9830 C.3    78  ARG78       0.1563
     79  C         50.9650   25.1010    1.4740 C.2    78  ARG78       0.2260
     80  O         51.3090   25.2040    2.6670 O.2    78  ARG78      -0.2867
     81  CB        48.5300   24.6730    0.8610 C.3    78  ARG78       0.0307
     82  CG        47.1560   25.3450    0.8740 C.3    78  ARG78       0.0489
     83  CD        46.0440   24.3300    0.7060 C.3    78  ARG78       0.2205
     84  NE        45.9620   23.6910   -0.6190 N.pl3  78  ARG78      -0.0865
     85  CZ        45.3650   24.2350   -1.6980 C.cat  78  ARG78       0.5346
     86  NH1       44.8620   25.4480   -1.6280 N.pl3  78  ARG78       0.1354
     87  NH2       45.2830   23.5450   -2.8500 N.pl3  78  ARG78       0.1354
     88  N         40.8070   29.4400    7.2380 N.3    98  ASP98      -0.1225
     89  CA        39.7440   29.7050    6.2990 C.3    98  ASP98       0.1805
     90  C         40.2400   29.2580    4.9120 C.2    98  ASP98       0.2598
     91  O         41.0400   29.9460    4.3080 O.2    98  ASP98      -0.2718
     92  CB        39.4040   31.2320    6.3790 C.3    98  ASP98       0.1424
     93  CG        38.2960   31.6720    5.4090 C.2    98  ASP98       0.3668
     94  OD1       37.9990   30.9130    4.4730 O.co2  98  ASP98      -0.2456
     95  OD2       37.7370   32.8030    5.5690 O.co2  98  ASP98      -0.2456
     96  N         39.7340   28.0930    4.4340 N.am   99  ARG99      -0.1966
     97  CA        40.0730   27.4040    3.1650 C.3    99  ARG99       0.1729
     98  C         41.3210   26.5740    3.2300 C.2    99  ARG99       0.2616
     99  O         42.3220   26.9660    3.8780 O.2    99  ARG99      -0.2715
    100  CB        40.1550   28.3390    1.9260 C.3    99  ARG99       0.0348
    101  CG        38.8530   29.1360    1.6570 C.3    99  ARG99       0.0492
    102  CD        38.8950   29.7160    0.2090 C.3    99  ARG99       0.2205
    103  NE        37.6490   30.4650   -0.1010 N.pl3  99  ARG99      -0.0865
    104  CZ        36.4710   29.9010   -0.3980 C.cat  99  ARG99       0.5346
    105  NH1       36.3310   28.5770   -0.3690 N.pl3  99  ARG99       0.1354
    106  NH2       35.4190   30.6690   -0.6650 N.pl3  99  ARG99       0.1354
    107  N         41.2810   25.4600    2.5230 N.am  100  TYR100     -0.1974
    108  CA        42.3660   24.5600    2.4770 C.3   100  TYR100      0.1639
    109  C         42.3490   23.7690    1.1690 C.2   100  TYR100      0.2290
    110  O         41.8520   24.2550    0.1310 O.2   100  TYR100     -0.2864
    111  CB        42.3180   23.6340    3.7250 C.3   100  TYR100      0.0560
    112  CG        43.6490   23.0270    4.1450 C.ar  100  TYR100     -0.0198
    113  CD1       44.7790   23.8190    4.3810 C.ar  100  TYR100     -0.0009
    114  CD2       43.7520   21.6510    4.3530 C.ar  100  TYR100     -0.0009
    115  CE1       46.0250   23.2130    4.8010 C.ar  100  TYR100      0.0417
    116  CE2       44.9590   21.0410    4.7720 C.ar  100  TYR100      0.0417
    117  CZ        46.0810   21.8230    5.0120 C.ar  100  TYR100      0.1957
    118  OH        47.2300   21.1710    5.4310 O.3   100  TYR100     -0.2866
    119  N         38.9470   23.4400   -0.8190 N.3   103  SER103     -0.1202
    120  CA        38.7150   24.5500   -1.7650 C.3   103  SER103      0.2020
    121  C         39.4280   24.2920   -3.0760 C.2   103  SER103      0.2619
    122  O         38.8390   24.4710   -4.1430 O.2   103  SER103     -0.2717
    123  CB        39.1660   25.8960   -1.2180 C.3   103  SER103      0.2103
    124  OG        38.2740   26.3850   -0.2560 O.3   103  SER103     -0.2182
    125  N         40.6880   23.8920   -3.0060 N.am  104  GLY104     -0.1956
    126  CA        41.5120   23.6730   -4.2330 C.3   104  GLY104      0.1869
    127  C         40.8390   22.6940   -5.2030 C.2   104  GLY104      0.2309
    128  O         40.7690   22.9260   -6.4220 O.2   104  GLY104     -0.2863
    129  N         36.9240   24.0790   -6.2310 N.3   107  TYR107     -0.1227
    130  CA        36.9810   25.2130   -7.1550 C.3   107  TYR107      0.1736
    131  C         37.5560   24.7990   -8.5280 C.2   107  TYR107      0.2596
    132  O         36.9340   25.0920   -9.5660 O.2   107  TYR107     -0.2718
    133  CB        37.6690   26.4380   -6.5230 C.3   107  TYR107      0.0548
    134  CG        36.7560   27.2160   -5.6240 C.ar  107  TYR107     -0.0200
    135  CD1       36.4200   26.7350   -4.3090 C.ar  107  TYR107     -0.0009
    136  CD2       36.1590   28.4020   -6.0590 C.ar  107  TYR107     -0.0009
    137  CE1       35.5320   27.4520   -3.4740 C.ar  107  TYR107      0.0417
    138  CE2       35.2520   29.1030   -5.2390 C.ar  107  TYR107      0.0417
    139  CZ        34.9690   28.6080   -3.9310 C.ar  107  TYR107      0.1957
    140  OH        34.1300   29.3040   -3.1430 O.3   107  TYR107     -0.2866
    141  N         38.6750   24.0790   -8.5550 N.am  108  SER108     -0.1952
    142  CA        39.2820   23.7150   -9.8430 C.3   108  SER108      0.1924
    143  C         38.4160   22.7080  -10.6200 C.2   108  SER108      0.2314
    144  O         38.2880   22.8270  -11.8510 O.2   108  SER108     -0.2863
    145  CB        40.6880   23.1470   -9.6620 C.3   108  SER108      0.2116
    146  OG        41.5970   24.1990   -9.3220 O.3   108  SER108     -0.2180
    147  N         34.3980   41.5640   -7.4060 N.3   144  GLU144     -0.1231
    148  CA        35.4020   41.7050   -8.4600 C.3   144  GLU144      0.1699
    149  C         36.5360   40.6370   -8.4770 C.2   144  GLU144      0.2592
    150  O         37.7540   40.9780   -8.4790 O.2   144  GLU144     -0.2718
    151  CB        35.9480   43.1310   -8.4750 C.3   144  GLU144      0.0402
    152  CG        35.2650   43.9680   -9.5570 C.3   144  GLU144      0.1161
    153  CD        35.3610   43.2780  -10.9190 C.2   144  GLU144      0.3649
    154  OE1       36.4790   43.2550  -11.4980 O.co2 144  GLU144     -0.2457
    155  OE2       34.3270   42.7450  -11.3980 O.co2 144  GLU144     -0.2457
    156  N         36.1190   39.3700   -8.4600 N.am  145  GLU145     -0.1979
    157  CA        37.0140   38.2030   -8.5600 C.3   145  GLU145      0.1602
    158  C         36.4420   37.1760   -9.5280 C.2   145  GLU145      0.2287
    159  O         35.2240   37.0950   -9.6960 O.2   145  GLU145     -0.2864
    160  CB        37.2540   37.5360   -7.1970 C.3   145  GLU145      0.0415
    161  CG        38.4290   38.1050   -6.3860 C.3   145  GLU145      0.1163
    162  CD        38.8240   37.2110   -5.1970 C.2   145  GLU145      0.3649
    163  OE1       38.3230   36.0560   -5.1010 O.co2 145  GLU145     -0.2457
    164  OE2       39.6430   37.6690   -4.3590 O.co2 145  GLU145     -0.2457
    165  N         35.7350   33.9010   -9.7770 N.3   147  TYR147     -0.1227
    166  CA        34.7210   32.8720   -9.5070 C.3   147  TYR147      0.1736
    167  C         33.4330   33.4180   -8.8930 C.2   147  TYR147      0.2595
    168  O         32.5870   32.6430   -8.4580 O.2   147  TYR147     -0.2718
    169  CB        35.3050   31.7630   -8.6360 C.3   147  TYR147      0.0548
    170  CG        36.5410   31.0900   -9.2090 C.ar  147  TYR147     -0.0200
    171  CD1       36.6090   30.7330  -10.5690 C.ar  147  TYR147     -0.0009
    172  CD2       37.6440   30.7730   -8.3760 C.ar  147  TYR147     -0.0009
    173  CE1       37.7500   30.0890  -11.0920 C.ar  147  TYR147      0.0417
    174  CE2       38.7670   30.1430   -8.8820 C.ar  147  TYR147      0.0417
    175  CZ        38.8110   29.8010  -10.2480 C.ar  147  TYR147      0.1957
    176  OH        39.9050   29.1850  -10.7470 O.3   147  TYR147     -0.2866
    177  N         33.2850   34.7470   -8.9150 N.am  148  GLU148     -0.1979
    178  CA        32.1880   35.4950   -8.2500 C.3   148  GLU148      0.1602
    179  C         30.7670   35.2670   -8.7600 C.2   148  GLU148      0.2287
    180  O         29.8310   35.5240   -8.0270 O.2   148  GLU148     -0.2864
    181  CB        32.4630   37.0270   -8.2610 C.3   148  GLU148      0.0415
    182  CG        32.0450   37.8130   -9.5930 C.3   148  GLU148      0.1163
    183  CD        32.7830   39.1740   -9.7910 C.2   148  GLU148      0.3649
    184  OE1       32.8990   39.9590   -8.8230 O.co2 148  GLU148     -0.2457
    185  OE2       33.2520   39.4510  -10.9280 O.co2 148  GLU148     -0.2457
    186  N         29.4010   29.6890   -8.8720 N.3   153  GLN153     -0.1245
    187  CA        29.1560   29.2650   -7.4760 C.3   153  GLN153      0.1566
    188  C         28.2890   28.0140   -7.4240 C.2   153  GLN153      0.2260
    189  O         28.5450   27.1100   -6.6240 O.2   153  GLN153     -0.2867
    190  CB        28.5220   30.4090   -6.6780 C.3   153  GLN153      0.0367
    191  CG        29.4760   31.6410   -6.4940 C.3   153  GLN153      0.0905
    192  CD        30.6180   31.3470   -5.5090 C.2   153  GLN153      0.2608
    193  OE1       30.3680   30.9140   -4.3660 O.2   153  GLN153     -0.2717
    194  NE2       31.8680   31.5570   -5.9430 N.am  153  GLN153     -0.0878
@<TRIPOS>BOND
     1   144   143    2
     2   154   153   ar
     3   155   153   ar
     4   173   171   ar
     5   173   175   ar
     6   185   183   ar
     7   153   152    1
     8   176   175    1
     9   143   142    1
    10   171   170   ar
    11   175   174   ar
    12   142   145    1
    13   142   141    1
    14   183   182    1
    15   183   184   ar
    16   165   166    1
    17    61    60    2
    18   159   158    2
    19    58    59    1
    20   145   146    1
    21   182   181    1
    22   132   131    2
    23   152   151    1
    24    60    59    1
    25   158   157    1
    26   166   167    1
    27   166   169    1
    28   170   169    1
    29   170   172   ar
    30    59    62    1
    31   177   167   am
    32   177   178    1
    33   167   168    2
    34   174   172   ar
    35   186   187    1
    36   179   178    1
    37   179   180    2
    38   157   156    1
    39   157   160    1
    40   141   131   am
    41   131   130    1
    42   150   149    2
    43   149   148    1
    44   149   156   am
    45   151   148    1
    46   148   147    1
    47   181   178    1
    48    62    63    1
    49   187   188    1
    50   187   190    1
    51    65    63    1
    52   188   189    2
    53    75    73   ar
    54    75    76   ar
    55   160   161    1
    56   130   133    1
    57   130   129    1
    58    63    64    1
    59    73    71   ar
    60   190   191    1
    61   133   134    1
    62   191   192    1
    63   128   127    2
    64   161   162    1
    65    66    67    1
    66    76    74   ar
    67   136   134   ar
    68   136   138   ar
    69   194   192   am
    70    71    70    1
    71    71    72   ar
    72   134   135   ar
    73   192   193    2
    74    70    67    1
    75   138   139   ar
    76   127   126    1
    77   162   163   ar
    78   162   164   ar
    79    67    68    1
    80    74    72   ar
    81   135   137   ar
    82   126   125    1
    83    68    69    2
    84   122   121    2
    85     8     6   ar
    86   139   137   ar
    87   139   140    1
    88    56    55    1
    89   121   125   am
    90   121   120    1
    91     6     5    1
    92     6     7   ar
    93    87    85    1
    94    55    57    1
    95    55    54    2
    96     5     2    1
    97    18    17    1
    98    50    49    2
    99    45    44    1
   100    45    46    1
   101    53    52    1
   102    53    54    1
   103    52    51    1
   104    44    41    1
   105   120   123    1
   106   120   119    1
   107    85    86    1
   108    85    84    2
   109     1     2    1
   110    51    48    1
   111     2     3    1
   112    46    40    1
   113    48    49    1
   114    48    47    1
   115    17    19    1
   116    17    16    2
   117   123   124    1
   118     4     3    2
   119    15    16    1
   120    15    14    1
   121     3     9   am
   122   106   104    1
   123    84    83    1
   124    41    40    1
   125    41    42    1
   126   104   105    1
   127   104   103    2
   128    14    13    1
   129    77    78    1
   130    40    31   am
   131   103   102    1
   132    13    10    1
   133   110   109    2
   134   102   101    1
   135     9    10    1
   136    42    43    2
   137    83    82    1
   138    81    82    1
   139    81    78    1
   140    31    32    2
   141    31    30    1
   142    10    11    1
   143    78    79    1
   144   109   108    1
   145    79    80    2
   146   101   100    1
   147    33    30    1
   148    33    34    1
   149    11    12    2
   150   100    97    1
   151    30    29    1
   152    35    34   ar
   153    35    37   ar
   154    28    27    1
   155   108   107    1
   156   108   111    1
   157   107    98   am
   158    34    36   ar
   159    37    39   ar
   160    27    26    1
   161    97    98    1
   162    97    96    1
   163    98    99    2
   164    36    38   ar
   165   111   112    1
   166    26    25    1
   167    39    38   ar
   168   112   114   ar
   169   112   113   ar
   170    91    90    2
   171   114   116   ar
   172   113   115   ar
   173    96    90   am
   174    94    93   ar
   175   116   117   ar
   176   115   117   ar
   177    90    89    1
   178    25    24    1
   179   117   118    1
   180    93    95   ar
   181    93    92    1
   182    24    21    1
   183    89    92    1
   184    89    88    1
   185    20    21    1
   186    21    22    1
   187    22    23    2
