@<TRIPOS>MOLECULE
tmp/2yohA00.pdb
 154 149 0 0 0
SMALL
GASTEIGER

@<TRIPOS>ATOM
      1  N         16.4340    4.3390   -5.7400 N.3    14  ASP14      -0.1225
      2  CA        16.0470    5.7340   -5.7670 C.3    14  ASP14       0.1805
      3  C         15.3550    6.0600   -7.0780 C.2    14  ASP14       0.2597
      4  O         14.2970    6.7150   -7.0970 O.2    14  ASP14      -0.2718
      5  CB        17.2890    6.6630   -5.5850 C.3    14  ASP14       0.1424
      6  CG        17.9720    6.4860   -4.2100 C.2    14  ASP14       0.3668
      7  OD1       17.8420    5.4120   -3.6000 O.co2  14  ASP14      -0.2456
      8  OD2       18.6990    7.4260   -3.7650 O.co2  14  ASP14      -0.2456
      9  N         15.9410    5.6330   -8.1920 N.am   15  ARG15      -0.1979
     10  CA        15.3570    6.0750   -9.4510 C.3    15  ARG15       0.1597
     11  C         14.4770    5.0410  -10.1670 C.2    15  ARG15       0.2287
     12  O         14.5820    4.8440  -11.3830 O.2    15  ARG15      -0.2864
     13  CB        16.4370    6.6720  -10.3460 C.3    15  ARG15       0.0334
     14  CG        16.8950    8.0870   -9.8640 C.3    15  ARG15       0.0492
     15  CD        15.7150    8.8160   -9.1600 C.3    15  ARG15       0.2205
     16  NE        15.6780   10.2750   -9.3100 N.pl3  15  ARG15      -0.0865
     17  CZ        16.3570   11.1470   -8.5550 C.cat  15  ARG15       0.5346
     18  NH1       17.1830   10.7300   -7.5950 N.pl3  15  ARG15       0.1354
     19  NH2       16.2180   12.4510   -8.7680 N.pl3  15  ARG15       0.1354
     20  N          8.7610    4.5720   -8.1870 N.3    18  LYS18      -0.1231
     21  CA         7.7810    4.1950   -7.1670 C.3    18  LYS18       0.1693
     22  C          6.6860    5.2310   -6.9630 C.2    18  LYS18       0.2592
     23  O          5.5310    4.8730   -6.7750 O.2    18  LYS18      -0.2718
     24  CB         8.4540    3.8860   -5.8180 C.3    18  LYS18       0.0285
     25  CG         9.3510    2.6380   -5.8210 C.3    18  LYS18       0.0035
     26  CD        10.0140    2.4580   -4.4560 C.3    18  LYS18       0.0206
     27  CE        10.7910    3.7030   -4.0390 C.3    18  LYS18       0.1093
     28  NZ        12.0050    3.9040   -4.8680 N.3    18  LYS18      -0.1314
     29  N          7.0330    6.5170   -6.9780 N.am   19  SER19      -0.1952
     30  CA         5.9760    7.5010   -6.7120 C.3    19  SER19       0.1924
     31  C          4.9910    7.5250   -7.8630 C.2    19  SER19       0.2314
     32  O          3.7990    7.6600   -7.6250 O.2    19  SER19      -0.2863
     33  CB         6.4950    8.8990   -6.3720 C.3    19  SER19       0.2116
     34  OG         7.2560    9.4270   -7.4350 O.3    19  SER19      -0.2180
     35  N          7.4130    6.0790    3.3640 N.3    41  PHE41      -0.1228
     36  CA         8.5080    6.1370    4.3620 C.3    41  PHE41       0.1721
     37  C          9.8260    6.4550    3.6780 C.2    41  PHE41       0.2437
     38  O         10.1060    5.9630    2.5800 O.2    41  PHE41      -0.2733
     39  CB         8.6560    4.7570    5.1020 C.3    41  PHE41       0.0547
     40  CG         7.4630    4.4400    5.9890 C.ar   41  PHE41      -0.0202
     41  CD1        7.2560    5.1560    7.1790 C.ar   41  PHE41      -0.0042
     42  CD2        6.5210    3.4730    5.5840 C.ar   41  PHE41      -0.0042
     43  CE1        6.0710    4.9220    7.9590 C.ar   41  PHE41      -0.0003
     44  CE2        5.4000    3.1590    6.3790 C.ar   41  PHE41      -0.0003
     45  CZ         5.1530    3.9100    7.5710 C.ar   41  PHE41      -0.0000
     46  N         10.6890    7.2200    4.3560 N.am   42  PRO42      -0.2729
     47  CA        10.4030    7.8860    5.6290 C.3    42  PRO42       0.1401
     48  C          9.3860    9.0060    5.4170 C.2    42  PRO42       0.2269
     49  O          9.1120    9.4090    4.2300 O.2    42  PRO42      -0.2865
     50  CB        11.7770    8.4580    6.0290 C.3    42  PRO42       0.0296
     51  CG        12.4700    8.7940    4.6580 C.3    42  PRO42       0.0237
     52  CD        12.0220    7.5900    3.7860 C.3    42  PRO42       0.0939
     53  N         19.2910   12.8150    5.4650 N.3    56  LEU56      -0.1245
     54  CA        19.2790   12.5750    4.0350 C.3    56  LEU56       0.1561
     55  C         19.9660   13.6920    3.2710 C.2    56  LEU56       0.2260
     56  O         20.6190   13.4520    2.2160 O.2    56  LEU56      -0.2867
     57  CB        17.8610   12.4030    3.5310 C.3    56  LEU56       0.0270
     58  CG        17.2820   11.0470    3.9870 C.3    56  LEU56       0.0019
     59  CD1       15.7980   11.0030    3.6380 C.3    56  LEU56       0.0001
     60  CD2       18.0550    9.8320    3.3770 C.3    56  LEU56       0.0001
     61  N         14.7620    5.2230   11.3270 N.3    71  PHE71      -0.1241
     62  CA        13.9460    4.7770   10.1970 C.3    71  PHE71       0.1605
     63  C         12.9080    3.7440   10.6540 C.2    71  PHE71       0.2264
     64  O         11.7280    3.8030   10.2930 O.2    71  PHE71      -0.2867
     65  CB        14.8340    4.1650    9.1020 C.3    71  PHE71       0.0534
     66  CG        15.3780    5.1780    8.1000 C.ar   71  PHE71      -0.0203
     67  CD1       14.5140    5.7790    7.1630 C.ar   71  PHE71      -0.0042
     68  CD2       16.7630    5.4030    7.9910 C.ar   71  PHE71      -0.0042
     69  CE1       14.9790    6.6670    6.1710 C.ar   71  PHE71      -0.0003
     70  CE2       17.2530    6.2750    7.0010 C.ar   71  PHE71      -0.0003
     71  CZ        16.3150    6.9320    6.0770 C.ar   71  PHE71      -0.0000
     72  N          8.3530    3.8820   11.1480 N.3    75  ARG75      -0.1245
     73  CA         7.3360    2.8640   10.8000 C.3    75  ARG75       0.1563
     74  C          6.4510    2.4890   11.9930 C.2    75  ARG75       0.2260
     75  O          5.2290    2.4980   11.8720 O.2    75  ARG75      -0.2867
     76  CB         8.0110    1.6330   10.2010 C.3    75  ARG75       0.0307
     77  CG         8.4700    1.8960    8.8200 C.3    75  ARG75       0.0489
     78  CD         9.1670    0.6730    8.2310 C.3    75  ARG75       0.2205
     79  NE        10.5160    0.3770    8.7550 N.pl3  75  ARG75      -0.0865
     80  CZ        11.6420    0.9360    8.3070 C.cat  75  ARG75       0.5346
     81  NH1       11.6190    2.0010    7.4490 N.pl3  75  ARG75       0.1354
     82  NH2       12.8020    0.4570    8.7500 N.pl3  75  ARG75       0.1354
     83  N          7.8570    2.3970    0.0730 N.3    96  ARG96      -0.1231
     84  CA         8.9650    1.9550    0.9610 C.3    96  ARG96       0.1694
     85  C          8.4660    1.4570    2.2990 C.2    96  ARG96       0.2592
     86  O          7.4910    1.9450    2.8260 O.2    96  ARG96      -0.2718
     87  CB        10.1110    2.9950    1.2090 C.3    96  ARG96       0.0321
     88  CG        10.7530    3.5190   -0.0850 C.3    96  ARG96       0.0489
     89  CD        12.0930    4.2160    0.2540 C.3    96  ARG96       0.2205
     90  NE        12.7340    4.6840   -0.9810 N.pl3  96  ARG96      -0.0865
     91  CZ        13.4840    3.9030   -1.7480 C.cat  96  ARG96       0.5346
     92  NH1       13.6500    2.6000   -1.4220 N.pl3  96  ARG96       0.1354
     93  NH2       14.0400    4.4120   -2.8600 N.pl3  96  ARG96       0.1354
     94  N          9.1800    0.4760    2.8200 N.am   97  TYR97      -0.1976
     95  CA         8.8590   -0.1000    4.1120 C.3    97  TYR97       0.1639
     96  C         10.1140   -0.6800    4.7440 C.2    97  TYR97       0.2290
     97  O         11.2260   -0.1890    4.5110 O.2    97  TYR97      -0.2864
     98  CB         7.8110   -1.1610    3.9340 C.3    97  TYR97       0.0560
     99  CG         6.9520   -1.5110    5.1530 C.ar   97  TYR97      -0.0198
    100  CD1        6.3330   -0.5040    5.9320 C.ar   97  TYR97      -0.0009
    101  CD2        6.7260   -2.8680    5.4880 C.ar   97  TYR97      -0.0009
    102  CE1        5.4530   -0.8350    6.9770 C.ar   97  TYR97       0.0417
    103  CE2        5.9060   -3.2270    6.5600 C.ar   97  TYR97       0.0417
    104  CZ         5.2570   -2.2070    7.3070 C.ar   97  TYR97       0.1957
    105  OH         4.3940   -2.5840    8.3290 O.3    97  TYR97      -0.2866
    106  N         13.2430   -1.5630    2.5650 N.3   100  SER100     -0.1202
    107  CA        14.2310   -0.4330    2.3490 C.3   100  SER100      0.2020
    108  C         15.1620   -0.2990    3.5190 C.2   100  SER100      0.2619
    109  O         16.3670   -0.0790    3.3360 O.2   100  SER100     -0.2717
    110  CB        13.5240    0.9490    2.1610 C.3   100  SER100      0.2103
    111  OG        12.8640    1.0750    0.8900 O.3   100  SER100     -0.2182
    112  N         14.6060   -0.3380    4.7250 N.am  101  GLY101     -0.1956
    113  CA        15.4040   -0.2900    5.9700 C.3   101  GLY101      0.1869
    114  C         16.6310   -1.2210    5.8990 C.2   101  GLY101      0.2309
    115  O         17.7570   -0.8190    6.1830 O.2   101  GLY101     -0.2863
    116  N         19.0230   -0.7080    2.3930 N.3   104  TYR104     -0.1227
    117  CA        19.8560    0.5230    2.4000 C.3   104  TYR104      0.1736
    118  C         20.8890    0.4530    3.5120 C.2   104  TYR104      0.2596
    119  O         22.0830    0.7480    3.3020 O.2   104  TYR104     -0.2718
    120  CB        18.9760    1.7720    2.5150 C.3   104  TYR104      0.0548
    121  CG        18.3960    2.1720    1.1860 C.ar  104  TYR104     -0.0200
    122  CD1       17.3030    1.4570    0.6230 C.ar  104  TYR104     -0.0009
    123  CD2       18.9670    3.2380    0.4400 C.ar  104  TYR104     -0.0009
    124  CE1       16.7820    1.7960   -0.6400 C.ar  104  TYR104      0.0417
    125  CE2       18.4440    3.5900   -0.7900 C.ar  104  TYR104      0.0417
    126  CZ        17.3540    2.8780   -1.3290 C.ar  104  TYR104      0.1957
    127  OH        16.8720    3.2130   -2.6130 O.3   104  TYR104     -0.2866
    128  N         20.4890    0.0330    4.6940 N.am  105  SER105     -0.1952
    129  CA        21.4540    0.0150    5.7840 C.3   105  SER105      0.1924
    130  C         22.5210   -1.0620    5.5920 C.2   105  SER105      0.2314
    131  O         23.6920   -0.8430    5.8750 O.2   105  SER105     -0.2863
    132  CB        20.7820   -0.1690    7.1300 C.3   105  SER105      0.2116
    133  OG        20.1270    1.0520    7.4530 O.3   105  SER105     -0.2180
    134  N         21.2330   13.9450   -2.4300 N.3   140  GLU140     -0.1245
    135  CA        20.9230   13.0050   -1.3240 C.3   140  GLU140      0.1567
    136  C         22.0450   12.0110   -0.9870 C.2   140  GLU140      0.2260
    137  O         22.8240   11.6130   -1.8560 O.2   140  GLU140     -0.2867
    138  CB        19.6350   12.2440   -1.6200 C.3   140  GLU140      0.0388
    139  CG        18.8630   11.8490   -0.3810 C.3   140  GLU140      0.1160
    140  CD        17.5350   11.1950   -0.7070 C.2   140  GLU140      0.3649
    141  OE1       16.5920   11.9400   -1.0590 O.co2 140  GLU140     -0.2457
    142  OE2       17.4250    9.9500   -0.5980 O.co2 140  GLU140     -0.2457
    143  N         22.5910    8.7720   -0.5350 N.3   142  TYR142     -0.1241
    144  CA        22.9580    7.4730   -1.1880 C.3   142  TYR142      0.1605
    145  C         22.9340    7.4860   -2.7220 C.2   142  TYR142      0.2264
    146  O         22.9460    6.4290   -3.3580 O.2   142  TYR142     -0.2867
    147  CB        22.0120    6.3860   -0.7190 C.3   142  TYR142      0.0534
    148  CG        22.0240    6.1710    0.7620 C.ar  142  TYR142     -0.0201
    149  CD1       23.2360    6.0920    1.4920 C.ar  142  TYR142     -0.0009
    150  CD2       20.8250    6.0200    1.4470 C.ar  142  TYR142     -0.0009
    151  CE1       23.2080    5.8750    2.8700 C.ar  142  TYR142      0.0417
    152  CE2       20.7980    5.7850    2.8230 C.ar  142  TYR142      0.0417
    153  CZ        21.9750    5.7030    3.5140 C.ar  142  TYR142      0.1957
    154  OH        21.8880    5.4630    4.8840 O.3   142  TYR142     -0.2866
@<TRIPOS>BOND
     1    12    11    2
     2    13    14    1
     3    13    10    1
     4    11    10    1
     5    14    15    1
     6    10     9    1
     7    16    15    1
     8    16    17    2
     9    19    17    1
    10    17    18    1
    11     9     3   am
    12    20    21    1
    13    31    32    2
    14    31    30    1
    15    34    33    1
    16    21    22    1
    17    21    24    1
    18     4     3    2
    19     3     2    1
    20    29    22   am
    21    29    30    1
    22    22    23    2
    23    30    33    1
    24    25    24    1
    25    25    26    1
    26     2     1    1
    27     2     5    1
    28     5     6    1
    29    28    27    1
    30    26    27    1
    31     6     8   ar
    32     6     7   ar
    33   146   145    2
    34    93    91    1
    35   145   144    1
    36   127   126    1
    37   134   135    1
    38   137   136    2
    39    91    92    1
    40    91    90    2
    41   138   135    1
    42   138   139    1
    43   126   125   ar
    44   126   124   ar
    45   135   136    1
    46   144   147    1
    47   144   143    1
    48   141   140   ar
    49    90    89    1
    50   125   123   ar
    51   147   148    1
    52   140   142   ar
    53   140   139    1
    54   124   122   ar
    55    88    89    1
    56    88    87    1
    57    83    84    1
    58   123   121   ar
    59   122   121   ar
    60   148   150   ar
    61   148   149   ar
    62   111   110    1
    63    84    87    1
    64    84    85    1
    65   121   120    1
    66   150   152   ar
    67   149   151   ar
    68   110   107    1
    69    56    55    2
    70    85    94   am
    71    85    86    2
    72   107   106    1
    73   107   108    1
    74   116   117    1
    75   117   120    1
    76   117   118    1
    77    38    37    2
    78    94    95    1
    79   152   153   ar
    80   151   153   ar
    81    55    54    1
    82   119   118    2
    83   109   108    2
    84    35    36    1
    85    60    58    1
    86   118   128   am
    87   153   154    1
    88   108   112   am
    89    57    58    1
    90    57    54    1
    91    59    58    1
    92    37    46   am
    93    37    36    1
    94    52    46    1
    95    52    51    1
    96    98    95    1
    97    98    99    1
    98    54    53    1
    99    95    96    1
   100    49    48    2
   101    46    47    1
   102    36    39    1
   103    97    96    2
   104    51    50    1
   105   128   129    1
   106   112   113    1
   107    39    40    1
   108    99   101   ar
   109    99   100   ar
   110    48    47    1
   111   101   103   ar
   112    42    40   ar
   113    42    44   ar
   114   130   129    1
   115   130   131    2
   116    47    50    1
   117   129   132    1
   118   114   113    1
   119   114   115    2
   120   100   102   ar
   121    40    41   ar
   122    71    69   ar
   123    71    70   ar
   124    69    67   ar
   125    44    45   ar
   126   103   104   ar
   127   102   104   ar
   128    70    68   ar
   129   132   133    1
   130    67    66   ar
   131    41    43   ar
   132   104   105    1
   133    81    80    1
   134    45    43   ar
   135    68    66   ar
   136    66    65    1
   137    78    79    1
   138    78    77    1
   139    80    82    1
   140    80    79    2
   141    77    76    1
   142    65    62    1
   143    62    63    1
   144    62    61    1
   145    76    73    1
   146    64    63    2
   147    73    72    1
   148    73    74    1
   149    75    74    2
