@<TRIPOS>MOLECULE
tmp/2yojB00.pdb
 167 158 0 0 0
SMALL
GASTEIGER

@<TRIPOS>ATOM
      1  N         26.2700    4.3670   10.0030 N.3   188  PHE188     -0.1241
      2  CA        27.2150    4.6350    8.9330 C.3   188  PHE188      0.1605
      3  C         28.7000    4.6010    9.2960 C.2   188  PHE188      0.2264
      4  O         29.5330    4.6800    8.3980 O.2   188  PHE188     -0.2867
      5  CB        26.8290    5.9040    8.1750 C.3   188  PHE188      0.0534
      6  CG        25.5200    5.8020    7.4380 C.ar  188  PHE188     -0.0203
      7  CD1       25.4080    5.0220    6.2880 C.ar  188  PHE188     -0.0042
      8  CD2       24.4150    6.5330    7.8540 C.ar  188  PHE188     -0.0042
      9  CE1       24.2000    4.9620    5.5750 C.ar  188  PHE188     -0.0003
     10  CE2       23.2100    6.4840    7.1380 C.ar  188  PHE188     -0.0003
     11  CZ        23.1110    5.6880    6.0160 C.ar  188  PHE188     -0.0000
     12  N         30.4270   -3.3030    6.3590 N.3   192  PRO192     -0.2116
     13  CA        29.4870   -4.4300    6.5590 C.3   192  PRO192      0.1372
     14  C         29.9550   -5.4440    7.6420 C.2   192  PRO192      0.2244
     15  O         29.1550   -5.8660    8.4690 O.2   192  PRO192     -0.2868
     16  CB        29.3910   -5.0530    5.1670 C.3   192  PRO192      0.0268
     17  CG        29.7010   -3.8800    4.2100 C.3   192  PRO192      0.0207
     18  CD        30.8090   -3.1620    4.9310 C.3   192  PRO192      0.0892
     19  N         29.4870   -3.9200   10.9990 N.3   195  ARG195     -0.1245
     20  CA        28.0460   -3.9000   11.2700 C.3   195  ARG195      0.1563
     21  C         27.5790   -5.2580   11.7910 C.2   195  ARG195      0.2260
     22  O         26.8380   -5.3270   12.7700 O.2   195  ARG195     -0.2867
     23  CB        27.2470   -3.5270   10.0010 C.3   195  ARG195      0.0307
     24  CG        25.7730   -3.3250   10.3010 C.3   195  ARG195      0.0489
     25  CD        24.9540   -2.9650    9.0710 C.3   195  ARG195      0.2205
     26  NE        23.5170   -3.0080    9.3790 N.pl3 195  ARG195     -0.0865
     27  CZ        22.8020   -1.9560    9.7620 C.cat 195  ARG195      0.5346
     28  NH1       23.3660   -0.7540    9.8450 N.pl3 195  ARG195      0.1354
     29  NH2       21.5200   -2.0950   10.0720 N.pl3 195  ARG195      0.1354
     30  N         20.3230    4.0660   10.4150 N.3   311  ASN311     -0.1240
     31  CA        20.9440    4.5600    9.1790 C.3   311  ASN311      0.1653
     32  C         19.8210    5.3100    8.4710 C.2   311  ASN311      0.2266
     33  O         18.9790    4.6690    7.8370 O.2   311  ASN311     -0.2867
     34  CB        21.3690    3.4090    8.2950 C.3   311  ASN311      0.1155
     35  CG        22.4630    2.5580    8.8490 C.2   311  ASN311      0.2627
     36  OD1       22.2760    1.8780    9.8460 O.2   311  ASN311     -0.2716
     37  ND2       23.6030    2.5480    8.1760 N.am  311  ASN311     -0.0877
     38  N         16.3700    6.6680    7.8490 N.3   313  ASP313     -0.1225
     39  CA        15.0560    6.2140    8.3200 C.3   313  ASP313      0.1805
     40  C         15.0280    4.7040    8.6750 C.2   313  ASP313      0.2597
     41  O         13.9640    4.1850    9.0350 O.2   313  ASP313     -0.2718
     42  CB        13.9780    6.4770    7.2490 C.3   313  ASP313      0.1424
     43  CG        14.1050    5.7100    5.9450 C.2   313  ASP313      0.3668
     44  OD1       15.1250    4.9940    5.7610 O.co2 313  ASP313     -0.2456
     45  OD2       13.2030    5.8420    5.0950 O.co2 313  ASP313     -0.2456
     46  N         16.1610    4.0120    8.5170 N.am  314  ASP314     -0.1974
     47  CA        16.2410    2.5800    8.7800 C.3   314  ASP314      0.1709
     48  C         16.6330    2.3140   10.2310 C.2   314  ASP314      0.2293
     49  O         17.6950    2.7210   10.6710 O.2   314  ASP314     -0.2864
     50  CB        17.1760    1.9060    7.7840 C.3   314  ASP314      0.1436
     51  CG        16.9820    0.4110    7.7950 C.2   314  ASP314      0.3671
     52  OD1       17.3250   -0.2150    8.8100 O.co2 314  ASP314     -0.2456
     53  OD2       16.4360   -0.1190    6.8120 O.co2 314  ASP314     -0.2456
     54  N         18.3340   -2.4100    6.8810 N.3   361  CYS361     -0.1221
     55  CA        19.0010   -1.8790    5.6860 C.3   361  CYS361      0.1808
     56  C         18.8800   -2.9180    4.5760 C.2   361  CYS361      0.2602
     57  O         19.8620   -3.2180    3.8940 O.2   361  CYS361     -0.2717
     58  CB        20.4520   -1.4910    5.9570 C.3   361  CYS361      0.0970
     59  SG        20.6270   -0.0690    7.0450 S.3   361  CYS361     -0.0800
     60  N         17.6690   -3.5240    4.4570 N.am  362  SER362     -0.1938
     61  CA        17.3030   -4.5800    3.4970 C.3   362  SER362      0.2055
     62  C         18.2520   -5.7970    3.5570 C.2   362  SER362      0.2643
     63  O         18.2550   -6.6200    2.6440 O.2   362  SER362     -0.2714
     64  CB        17.2160   -4.0150    2.0810 C.3   362  SER362      0.2130
     65  OG        16.1150   -3.1280    2.0470 O.3   362  SER362     -0.2179
     66  N         18.9880   -5.9400    4.6790 N.am  363  SER363     -0.1949
     67  CA        19.9790   -6.9940    4.8560 C.3   363  SER363      0.1924
     68  C         19.7280   -7.8710    6.0820 C.2   363  SER363      0.2314
     69  O         19.1300   -7.4200    7.0470 O.2   363  SER363     -0.2863
     70  CB        21.3710   -6.3780    4.9420 C.3   363  SER363      0.2116
     71  OG        21.5630   -5.5360    3.8150 O.3   363  SER363     -0.2180
     72  N         26.6040  -10.2140    6.1150 N.3   379  LEU379     -0.1245
     73  CA        25.3120   -9.6500    5.7490 C.3   379  LEU379      0.1561
     74  C         25.0080  -10.0230    4.3170 C.2   379  LEU379      0.2260
     75  O         25.8800   -9.9690    3.4580 O.2   379  LEU379     -0.2867
     76  CB        25.2950   -8.1210    5.9290 C.3   379  LEU379      0.0270
     77  CG        25.3320   -7.6500    7.3800 C.3   379  LEU379      0.0019
     78  CD1       25.5980   -6.1850    7.4520 C.3   379  LEU379      0.0001
     79  CD2       24.0070   -8.0050    8.1150 C.3   379  LEU379      0.0001
     80  N         21.3390  -10.3310    1.4410 N.3   381  ARG381     -0.1245
     81  CA        20.0440   -9.7630    1.1190 C.3   381  ARG381      0.1563
     82  C         19.4040  -10.5950    0.0380 C.2   381  ARG381      0.2260
     83  O         20.1040  -11.3530   -0.6560 O.2   381  ARG381     -0.2867
     84  CB        20.1820   -8.2810    0.6640 C.3   381  ARG381      0.0307
     85  CG        20.9160   -8.0350   -0.6470 C.3   381  ARG381      0.0489
     86  CD        20.5680   -6.6760   -1.2370 C.3   381  ARG381      0.2205
     87  NE        19.1890   -6.6390   -1.7620 N.pl3 381  ARG381     -0.0865
     88  CZ        18.3880   -5.5810   -1.6910 C.cat 381  ARG381      0.5346
     89  NH1       18.8120   -4.4540   -1.1320 N.pl3 381  ARG381      0.1354
     90  NH2       17.1600   -5.6370   -2.1910 N.pl3 381  ARG381      0.1354
     91  N         25.4860   -0.2540  -10.0010 N.3   402  SER402     -0.1217
     92  CA        25.0220   -0.9310   -8.7840 C.3   402  SER402      0.1889
     93  C         25.6950   -2.2730   -8.6100 C.2   402  SER402      0.2288
     94  O         25.9280   -2.6750   -7.4660 O.2   402  SER402     -0.2866
     95  CB        23.5060   -1.0980   -8.7590 C.3   402  SER402      0.2089
     96  OG        23.0970   -2.0320   -9.7460 O.3   402  SER402     -0.2183
     97  N         29.0260   -1.7090   -6.6960 N.3   405  GLY405     -0.1210
     98  CA        28.7430   -1.4300   -5.2890 C.3   405  GLY405      0.1956
     99  C         28.2960   -2.6960   -4.5740 C.2   405  GLY405      0.2611
    100  O         28.7130   -2.9400   -3.4400 O.2   405  GLY405     -0.2717
    101  N         27.4500   -3.5260   -5.2410 N.am  406  ASN406     -0.1974
    102  CA        26.9890   -4.8090   -4.6800 C.3   406  ASN406      0.1688
    103  C         28.1120   -5.8250   -4.5100 C.2   406  ASN406      0.2292
    104  O         28.1210   -6.5060   -3.4890 O.2   406  ASN406     -0.2864
    105  CB        25.8000   -5.3990   -5.4610 C.3   406  ASN406      0.1181
    106  CG        24.5110   -4.6940   -5.1160 C.2   406  ASN406      0.2629
    107  OD1       24.2270   -4.4080   -3.9480 O.2   406  ASN406     -0.2716
    108  ND2       23.7100   -4.3720   -6.1200 N.am  406  ASN406     -0.0877
    109  N         30.0700   -4.4520   -1.3480 N.3   409  MET409     -0.1230
    110  CA        29.3290   -4.5150   -0.0930 C.3   409  MET409      0.1702
    111  C         28.8270   -5.8810    0.2930 C.2   409  MET409      0.2592
    112  O         28.6430   -6.1480    1.4960 O.2   409  MET409     -0.2718
    113  CB        28.2060   -3.4610   -0.0910 C.3   409  MET409      0.0401
    114  CG        28.7420   -2.0170   -0.2130 C.3   409  MET409      0.0596
    115  SD        29.7300   -1.4590    1.2040 S.3   409  MET409     -0.1393
    116  CE        28.4420   -0.9130    2.2910 C.3   409  MET409      0.0692
    117  N         28.5940   -6.7410   -0.7120 N.am  410  TYR410     -0.1976
    118  CA        28.0830   -8.0950   -0.4980 C.3   410  TYR410      0.1639
    119  C         29.0620   -9.1480   -1.0260 C.2   410  TYR410      0.2290
    120  O         28.6580  -10.2660   -1.3500 O.2   410  TYR410     -0.2864
    121  CB        26.6900   -8.2460   -1.1440 C.3   410  TYR410      0.0560
    122  CG        25.6250   -7.4210   -0.4550 C.ar  410  TYR410     -0.0198
    123  CD1       25.0550   -7.8410    0.7400 C.ar  410  TYR410     -0.0009
    124  CD2       25.1600   -6.2350   -1.0190 C.ar  410  TYR410     -0.0009
    125  CE1       24.0950   -7.0780    1.3910 C.ar  410  TYR410      0.0417
    126  CE2       24.1760   -5.4770   -0.3920 C.ar  410  TYR410      0.0417
    127  CZ        23.6350   -5.9080    0.8070 C.ar  410  TYR410      0.1957
    128  OH        22.6650   -5.1740    1.4350 O.3   410  TYR410     -0.2866
    129  N         28.3800    3.6810   -5.6020 N.3   441  GLN441     -0.1231
    130  CA        28.0330    4.4220   -4.4070 C.3   441  GLN441      0.1698
    131  C         28.1660    3.5910   -3.1670 C.2   441  GLN441      0.2592
    132  O         27.6700    2.4550   -3.1170 O.2   441  GLN441     -0.2718
    133  CB        26.6260    5.0090   -4.5150 C.3   441  GLN441      0.0381
    134  CG        26.5440    6.1430   -5.5340 C.3   441  GLN441      0.0905
    135  CD        25.2670    6.9290   -5.4020 C.2   441  GLN441      0.2608
    136  OE1       24.1650    6.3760   -5.3860 O.2   441  GLN441     -0.2717
    137  NE2       25.3920    8.2440   -5.3350 N.am  441  GLN441     -0.0878
    138  N         28.8350    4.1670   -2.1590 N.am  442  ILE442     -0.1966
    139  CA        29.0210    3.5240   -0.8590 C.3   442  ILE442      0.1727
    140  C         28.4960    4.4850    0.1820 C.2   442  ILE442      0.2616
    141  O         29.0580    5.5770    0.3560 O.2   442  ILE442     -0.2715
    142  CB        30.4980    3.1150   -0.5550 C.3   442  ILE442      0.0290
    143  CG1       31.1680    2.2900   -1.7020 C.3   442  ILE442      0.0022
    144  CG2       30.5930    2.3920    0.7960 C.3   442  ILE442      0.0023
    145  CD1       30.5080    0.9520   -2.0750 C.3   442  ILE442      0.0001
    146  N         27.4320    4.0700    0.8740 N.am  443  TYR443     -0.1960
    147  CA        26.7920    4.8750    1.9200 C.3   443  TYR443      0.1771
    148  C         26.3710    6.2580    1.3790 C.2   443  TYR443      0.2620
    149  O         26.5700    7.2870    2.0400 O.2   443  TYR443     -0.2715
    150  CB        27.7020    4.9690    3.1770 C.3   443  TYR443      0.0574
    151  CG        27.7250    3.7140    4.0330 C.ar  443  TYR443     -0.0198
    152  CD1       26.8920    2.6340    3.7450 C.ar  443  TYR443     -0.0009
    153  CD2       28.5210    3.6390    5.1760 C.ar  443  TYR443     -0.0009
    154  CE1       26.8680    1.4990    4.5510 C.ar  443  TYR443      0.0417
    155  CE2       28.4830    2.5130    6.0070 C.ar  443  TYR443      0.0417
    156  CZ        27.6700    1.4400    5.6770 C.ar  443  TYR443      0.1957
    157  OH        27.6170    0.3030    6.4550 O.3   443  TYR443     -0.2866
    158  N         25.8650    6.2610    0.1410 N.am  444  GLY444     -0.1954
    159  CA        25.3920    7.4720   -0.5070 C.3   444  GLY444      0.1869
    160  C         26.4210    8.2850   -1.2600 C.2   444  GLY444      0.2309
    161  O         26.0380    9.0530   -2.1400 O.2   444  GLY444     -0.2863
    162  N         23.5800    9.8330    1.4970 N.3   551  SER551     -0.1217
    163  CA        22.5940    9.6090    0.4130 C.3   551  SER551      0.1889
    164  C         21.8040   10.8990    0.1120 C.2   551  SER551      0.2288
    165  O         21.2890   11.5440    1.0290 O.2   551  SER551     -0.2866
    166  CB        21.6630    8.4460    0.7410 C.3   551  SER551      0.2089
    167  OG        20.6270    8.3660   -0.2270 O.3   551  SER551     -0.2183
@<TRIPOS>BOND
     1    91    92    1
     2    96    95    1
     3    92    95    1
     4    92    93    1
     5    93    94    2
     6    97    98    1
     7   108   106   am
     8   129   130    1
     9   134   135    1
    10   134   133    1
    11   105   106    1
    12   105   102    1
    13   135   136    2
    14   135   137   am
    15    98    99    1
    16   101   102    1
    17   101    99   am
    18   106   107    2
    19   102   103    1
    20    99   100    2
    21   133   130    1
    22   103   104    2
    23   130   131    1
    24   131   132    2
    25   131   138   am
    26    90    88    1
    27   138   139    1
    28   161   160    2
    29   145   143    1
    30    87    88    2
    31    87    86    1
    32   143   142    1
    33    88    89    1
    34   120   119    2
    35   109   110    1
    36   160   159    1
    37    86    85    1
    38   121   118    1
    39   121   122    1
    40   119   118    1
    41   124   122   ar
    42   124   126   ar
    43   139   142    1
    44   139   140    1
    45   117   118    1
    46   117   111   am
    47    83    82    2
    48    85    84    1
    49   142   144    1
    50   159   158    1
    51   122   123   ar
    52   126   127   ar
    53   167   166    1
    54   114   113    1
    55   114   115    1
    56   110   113    1
    57   110   111    1
    58    82    81    1
    59   164   163    1
    60   164   165    2
    61   158   148   am
    62   140   141    2
    63   140   146   am
    64   111   112    2
    65   163   166    1
    66   163   162    1
    67    84    81    1
    68   123   125   ar
    69   127   125   ar
    70   127   128    1
    71   146   147    1
    72    81    80    1
    73   115   116    1
    74   148   147    1
    75   148   149    2
    76   147   150    1
    77    65    64    1
    78    64    61    1
    79    63    62    2
    80   150   151    1
    81    75    74    2
    82    61    62    1
    83    61    60    1
    84    62    66   am
    85   152   151   ar
    86   152   154   ar
    87    71    70    1
    88    57    56    2
    89   151   153   ar
    90    17    18    1
    91    17    16    1
    92    74    73    1
    93    60    56   am
    94   154   156   ar
    95    56    55    1
    96    66    67    1
    97    67    70    1
    98    67    68    1
    99    18    12    1
   100    45    43   ar
   101    16    13    1
   102   153   155   ar
   103     9    11   ar
   104     9     7   ar
   105   156   155   ar
   106   156   157    1
   107    55    58    1
   108    55    54    1
   109    73    76    1
   110    73    72    1
   111    44    43   ar
   112    76    77    1
   113    43    42    1
   114    58    59    1
   115    11    10   ar
   116    68    69    2
   117     7     6   ar
   118    12    13    1
   119    13    14    1
   120    53    51   ar
   121    10     8   ar
   122    42    39    1
   123    77    78    1
   124    77    79    1
   125     6     8   ar
   126     6     5    1
   127    14    15    2
   128    50    51    1
   129    50    47    1
   130    51    52   ar
   131    33    32    2
   132    38    39    1
   133     5     2    1
   134    37    35   am
   135    34    35    1
   136    34    31    1
   137    39    40    1
   138     4     3    2
   139    32    31    1
   140    46    40   am
   141    46    47    1
   142    40    41    2
   143    47    48    1
   144    35    36    2
   145     2     3    1
   146     2     1    1
   147    25    26    1
   148    25    24    1
   149    31    30    1
   150    26    27    2
   151    27    28    1
   152    27    29    1
   153    23    24    1
   154    23    20    1
   155    48    49    2
   156    19    20    1
   157    20    21    1
   158    21    22    2
