@<TRIPOS>MOLECULE
tmp/2yolA00.pdb
 186 184 0 0 0
SMALL
GASTEIGER

@<TRIPOS>ATOM
      1  N         38.5520  -19.6170  -15.9210 N.3    36  ASP36      -0.1225
      2  CA        39.3830  -20.6920  -15.3720 C.3    36  ASP36       0.1805
      3  C         40.8620  -20.3300  -15.4510 C.2    36  ASP36       0.2598
      4  O         41.6400  -20.7010  -14.5720 O.2    36  ASP36      -0.2718
      5  CB        39.1650  -22.0100  -16.1180 C.3    36  ASP36       0.1424
      6  CG        37.8400  -22.6550  -15.7990 C.2    36  ASP36       0.3668
      7  OD1       37.3790  -22.5720  -14.6350 O.co2  36  ASP36      -0.2456
      8  OD2       37.2710  -23.2660  -16.7290 O.co2  36  ASP36      -0.2456
      9  N         41.2410  -19.6150  -16.5070 N.am   37  GLY37      -0.1942
     10  CA        42.6280  -19.2640  -16.7430 C.3    37  GLY37       0.2014
     11  C         43.1370  -19.9270  -18.0010 C.2    37  GLY37       0.2639
     12  O         44.3370  -19.9360  -18.2620 O.2    37  GLY37      -0.2714
     13  N         42.2250  -20.4870  -18.7840 N.am   38  ASN38      -0.1958
     14  CA        42.5920  -21.0870  -20.0580 C.3    38  ASN38       0.1819
     15  C         42.2700  -20.1720  -21.2180 C.2    38  ASN38       0.2621
     16  O         41.1380  -19.7270  -21.3650 O.2    38  ASN38      -0.2715
     17  CB        41.8880  -22.4280  -20.2550 C.3    38  ASN38       0.1195
     18  CG        42.2560  -23.4290  -19.1960 C.2    38  ASN38       0.2630
     19  OD1       41.8240  -23.3220  -18.0450 O.2    38  ASN38      -0.2716
     20  ND2       43.0640  -24.4120  -19.5750 N.am   38  ASN38      -0.0877
     21  N         43.2700  -19.8840  -22.0360 N.am   39  PHE39      -0.1960
     22  CA        43.0410  -19.1540  -23.2580 C.3    39  PHE39       0.1771
     23  C         42.3570  -20.0880  -24.2340 C.2    39  PHE39       0.2619
     24  O         42.6710  -21.2760  -24.2860 O.2    39  PHE39      -0.2715
     25  CB        44.3560  -18.7340  -23.8800 C.3    39  PHE39       0.0574
     26  CG        45.0960  -17.6610  -23.1370 C.ar   39  PHE39      -0.0200
     27  CD1       44.8950  -16.3260  -23.4440 C.ar   39  PHE39      -0.0042
     28  CD2       46.0560  -17.9900  -22.1910 C.ar   39  PHE39      -0.0042
     29  CE1       45.6070  -15.3360  -22.7930 C.ar   39  PHE39      -0.0003
     30  CE2       46.7720  -17.0000  -21.5380 C.ar   39  PHE39      -0.0003
     31  CZ        46.5440  -15.6700  -21.8420 C.ar   39  PHE39      -0.0000
     32  N         41.4320  -19.5350  -25.0120 N.am   40  GLN40      -0.1977
     33  CA        40.7110  -20.2740  -26.0460 C.3    40  GLN40       0.1601
     34  C         40.8440  -19.5510  -27.3830 C.2    40  GLN40       0.2287
     35  O         40.8930  -18.3240  -27.4170 O.2    40  GLN40      -0.2864
     36  CB        39.2310  -20.3680  -25.6890 C.3    40  GLN40       0.0394
     37  CG        38.9280  -20.7820  -24.2520 C.3    40  GLN40       0.0908
     38  CD        39.0470  -22.2810  -24.0130 C.2    40  GLN40       0.2608
     39  OE1       39.0150  -23.0880  -24.9480 O.2    40  GLN40      -0.2717
     40  NE2       39.1810  -22.6580  -22.7510 N.am   40  GLN40      -0.0878
     41  N         37.5510  -23.7190  -30.4790 N.3    44  ASP44      -0.1239
     42  CA        38.6720  -24.5210  -29.9370 C.3    44  ASP44       0.1674
     43  C         38.4270  -26.0470  -30.0280 C.2    44  ASP44       0.2266
     44  O         37.3090  -26.5070  -29.7360 O.2    44  ASP44      -0.2867
     45  CB        38.9050  -24.1050  -28.4570 C.3    44  ASP44       0.1410
     46  CG        40.3550  -24.3370  -27.9640 C.2    44  ASP44       0.3668
     47  OD1       40.8980  -25.4520  -28.1440 O.co2  44  ASP44      -0.2456
     48  OD2       40.9420  -23.4040  -27.3580 O.co2  44  ASP44      -0.2456
     49  N         50.6090  -19.4890  -11.5420 N.3    93  TRP93      -0.1227
     50  CA        49.7890  -20.0200  -10.4540 C.3    93  TRP93       0.1737
     51  C         49.7130  -21.5530  -10.5230 C.2    93  TRP93       0.2595
     52  O         49.7750  -22.2360   -9.4920 O.2    93  TRP93      -0.2718
     53  CB        48.3890  -19.3920  -10.4570 C.3    93  TRP93       0.0564
     54  CG        47.3610  -20.2970   -9.8680 C.ar   93  TRP93       0.0003
     55  CD1       46.6870  -21.2960  -10.5130 C.ar   93  TRP93       0.0946
     56  CD2       46.9230  -20.3310   -8.5140 C.ar   93  TRP93       0.0152
     57  NE1       45.8480  -21.9440   -9.6410 N.ar   93  TRP93      -0.2442
     58  CE2       45.9720  -21.3710   -8.4070 C.ar   93  TRP93       0.0810
     59  CE3       47.2270  -19.5770   -7.3840 C.ar   93  TRP93       0.0012
     60  CZ2       45.3210  -21.6750   -7.2180 C.ar   93  TRP93       0.0191
     61  CZ3       46.5760  -19.8810   -6.1860 C.ar   93  TRP93       0.0001
     62  CH2       45.6320  -20.9240   -6.1170 C.ar   93  TRP93       0.0015
     63  N         49.5950  -22.0860  -11.7380 N.am   94  HIS94      -0.1975
     64  CA        49.4680  -23.5290  -11.9020 C.3    94  HIS94       0.1656
     65  C         50.6530  -24.3310  -11.3870 C.2    94  HIS94       0.2291
     66  O         50.4770  -25.4960  -11.0200 O.2    94  HIS94      -0.2864
     67  CB        49.0600  -23.9440  -13.3250 C.3    94  HIS94       0.0771
     68  CG        50.1470  -23.8540  -14.3550 C.ar   94  HIS94       0.0820
     69  ND1       50.0650  -23.0090  -15.4450 N.ar   94  HIS94      -0.2267
     70  CD2       51.2980  -24.5500  -14.5070 C.ar   94  HIS94       0.1154
     71  CE1       51.1300  -23.1690  -16.2100 C.ar   94  HIS94       0.1986
     72  NE2       51.8910  -24.1030  -15.6670 N.ar   94  HIS94      -0.2212
     73  N         43.8290  -17.0210  -10.1940 N.3   115  VAL115     -0.1245
     74  CA        43.6570  -18.2330  -10.9740 C.3   115  VAL115      0.1561
     75  C         43.4000  -17.8840  -12.4500 C.2   115  VAL115      0.2260
     76  O         43.9460  -18.5390  -13.3560 O.2   115  VAL115     -0.2867
     77  CB        42.5460  -19.1300  -10.4000 C.3   115  VAL115      0.0252
     78  CG1       42.4800  -20.4590  -11.1310 C.3   115  VAL115      0.0019
     79  CG2       42.7840  -19.3710   -8.9270 C.3   115  VAL115      0.0019
     80  N         46.5510  -16.6600  -13.9740 N.3   118  ASP118     -0.1239
     81  CA        47.5680  -17.6840  -13.7630 C.3   118  ASP118      0.1674
     82  C         48.8520  -17.0260  -13.2540 C.2   118  ASP118      0.2266
     83  O         49.9240  -17.2300  -13.7980 O.2   118  ASP118     -0.2867
     84  CB        47.7890  -18.4690  -15.0700 C.3   118  ASP118      0.1410
     85  CG        48.4620  -19.8130  -14.8590 C.2   118  ASP118      0.3668
     86  OD1       48.6850  -20.2190  -13.6910 O.co2 118  ASP118     -0.2456
     87  OD2       48.7640  -20.4640  -15.8870 O.co2 118  ASP118     -0.2456
     88  N         58.2040  -24.0570  -27.0370 N.3   172  ASP172     -0.1225
     89  CA        57.5880  -25.2730  -26.4860 C.3   172  ASP172      0.1805
     90  C         58.4630  -25.9940  -25.4680 C.2   172  ASP172      0.2598
     91  O         59.3320  -26.7970  -25.8340 O.2   172  ASP172     -0.2718
     92  CB        57.2110  -26.2460  -27.6120 C.3   172  ASP172      0.1424
     93  CG        56.1190  -27.2510  -27.2000 C.2   172  ASP172      0.3668
     94  OD1       55.9770  -27.5940  -26.0060 O.co2 172  ASP172     -0.2456
     95  OD2       55.3900  -27.7140  -28.0920 O.co2 172  ASP172     -0.2456
     96  N         58.2100  -25.7550  -24.1870 N.am  173  TYR173     -0.1963
     97  CA        59.0020  -26.4130  -23.1560 C.3   173  TYR173      0.1756
     98  C         58.1990  -27.3410  -22.2440 C.2   173  TYR173      0.2461
     99  O         56.9690  -27.3060  -22.2380 O.2   173  TYR173     -0.2730
    100  CB        59.8260  -25.3860  -22.3880 C.3   173  TYR173      0.0574
    101  CG        60.8730  -24.7770  -23.2740 C.ar  173  TYR173     -0.0198
    102  CD1       61.9180  -25.5410  -23.7550 C.ar  173  TYR173     -0.0009
    103  CD2       60.7980  -23.4540  -23.6810 C.ar  173  TYR173     -0.0009
    104  CE1       62.8850  -24.9960  -24.5920 C.ar  173  TYR173      0.0417
    105  CE2       61.7680  -22.8960  -24.5170 C.ar  173  TYR173      0.0417
    106  CZ        62.8060  -23.6740  -24.9640 C.ar  173  TYR173      0.1957
    107  OH        63.7790  -23.1610  -25.7870 O.3   173  TYR173     -0.2866
    108  N         58.8950  -28.2250  -21.5170 N.am  174  PRO174     -0.2716
    109  CA        58.2120  -29.1130  -20.5850 C.3   174  PRO174      0.1536
    110  C         57.4650  -28.3430  -19.5220 C.2   174  PRO174      0.2599
    111  O         57.8430  -27.2180  -19.1770 O.2   174  PRO174     -0.2715
    112  CB        59.3570  -29.8880  -19.9430 C.3   174  PRO174      0.0310
    113  CG        60.4150  -29.9080  -21.0030 C.3   174  PRO174      0.0237
    114  CD        60.3180  -28.5810  -21.6820 C.3   174  PRO174      0.0939
    115  N         56.4200  -28.9710  -18.9940 N.am  175  THR175     -0.1951
    116  CA        55.5290  -28.3490  -17.9950 C.3   175  THR175      0.1897
    117  C         56.2260  -27.7520  -16.7380 C.2   175  THR175      0.2313
    118  O         55.6990  -26.8190  -16.1220 O.2   175  THR175     -0.2863
    119  CB        54.3510  -29.3190  -17.6020 C.3   175  THR175      0.1794
    120  OG1       53.3110  -28.5970  -16.9060 O.3   175  THR175     -0.2208
    121  CG2       54.8560  -30.5480  -16.7750 C.3   175  THR175      0.0378
    122  N         57.3260  -23.8630  -16.6870 N.3   178  SER178     -0.1217
    123  CA        56.3670  -22.8130  -16.4070 C.3   178  SER178      0.1889
    124  C         56.8950  -21.8670  -15.3440 C.2   178  SER178      0.2288
    125  O         57.5410  -22.3010  -14.3890 O.2   178  SER178     -0.2866
    126  CB        55.0800  -23.4500  -15.9310 C.3   178  SER178      0.2089
    127  OG        54.6410  -24.4090  -16.8770 O.3   178  SER178     -0.2183
    128  N         56.6550  -17.3420  -18.5280 N.3   193  TYR193     -0.1227
    129  CA        56.3070  -18.3260  -19.5250 C.3   193  TYR193      0.1736
    130  C         55.3620  -19.4040  -18.9870 C.2   193  TYR193      0.2596
    131  O         55.4440  -19.8000  -17.8200 O.2   193  TYR193     -0.2718
    132  CB        57.5730  -18.9670  -20.0520 C.3   193  TYR193      0.0548
    133  CG        57.2940  -20.1270  -20.9420 C.ar  193  TYR193     -0.0200
    134  CD1       57.0550  -19.9360  -22.3000 C.ar  193  TYR193     -0.0009
    135  CD2       57.2440  -21.4300  -20.4280 C.ar  193  TYR193     -0.0009
    136  CE1       56.7890  -21.0170  -23.1470 C.ar  193  TYR193      0.0417
    137  CE2       56.9730  -22.5220  -21.2580 C.ar  193  TYR193      0.0417
    138  CZ        56.7450  -22.3080  -22.6190 C.ar  193  TYR193      0.1957
    139  OH        56.4790  -23.3760  -23.4540 O.3   193  TYR193     -0.2866
    140  N         54.4600  -19.8720  -19.8450 N.am  194  GLY194     -0.1942
    141  CA        53.7650  -21.1130  -19.5690 C.3   194  GLY194      0.2014
    142  C         52.2620  -21.2280  -19.6910 C.2   194  GLY194      0.2639
    143  O         51.7360  -22.3240  -19.5760 O.2   194  GLY194     -0.2714
    144  N         51.5540  -20.1260  -19.8950 N.am  195  ASN195     -0.1957
    145  CA        50.1110  -20.2040  -20.1120 C.3   195  ASN195      0.1823
    146  C         49.8010  -19.7560  -21.5200 C.2   195  ASN195      0.2661
    147  O         50.1480  -18.6420  -21.9000 O.2   195  ASN195     -0.2711
    148  CB        49.3570  -19.3420  -19.1050 C.3   195  ASN195      0.1195
    149  CG        47.8730  -19.6520  -19.0700 C.2   195  ASN195      0.2630
    150  OD1       47.4110  -20.6350  -19.6430 O.2   195  ASN195     -0.2716
    151  ND2       47.1190  -18.8130  -18.3840 N.am  195  ASN195     -0.0877
    152  N         49.1770  -20.6230  -22.3080 N.am  196  GLY196     -0.1716
    153  CA        48.9600  -20.2970  -23.7100 C.2   196  GLY196      0.1480
    154  C         47.9420  -21.1440  -24.4400 C.2   196  GLY196      0.2820
    155  O         46.9810  -21.6330  -23.8500 O.2   196  GLY196     -0.2669
    156  N         48.1460  -21.2870  -25.7460 N.am  197  VAL197     -0.1929
    157  CA        47.2610  -22.0850  -26.5840 C.3   197  VAL197      0.1730
    158  C         48.0630  -23.0250  -27.4610 C.2   197  VAL197      0.2616
    159  O         49.2570  -22.7990  -27.7220 O.2   197  VAL197     -0.2715
    160  CB        46.3970  -21.2260  -27.5270 C.3   197  VAL197      0.0290
    161  CG1       45.4880  -20.3320  -26.7510 C.3   197  VAL197      0.0023
    162  CG2       47.2590  -20.4180  -28.4880 C.3   197  VAL197      0.0023
    163  N         47.3930  -24.0840  -27.9110 N.am  198  ILE198     -0.1977
    164  CA        47.9280  -24.9500  -28.9440 C.3   198  ILE198      0.1596
    165  C         47.1640  -24.5970  -30.1950 C.2   198  ILE198      0.2287
    166  O         45.9440  -24.6720  -30.2290 O.2   198  ILE198     -0.2864
    167  CB        47.7480  -26.4180  -28.6000 C.3   198  ILE198      0.0276
    168  CG1       48.3810  -26.6840  -27.2340 C.3   198  ILE198      0.0022
    169  CG2       48.3680  -27.2800  -29.6830 C.3   198  ILE198      0.0022
    170  CD1       47.6960  -27.7420  -26.4050 C.3   198  ILE198      0.0001
    171  N         49.1180  -27.3850  -34.5950 N.3   202  GLY202     -0.1225
    172  CA        49.9080  -28.0420  -33.5630 C.3   202  GLY202      0.1811
    173  C         50.8960  -27.2440  -32.7120 C.2   202  GLY202      0.2280
    174  O         51.3250  -27.7380  -31.6820 O.2   202  GLY202     -0.2866
    175  N         52.5450  -24.8300  -29.9720 N.3   204  TYR204     -0.1241
    176  CA        52.1940  -24.2410  -28.6850 C.3   204  TYR204      0.1605
    177  C         52.5890  -22.7730  -28.6810 C.2   204  TYR204      0.2264
    178  O         53.6620  -22.4180  -29.1710 O.2   204  TYR204     -0.2867
    179  CB        52.8890  -24.9550  -27.5400 C.3   204  TYR204      0.0534
    180  CG        52.5990  -24.3110  -26.2190 C.ar  204  TYR204     -0.0201
    181  CD1       51.3810  -24.5150  -25.5830 C.ar  204  TYR204     -0.0009
    182  CD2       53.5270  -23.4610  -25.6170 C.ar  204  TYR204     -0.0009
    183  CE1       51.0900  -23.9060  -24.3660 C.ar  204  TYR204      0.0417
    184  CE2       53.2500  -22.8470  -24.3900 C.ar  204  TYR204      0.0417
    185  CZ        52.0290  -23.0790  -23.7740 C.ar  204  TYR204      0.1957
    186  OH        51.7430  -22.4880  -22.5700 O.3   204  TYR204     -0.2866
@<TRIPOS>BOND
     1   171   172    1
     2   172   173    1
     3   173   174    2
     4    41    42    1
     5   166   165    2
     6   165   164    1
     7    43    42    1
     8    43    44    2
     9   175   176    1
    10    42    45    1
    11   169   167    1
    12   178   177    2
    13   164   167    1
    14   164   163    1
    15   176   177    1
    16   176   179    1
    17   167   168    1
    18   162   160    1
    19    45    46    1
    20    47    46   ar
    21    95    93   ar
    22    46    48   ar
    23   163   158   am
    24   159   158    2
    25    92    93    1
    26    92    89    1
    27   179   180    1
    28   160   161    1
    29   160   157    1
    30   158   157    1
    31    35    34    2
    32    34    33    1
    33   168   170    1
    34    93    94   ar
    35    88    89    1
    36   157   156    1
    37    89    90    1
    38   180   182   ar
    39   180   181   ar
    40    33    36    1
    41    33    32    1
    42    91    90    2
    43   107   106    1
    44   156   154   am
    45    36    37    1
    46   182   184   ar
    47   181   183   ar
    48    90    96   am
    49    32    23   am
    50   106   104   ar
    51   106   105   ar
    52    39    38    2
    53   104   102   ar
    54   105   103   ar
    55   154   155    2
    56   154   153    1
    57   184   185   ar
    58   183   185   ar
    59    24    23    2
    60    37    38    1
    61    23    22    1
    62    96    97    1
    63    38    40   am
    64    25    22    1
    65    25    26    1
    66   185   186    1
    67   102   101   ar
    68   153   152    2
    69   103   101   ar
    70   139   138    1
    71    27    26   ar
    72    27    29   ar
    73   101   100    1
    74    22    21    1
    75    97   100    1
    76    97    98    1
    77   136   138   ar
    78   136   134   ar
    79    26    28   ar
    80    29    31   ar
    81   138   137   ar
    82   152   146    1
    83   134   133   ar
    84    98    99    2
    85    98   108   am
    86    28    30   ar
    87    21    15   am
    88   147   146    2
    89    31    30   ar
    90   114   108    1
    91   114   113    1
    92   146   145    1
    93   108   109    1
    94    16    15    2
    95   137   135   ar
    96    15    14    1
    97   113   112    1
    98   133   135   ar
    99   133   132    1
   100   109   112    1
   101   109   110    1
   102    17    14    1
   103    17    18    1
   104   145   144    1
   105   145   148    1
   106    14    13    1
   107   132   129    1
   108   144   142   am
   109   140   141    1
   110   140   130   am
   111   142   143    2
   112   142   141    1
   113   150   149    2
   114    20    18   am
   115   129   130    1
   116   129   128    1
   117   110   111    2
   118   110   115   am
   119    18    19    2
   120   148   149    1
   121   149   151   am
   122   115   116    1
   123   130   131    2
   124    13    11   am
   125    12    11    2
   126    11    10    1
   127   116   119    1
   128   116   117    1
   129   119   120    1
   130   119   121    1
   131   127   126    1
   132    10     9    1
   133   117   118    2
   134     8     6   ar
   135   122   123    1
   136     9     3   am
   137   123   126    1
   138   123   124    1
   139    71    72   ar
   140    71    69   ar
   141     5     6    1
   142     5     2    1
   143     1     2    1
   144    87    85   ar
   145     6     7   ar
   146    72    70   ar
   147     3     2    1
   148     3     4    2
   149    69    68   ar
   150   124   125    2
   151    84    85    1
   152    84    81    1
   153    85    86   ar
   154    70    68   ar
   155    68    67    1
   156    80    81    1
   157    83    82    2
   158    81    82    1
   159    76    75    2
   160    67    64    1
   161    75    74    1
   162    64    63    1
   163    64    65    1
   164    63    51   am
   165    49    50    1
   166    65    66    2
   167    78    77    1
   168    74    77    1
   169    74    73    1
   170    51    50    1
   171    51    52    2
   172    55    54   ar
   173    55    57   ar
   174    53    50    1
   175    53    54    1
   176    77    79    1
   177    54    56   ar
   178    57    58   ar
   179    56    58   ar
   180    56    59   ar
   181    58    60   ar
   182    59    61   ar
   183    60    62   ar
   184    61    62   ar
