@<TRIPOS>MOLECULE
tmp/2yooC01.pdb
 191 178 0 0 0
SMALL
GASTEIGER

@<TRIPOS>ATOM
      1  N          1.5880   26.9000  -60.2350 N.3    63  ILE63      -0.1231
      2  CA         1.0500   25.5380  -60.1580 C.3    63  ILE63       0.1692
      3  C          0.6550   25.0150  -58.7570 C.2    63  ILE63       0.2591
      4  O          0.0180   23.9340  -58.6290 O.2    63  ILE63      -0.2718
      5  CB         2.0440   24.4970  -60.7020 C.3    63  ILE63       0.0266
      6  CG1        3.4150   24.6810  -60.0370 C.3    63  ILE63       0.0019
      7  CG2        2.1910   24.6040  -62.1930 C.3    63  ILE63       0.0020
      8  CD1        4.3240   23.4820  -60.1370 C.3    63  ILE63       0.0001
      9  N          1.0910   25.6920  -57.7030 N.am   64  ARG64      -0.1980
     10  CA         0.7180   25.3500  -56.3380 C.3    64  ARG64       0.1597
     11  C         -0.3730   26.2950  -55.8120 C.2    64  ARG64       0.2287
     12  O         -0.4750   27.4890  -56.2230 O.2    64  ARG64      -0.2864
     13  CB         1.9300   25.3810  -55.3370 C.3    64  ARG64       0.0334
     14  CG         3.1370   24.5380  -55.8110 C.3    64  ARG64       0.0492
     15  CD         2.7140   23.1470  -56.3390 C.3    64  ARG64       0.2205
     16  NE         1.9460   22.4040  -55.3220 N.pl3  64  ARG64      -0.0865
     17  CZ         0.8260   21.7000  -55.5870 C.cat  64  ARG64       0.5346
     18  NH1        0.2290   21.7160  -56.7880 N.pl3  64  ARG64       0.1354
     19  NH2        0.3020   20.9650  -54.6540 N.pl3  64  ARG64       0.1354
     20  N          1.1520   29.4280  -53.6190 N.3    67  GLN67      -0.1245
     21  CA         2.4010   30.0920  -54.0450 C.3    67  GLN67       0.1566
     22  C          2.0870   30.7660  -55.3390 C.2    67  GLN67       0.2260
     23  O          1.3020   30.2260  -56.1420 O.2    67  GLN67      -0.2867
     24  CB         3.5700   29.1030  -54.2510 C.3    67  GLN67       0.0367
     25  CG         4.0000   28.4370  -52.9560 C.3    67  GLN67       0.0905
     26  CD         4.7140   29.4030  -51.9990 C.2    67  GLN67       0.2608
     27  OE1        5.1390   30.5060  -52.3750 O.2    67  GLN67      -0.2717
     28  NE2        4.8370   28.9890  -50.7690 N.am   67  GLN67      -0.0878
     29  N          6.1060   31.5000  -60.6310 N.3    70  MET70      -0.1245
     30  CA         7.5460   31.6220  -60.5960 C.3    70  MET70       0.1570
     31  C          8.1970   31.5260  -61.9850 C.2    70  MET70       0.2261
     32  O          7.5670   31.0760  -63.0060 O.2    70  MET70      -0.2867
     33  CB         8.0480   30.4920  -59.6650 C.3    70  MET70       0.0387
     34  CG         7.6430   30.7630  -58.2230 C.3    70  MET70       0.0595
     35  SD         7.6820   29.2750  -57.2100 S.3    70  MET70      -0.1393
     36  CE         7.0150   29.9570  -55.6950 C.3    70  MET70       0.0692
     37  N          9.5860   29.7860  -64.2510 N.3    72  TYR72      -0.1241
     38  CA         9.8980   28.5210  -64.9300 C.3    72  TYR72       0.1605
     39  C          8.7810   28.1540  -65.8860 C.2    72  TYR72       0.2264
     40  O          7.7060   28.7130  -65.7670 O.2    72  TYR72      -0.2867
     41  CB        10.3340   27.3640  -63.9950 C.3    72  TYR72       0.0534
     42  CG         9.4370   27.0730  -62.7910 C.ar   72  TYR72      -0.0201
     43  CD1        8.1100   27.5200  -62.7340 C.ar   72  TYR72      -0.0009
     44  CD2        9.9600   26.3400  -61.6900 C.ar   72  TYR72      -0.0009
     45  CE1        7.3150   27.1790  -61.5960 C.ar   72  TYR72       0.0417
     46  CE2        9.1940   26.0160  -60.5950 C.ar   72  TYR72       0.0417
     47  CZ         7.8670   26.4570  -60.5780 C.ar   72  TYR72       0.1957
     48  OH         7.1120   26.1870  -59.4700 O.3    72  TYR72      -0.2866
     49  N          6.7150   25.8550  -66.5380 N.3    74  ILE74      -0.1245
     50  CA         5.4100   25.3060  -65.9870 C.3    74  ILE74       0.1561
     51  C          4.4450   26.3980  -65.4870 C.2    74  ILE74       0.2260
     52  O          3.2060   26.1780  -65.4310 O.2    74  ILE74      -0.2867
     53  CB         5.6440   24.2030  -65.0100 C.3    74  ILE74       0.0252
     54  CG1        4.4430   23.1960  -65.0000 C.3    74  ILE74       0.0019
     55  CG2        5.9840   24.6980  -63.5580 C.3    74  ILE74       0.0019
     56  CD1        4.7720   21.9010  -64.1840 C.3    74  ILE74       0.0001
     57  N         12.7530   19.8610  -50.3730 N.3   157  LEU157     -0.1231
     58  CA        11.8300   20.7790  -50.9710 C.3   157  LEU157      0.1693
     59  C         10.3850   20.2050  -51.1270 C.2   157  LEU157      0.2591
     60  O          9.4260   20.8930  -50.8260 O.2   157  LEU157     -0.2718
     61  CB        12.3090   21.2560  -52.3330 C.3   157  LEU157      0.0284
     62  CG        13.5740   22.0910  -52.3500 C.3   157  LEU157      0.0019
     63  CD1       14.2150   22.1020  -53.7820 C.3   157  LEU157      0.0001
     64  CD2       13.3540   23.5520  -51.8940 C.3   157  LEU157      0.0001
     65  N         10.2290   18.9590  -51.5480 N.am  158  VAL158     -0.1980
     66  CA         8.8840   18.4850  -51.8620 C.3   158  VAL158      0.1595
     67  C          8.2240   17.8690  -50.6570 C.2   158  VAL158      0.2287
     68  O          7.0070   17.8340  -50.5930 O.2   158  VAL158     -0.2864
     69  CB         8.8450   17.5110  -53.1010 C.3   158  VAL158      0.0276
     70  CG1        9.3540   18.1930  -54.3820 C.3   158  VAL158      0.0022
     71  CG2        9.5780   16.1790  -52.7860 C.3   158  VAL158      0.0022
     72  N          5.8440   20.2830  -48.4800 N.3   161  LEU161     -0.1245
     73  CA         4.6820   20.8870  -49.1250 C.3   161  LEU161      0.1561
     74  C          3.4430   20.3490  -48.4730 C.2   161  LEU161      0.2260
     75  O          2.9530   19.2440  -48.8220 O.2   161  LEU161     -0.2867
     76  CB         4.6920   20.6340  -50.6430 C.3   161  LEU161      0.0270
     77  CG         5.9180   21.0970  -51.4100 C.3   161  LEU161      0.0019
     78  CD1        5.8230   20.6600  -52.8740 C.3   161  LEU161      0.0001
     79  CD2        6.1050   22.6310  -51.3370 C.3   161  LEU161      0.0001
     80  N         12.8030   23.9500  -45.8240 N.3   173  LEU173     -0.1231
     81  CA        12.4280   24.1860  -47.2190 C.3   173  LEU173      0.1693
     82  C         13.0970   25.4500  -47.7950 C.2   173  LEU173      0.2591
     83  O         13.6780   25.4500  -48.8950 O.2   173  LEU173     -0.2718
     84  CB        10.8860   24.3000  -47.3430 C.3   173  LEU173      0.0284
     85  CG        10.3510   24.5040  -48.7740 C.3   173  LEU173      0.0019
     86  CD1        8.9280   23.9910  -48.8540 C.3   173  LEU173      0.0001
     87  CD2       10.4110   25.9380  -49.1030 C.3   173  LEU173      0.0001
     88  N         12.9620   26.5480  -47.0770 N.am  174  MET174     -0.1979
     89  CA        13.5280   27.7980  -47.5470 C.3   174  MET174      0.1605
     90  C         15.0870   27.8460  -47.5140 C.2   174  MET174      0.2287
     91  O         15.6980   28.4010  -48.4450 O.2   174  MET174     -0.2864
     92  CB        12.8800   28.9990  -46.8060 C.3   174  MET174      0.0413
     93  CG        11.3920   29.1820  -47.1840 C.3   174  MET174      0.0598
     94  SD        11.1080   29.5810  -48.9380 S.3   174  MET174     -0.1393
     95  CE        12.0180   31.1350  -49.1170 C.3   174  MET174      0.0692
     96  N         16.1880   25.7890  -50.4230 N.3   177  PHE177     -0.1241
     97  CA        16.0970   26.5750  -51.6400 C.3   177  PHE177      0.1605
     98  C         17.2680   27.5460  -51.7470 C.2   177  PHE177      0.2264
     99  O         17.8010   27.7650  -52.8420 O.2   177  PHE177     -0.2867
    100  CB        14.7550   27.3050  -51.7480 C.3   177  PHE177      0.0534
    101  CG        14.6270   28.1170  -52.9990 C.ar  177  PHE177     -0.0203
    102  CD1       14.5850   27.4710  -54.2500 C.ar  177  PHE177     -0.0042
    103  CD2       14.5930   29.5340  -52.9520 C.ar  177  PHE177     -0.0042
    104  CE1       14.4680   28.1910  -55.4300 C.ar  177  PHE177     -0.0003
    105  CE2       14.4820   30.2890  -54.1420 C.ar  177  PHE177     -0.0003
    106  CZ        14.4330   29.6350  -55.3990 C.ar  177  PHE177     -0.0000
    107  N         15.2380   28.6260  -61.4810 N.3   220  PHE220     -0.1241
    108  CA        13.9270   27.9030  -61.3870 C.3   220  PHE220      0.1605
    109  C         13.7820   26.8660  -62.4970 C.2   220  PHE220      0.2264
    110  O         13.1850   25.8040  -62.2790 O.2   220  PHE220     -0.2867
    111  CB        12.7720   28.9340  -61.4550 C.3   220  PHE220      0.0534
    112  CG        12.4480   29.5370  -60.0610 C.ar  220  PHE220     -0.0203
    113  CD1       11.5370   28.8890  -59.2190 C.ar  220  PHE220     -0.0042
    114  CD2       13.0870   30.6680  -59.5940 C.ar  220  PHE220     -0.0042
    115  CE1       11.2510   29.3620  -57.9360 C.ar  220  PHE220     -0.0003
    116  CE2       12.8120   31.1930  -58.3150 C.ar  220  PHE220     -0.0003
    117  CZ        11.8970   30.5460  -57.4740 C.ar  220  PHE220     -0.0000
    118  N         15.8760   23.8870  -61.4970 N.3   223  LEU223     -0.1231
    119  CA        15.1910   23.1920  -60.4190 C.3   223  LEU223      0.1693
    120  C         13.9650   22.4150  -60.9140 C.2   223  LEU223      0.2591
    121  O         13.7250   21.3060  -60.4630 O.2   223  LEU223     -0.2718
    122  CB        14.7940   24.1720  -59.3070 C.3   223  LEU223      0.0284
    123  CG        14.2890   23.5480  -57.9710 C.3   223  LEU223      0.0019
    124  CD1       15.2410   22.5550  -57.3870 C.3   223  LEU223      0.0001
    125  CD2       13.9290   24.6890  -56.9270 C.3   223  LEU223      0.0001
    126  N         13.2400   23.0010  -61.8680 N.am  224  LEU224     -0.1980
    127  CA        12.0620   22.3460  -62.3930 C.3   224  LEU224      0.1596
    128  C         12.4710   21.0130  -63.0420 C.2   224  LEU224      0.2287
    129  O         11.8580   19.9630  -62.8320 O.2   224  LEU224     -0.2864
    130  CB        11.3730   23.2720  -63.4030 C.3   224  LEU224      0.0297
    131  CG        10.3220   22.4970  -64.2310 C.3   224  LEU224      0.0022
    132  CD1        9.1650   22.1920  -63.3110 C.3   224  LEU224      0.0001
    133  CD2        9.8710   23.4210  -65.3110 C.3   224  LEU224      0.0001
    134  N         13.7070   18.3690  -60.0950 N.3   227  ILE227     -0.1231
    135  CA        12.6170   17.8020  -59.2980 C.3   227  ILE227      0.1692
    136  C         11.6560   16.9900  -60.2170 C.2   227  ILE227      0.2592
    137  O         11.2730   15.8650  -59.8460 O.2   227  ILE227     -0.2718
    138  CB        11.7970   18.8880  -58.6290 C.3   227  ILE227      0.0266
    139  CG1       12.6520   19.7340  -57.6690 C.3   227  ILE227      0.0019
    140  CG2       10.6000   18.2460  -57.8640 C.3   227  ILE227      0.0020
    141  CD1       13.2440   18.9370  -56.6280 C.3   227  ILE227      0.0001
    142  N         11.4110   17.4900  -61.4130 N.am  228  GLY228     -0.1957
    143  CA        10.7090   16.6150  -62.4310 C.3   228  GLY228      0.1869
    144  C         11.4080   15.2540  -62.5430 C.2   228  GLY228      0.2309
    145  O         10.7610   14.1830  -62.4900 O.2   228  GLY228     -0.2863
    146  N          9.5600   11.9500  -59.0490 N.3   232  THR232     -0.1218
    147  CA         8.3220   11.4970  -59.7970 C.3   232  THR232      0.1862
    148  C          8.4140   10.0300  -60.1210 C.2   232  THR232      0.2287
    149  O          7.7030    9.2090  -59.5480 O.2   232  THR232     -0.2866
    150  CB         8.1130   12.2850  -61.1220 C.3   232  THR232      0.1770
    151  OG1        9.3290   12.1950  -61.8740 O.3   232  THR232     -0.2211
    152  CG2        7.7880   13.7830  -60.8900 C.3   232  THR232      0.0375
    153  N          2.2000   12.7480  -59.3810 N.3   275  VAL275     -0.1301
    154  CA         1.8980   14.1660  -59.2910 C.3   275  VAL275      0.1246
    155  C          0.4010   14.1880  -59.0000 C.3   275  VAL275      0.2009
    156  O         -0.4430   13.7570  -59.8700 O.3   275  VAL275     -0.2188
    157  CB         2.2350   14.9360  -60.5870 C.3   275  VAL275      0.0202
    158  CG1        1.6680   16.3320  -60.5140 C.3   275  VAL275      0.0016
    159  CG2        3.7900   14.9740  -60.8830 C.3   275  VAL275      0.0016
    160  N         -1.9910   19.8350  -60.1380 N.3   278  MET278     -0.1301
    161  CA        -1.2960   21.0420  -60.6050 C.3   278  MET278      0.1256
    162  C         -2.3880   22.0590  -60.6690 C.3   278  MET278      0.2010
    163  O         -3.5430   21.7020  -61.1300 O.3   278  MET278     -0.2188
    164  CB        -0.7490   20.8470  -62.0210 C.3   278  MET278      0.0333
    165  CG         0.4600   19.8710  -62.0950 C.3   278  MET278      0.0592
    166  SD         1.9670   20.8850  -61.8200 S.3   278  MET278     -0.1393
    167  CE         3.2240   19.6120  -61.8990 C.3   278  MET278      0.0692
    168  N          3.9020   16.4280  -69.7660 N.3   338  CYS338     -0.1235
    169  CA         5.1840   16.1380  -69.1870 C.3   338  CYS338      0.1677
    170  C          6.3620   16.0720  -70.1640 C.2   338  CYS338      0.2270
    171  O          6.3700   15.2170  -71.0890 O.2   338  CYS338     -0.2867
    172  CB         5.0720   14.7970  -68.4520 C.3   338  CYS338      0.0956
    173  SG         6.7330   14.3600  -67.7970 S.3   338  CYS338     -0.0801
    174  N          1.8120   17.4910  -53.1790 N.3   377  PHE377     -0.1227
    175  CA         2.1510   17.7070  -54.5750 C.3   377  PHE377      0.1736
    176  C          2.5790   16.4560  -55.2630 C.2   377  PHE377      0.2595
    177  O          1.8050   15.8960  -56.0510 O.2   377  PHE377     -0.2718
    178  CB         3.2320   18.7930  -54.6600 C.3   377  PHE377      0.0547
    179  CG         3.6090   19.1790  -56.0560 C.ar  377  PHE377     -0.0202
    180  CD1        2.6240   19.4240  -57.0330 C.ar  377  PHE377     -0.0042
    181  CD2        4.9660   19.3390  -56.4170 C.ar  377  PHE377     -0.0042
    182  CE1        2.9450   19.7800  -58.3490 C.ar  377  PHE377     -0.0003
    183  CE2        5.3200   19.7110  -57.7520 C.ar  377  PHE377     -0.0003
    184  CZ         4.3200   19.9630  -58.7230 C.ar  377  PHE377     -0.0000
    185  N          3.8080   16.0100  -54.9920 N.am  378  VAL378     -0.1980
    186  CA         4.2200   14.6560  -55.3560 C.3   378  VAL378      0.1595
    187  C          4.2890   13.7960  -54.1160 C.2   378  VAL378      0.2287
    188  O          4.7040   14.2640  -53.0430 O.2   378  VAL378     -0.2864
    189  CB         5.6030   14.5910  -56.0900 C.3   378  VAL378      0.0276
    190  CG1        5.4770   15.1070  -57.5390 C.3   378  VAL378      0.0022
    191  CG2        6.7180   15.3750  -55.2990 C.3   378  VAL378      0.0022
@<TRIPOS>BOND
     1   171   170    2
     2   170   169    1
     3   168   169    1
     4   169   172    1
     5   172   173    1
     6    49    50    1
     7    50    51    1
     8    50    53    1
     9    39    40    2
    10    39    38    1
    11    51    52    2
    12   133   131    1
    13    53    54    1
    14    53    55    1
    15    54    56    1
    16    38    37    1
    17    38    41    1
    18   131   130    1
    19   131   132    1
    20    41    42    1
    21   130   127    1
    22   128   129    2
    23   128   127    1
    24    32    31    2
    25    42    43   ar
    26    42    44   ar
    27    43    45   ar
    28   144   145    2
    29   144   143    1
    30   109   110    2
    31   109   108    1
    32   143   142    1
    33   127   126    1
    34     7     5    1
    35   165   164    1
    36   165   166    1
    37   164   161    1
    38    31    30    1
    39   167   166    1
    40   151   150    1
    41   126   120   am
    42    44    46   ar
    43    45    47   ar
    44   118   119    1
    45   107   108    1
    46   111   108    1
    47   111   112    1
    48   142   136   am
    49   163   162    1
    50   150   152    1
    51   150   147    1
    52   120   121    2
    53   120   119    1
    54   159   157    1
    55     5     2    1
    56     5     6    1
    57   162   161    1
    58    29    30    1
    59   161   160    1
    60    30    33    1
    61    46    47   ar
    62   157   158    1
    63   157   154    1
    64    47    48    1
    65   119   122    1
    66     1     2    1
    67   136   137    2
    68   136   135    1
    69     2     3    1
    70     8     6    1
    71   148   147    1
    72   148   149    2
    73   134   135    1
    74   112   114   ar
    75   112   113   ar
    76   156   155    1
    77   147   146    1
    78    33    34    1
    79   114   116   ar
    80   153   154    1
    81   122   123    1
    82   135   138    1
    83   154   155    1
    84   113   115   ar
    85     3     4    2
    86     3     9   am
    87   184   182   ar
    88   184   183   ar
    89   138   140    1
    90   138   139    1
    91   182   180   ar
    92   116   117   ar
    93    34    35    1
    94   123   124    1
    95   123   125    1
    96   115   117   ar
    97   183   181   ar
    98     9    10    1
    99   139   141    1
   100   190   189    1
   101    35    36    1
   102   180   179   ar
   103    18    17    1
   104   181   179   ar
   105    15    14    1
   106    15    16    1
   107    10    11    1
   108    10    13    1
   109    12    11    2
   110    23    22    2
   111   189   186    1
   112   189   191    1
   113   179   178    1
   114   177   176    2
   115    14    13    1
   116    17    16    2
   117    17    19    1
   118   104   106   ar
   119   104   102   ar
   120   106   105   ar
   121   186   185    1
   122   186   187    1
   123    22    21    1
   124   176   185   am
   125   176   175    1
   126   178   175    1
   127   175   174    1
   128    70    69    1
   129    24    21    1
   130    24    25    1
   131   102   101   ar
   132   105   103   ar
   133   187   188    2
   134    21    20    1
   135    63    62    1
   136    69    71    1
   137    69    66    1
   138   101   103   ar
   139   101   100    1
   140    25    26    1
   141    78    77    1
   142    99    98    2
   143    27    26    2
   144    62    61    1
   145    62    64    1
   146    61    58    1
   147    26    28   am
   148    66    65    1
   149    66    67    1
   150   100    97    1
   151    98    97    1
   152    97    96    1
   153    65    59   am
   154    77    79    1
   155    77    76    1
   156    59    58    1
   157    59    60    2
   158    58    57    1
   159    67    68    2
   160    76    73    1
   161    73    72    1
   162    73    74    1
   163    95    94    1
   164    87    85    1
   165    94    93    1
   166    83    82    2
   167    86    85    1
   168    75    74    2
   169    85    84    1
   170    91    90    2
   171    82    81    1
   172    82    88   am
   173    89    90    1
   174    89    88    1
   175    89    92    1
   176    84    81    1
   177    81    80    1
   178    93    92    1
