@<TRIPOS>MOLECULE
tmp/2yorB03.pdb
 138 131 0 0 0
SMALL
GASTEIGER

@<TRIPOS>ATOM
      1  N         12.8720   23.7720  113.3000 N.3   127  GLY127     -0.1210
      2  CA        11.7310   24.4880  112.7390 C.3   127  GLY127      0.1956
      3  C         10.6400   23.5700  112.2560 C.2   127  GLY127      0.2611
      4  O         10.8870   22.4010  112.0110 O.2   127  GLY127     -0.2717
      5  N          9.4060   24.0770  112.2020 N.am  128  ASP128     -0.1973
      6  CA         8.3100   23.3190  111.6210 C.3   128  ASP128      0.1709
      7  C          8.6050   22.9880  110.1480 C.2   128  ASP128      0.2293
      8  O          9.1790   23.7970  109.4200 O.2   128  ASP128     -0.2864
      9  CB         6.9780   24.0980  111.7110 C.3   128  ASP128      0.1436
     10  CG         6.4700   24.2840  113.1570 C.2   128  ASP128      0.3671
     11  OD1        7.1230   23.8600  114.1500 O.co2 128  ASP128     -0.2456
     12  OD2        5.3840   24.8670  113.2950 O.co2 128  ASP128     -0.2456
     13  N          6.6280   23.0730  107.6620 N.3   130  PHE130     -0.1227
     14  CA         6.0510   24.0930  106.7760 C.3   130  PHE130      0.1736
     15  C          7.0650   25.1450  106.3060 C.2   130  PHE130      0.2595
     16  O          7.0230   25.5820  105.1570 O.2   130  PHE130     -0.2718
     17  CB         4.8600   24.8060  107.4430 C.3   130  PHE130      0.0547
     18  CG         4.2080   25.8740  106.5530 C.ar  130  PHE130     -0.0202
     19  CD1        3.1810   25.5310  105.6760 C.ar  130  PHE130     -0.0042
     20  CD2        4.6500   27.2000  106.5830 C.ar  130  PHE130     -0.0042
     21  CE1        2.5590   26.5050  104.8700 C.ar  130  PHE130     -0.0003
     22  CE2        4.0230   28.1910  105.7760 C.ar  130  PHE130     -0.0003
     23  CZ         3.0120   27.8200  104.8820 C.ar  130  PHE130     -0.0000
     24  N          7.9420   25.6050  107.2040 N.am  131  PHE131     -0.1976
     25  CA         8.9150   26.6300  106.8130 C.3   131  PHE131      0.1639
     26  C         10.1150   26.0920  106.0200 C.2   131  PHE131      0.2290
     27  O         10.8870   26.8700  105.4820 O.2   131  PHE131     -0.2864
     28  CB         9.4000   27.4300  108.0150 C.3   131  PHE131      0.0560
     29  CG         8.2710   27.9620  108.8870 C.ar  131  PHE131     -0.0200
     30  CD1        7.3900   28.9250  108.4000 C.ar  131  PHE131     -0.0042
     31  CD2        8.1250   27.5300  110.2010 C.ar  131  PHE131     -0.0042
     32  CE1        6.3590   29.4220  109.2000 C.ar  131  PHE131     -0.0003
     33  CE2        7.0880   28.0170  111.0080 C.ar  131  PHE131     -0.0003
     34  CZ         6.1940   28.9490  110.4930 C.ar  131  PHE131     -0.0000
     35  N         12.5990   23.1540  106.7320 N.3   133  ASN133     -0.1240
     36  CA        13.5940   22.2170  107.2280 C.3   133  ASN133      0.1653
     37  C         13.2190   21.7570  108.6320 C.2   133  ASN133      0.2266
     38  O         13.2450   22.5610  109.5640 O.2   133  ASN133     -0.2867
     39  CB        14.9690   22.8780  107.2680 C.3   133  ASN133      0.1155
     40  CG        16.0560   21.9240  107.7500 C.2   133  ASN133      0.2627
     41  OD1       15.9160   21.2910  108.7880 O.2   133  ASN133     -0.2716
     42  ND2       17.1140   21.7760  106.9650 N.am  133  ASN133     -0.0877
     43  N         18.4750   24.9620  114.8370 N.3   138  ASN138     -0.1240
     44  CA        18.1170   26.3440  114.4800 C.3   138  ASN138      0.1653
     45  C         18.5490   27.2390  115.6300 C.2   138  ASN138      0.2266
     46  O         18.1500   27.0400  116.7970 O.2   138  ASN138     -0.2867
     47  CB        16.5970   26.4350  114.2560 C.3   138  ASN138      0.1155
     48  CG        16.0960   27.8690  114.0300 C.2   138  ASN138      0.2627
     49  OD1       16.4130   28.7810  114.7930 O.2   138  ASN138     -0.2716
     50  ND2       15.2720   28.0520  113.0080 N.am  138  ASN138     -0.0877
     51  N         18.2270   30.4260  116.2680 N.3   140  THR140     -0.1203
     52  CA        17.2750   31.3130  116.9080 C.3   140  THR140      0.1994
     53  C         16.3720   30.5800  117.9120 C.2   140  THR140      0.2617
     54  O         16.0030   31.1360  118.9500 O.2   140  THR140     -0.2717
     55  CB        16.3920   32.0290  115.9040 C.3   140  THR140      0.1784
     56  OG1       17.2120   32.7830  115.0200 O.3   140  THR140     -0.2211
     57  CG2       15.4360   32.9420  116.6080 C.3   140  THR140      0.0376
     58  N         16.0450   29.3250  117.6260 N.am  141  LEU141     -0.1979
     59  CA        15.2670   28.5690  118.6000 C.3   141  LEU141      0.1596
     60  C         16.1100   28.1910  119.8330 C.2   141  LEU141      0.2287
     61  O         15.6500   28.3130  120.9660 O.2   141  LEU141     -0.2864
     62  CB        14.5960   27.3610  117.9530 C.3   141  LEU141      0.0297
     63  CG        13.5310   27.7500  116.9400 C.3   141  LEU141      0.0022
     64  CD1       13.0140   26.4610  116.2410 C.3   141  LEU141      0.0001
     65  CD2       12.3440   28.4350  117.6370 C.3   141  LEU141      0.0001
     66  N          5.3270   28.2850  124.9470 N.3   168  LYS168     -0.1231
     67  CA         5.8290   29.2600  123.9780 C.3   168  LYS168      0.1693
     68  C          5.9360   28.6850  122.5470 C.2   168  LYS168      0.2591
     69  O          5.5890   29.3480  121.5530 O.2   168  LYS168     -0.2718
     70  CB         7.1950   29.7740  124.4370 C.3   168  LYS168      0.0285
     71  CG         7.8990   30.6730  123.4150 C.3   168  LYS168      0.0035
     72  CD         7.1720   32.0240  123.3060 C.3   168  LYS168      0.0206
     73  CE         8.0610   33.0530  122.5680 C.3   168  LYS168      0.1093
     74  NZ         7.2770   34.2340  122.2090 N.3   168  LYS168     -0.1314
     75  N          6.5630   27.5210  122.4070 N.am  169  ARG169     -0.1980
     76  CA         6.7250   26.9730  121.0620 C.3   169  ARG169      0.1597
     77  C          5.3910   26.6970  120.3830 C.2   169  ARG169      0.2287
     78  O          5.2480   26.9440  119.1920 O.2   169  ARG169     -0.2864
     79  CB         7.6640   25.7470  121.0070 C.3   169  ARG169      0.0334
     80  CG         9.0970   26.0340  121.4730 C.3   169  ARG169      0.0492
     81  CD         9.8690   26.8840  120.4050 C.3   169  ARG169      0.2205
     82  NE        10.0230   26.1390  119.1530 N.pl3 169  ARG169     -0.0865
     83  CZ         9.3880   26.4360  118.0150 C.cat 169  ARG169      0.5346
     84  NH1        8.8170   27.6320  117.8640 N.pl3 169  ARG169      0.1354
     85  NH2        9.4280   25.5870  116.9880 N.pl3 169  ARG169      0.1354
     86  N          2.4750   28.3200  121.0040 N.3   171  GLN171     -0.1231
     87  CA         1.9960   29.6380  120.6070 C.3   171  GLN171      0.1698
     88  C          2.7200   30.2320  119.3840 C.2   171  GLN171      0.2592
     89  O          2.0940   30.9500  118.6200 O.2   171  GLN171     -0.2718
     90  CB         2.0620   30.6090  121.7830 C.3   171  GLN171      0.0381
     91  CG         1.0760   30.3420  122.9160 C.3   171  GLN171      0.0905
     92  CD         1.1210   31.4710  123.9510 C.2   171  GLN171      0.2608
     93  OE1        2.1990   31.8950  124.3910 O.2   171  GLN171     -0.2717
     94  NE2       -0.0350   32.0660  124.2060 N.am  171  GLN171     -0.0878
     95  N          4.0410   30.0350  119.2620 N.am  172  ASP172     -0.1974
     96  CA         4.7860   30.4920  118.0630 C.3   172  ASP172      0.1709
     97  C          4.1710   29.8630  116.8150 C.2   172  ASP172      0.2293
     98  O          3.8940   30.5680  115.8310 O.2   172  ASP172     -0.2864
     99  CB         6.2780   30.1020  118.0620 C.3   172  ASP172      0.1436
    100  CG         7.1150   30.8130  119.1310 C.2   172  ASP172      0.3671
    101  OD1        6.7030   31.9020  119.5940 O.co2 172  ASP172     -0.2456
    102  OD2        8.2530   30.3010  119.4340 O.co2 172  ASP172     -0.2456
    103  N          0.7410   31.1660  115.7190 N.3   175  ALA175     -0.1231
    104  CA         0.8130   32.4990  115.1360 C.3   175  ALA175      0.1694
    105  C          1.5030   32.5690  113.7690 C.2   175  ALA175      0.2592
    106  O          1.3720   33.5630  113.0790 O.2   175  ALA175     -0.2718
    107  CB         1.5090   33.4460  116.1120 C.3   175  ALA175      0.0304
    108  N          2.2840   31.5500  113.4000 N.am  176  THR176     -0.1953
    109  CA         3.1890   31.6890  112.2450 C.3   176  THR176      0.1897
    110  C          3.0730   30.5620  111.2210 C.2   176  THR176      0.2313
    111  O          3.4610   30.7400  110.0800 O.2   176  THR176     -0.2863
    112  CB         4.6690   31.8140  112.6390 C.3   176  THR176      0.1794
    113  OG1        5.1050   30.5900  113.2580 O.3   176  THR176     -0.2208
    114  CG2        4.9140   32.9810  113.5750 C.3   176  THR176      0.0378
    115  N          0.5020   28.2140  109.1540 N.3   178  PRO178     -0.2116
    116  CA        -0.9130   28.0730  108.8030 C.3   178  PRO178      0.1372
    117  C         -1.2880   26.6110  108.7360 C.2   178  PRO178      0.2244
    118  O         -2.4960   26.2670  108.7420 O.2   178  PRO178     -0.2868
    119  CB        -1.0180   28.6930  107.3960 C.3   178  PRO178      0.0268
    120  CG         0.3810   29.0480  106.9720 C.3   178  PRO178      0.0207
    121  CD         1.2440   29.0810  108.2240 C.3   178  PRO178      0.0892
    122  N         -5.0300   28.7270  108.0850 N.3   258  LYS258     -0.1231
    123  CA        -4.4050   30.0460  108.2540 C.3   258  LYS258      0.1693
    124  C         -3.8260   30.2880  109.6460 C.2   258  LYS258      0.2591
    125  O         -4.1350   29.5630  110.5980 O.2   258  LYS258     -0.2718
    126  CB        -5.4100   31.1550  107.8640 C.3   258  LYS258      0.0285
    127  CG        -6.6520   31.1990  108.7290 C.3   258  LYS258      0.0035
    128  CD        -7.4950   32.4180  108.4050 C.3   258  LYS258      0.0206
    129  CE        -8.4850   32.7160  109.5320 C.3   258  LYS258      0.1093
    130  NZ        -9.5840   31.7140  109.5740 N.3   258  LYS258     -0.1314
    131  N         -2.9810   31.2950  109.7890 N.am  259  ILE259     -0.1980
    132  CA        -2.3850   31.5460  111.0970 C.3   259  ILE259      0.1595
    133  C         -3.4560   31.9870  112.1300 C.2   259  ILE259      0.2287
    134  O         -4.5180   32.4630  111.7630 O.2   259  ILE259     -0.2864
    135  CB        -1.2150   32.5730  111.0440 C.3   259  ILE259      0.0276
    136  CG1       -1.6810   33.9340  110.4880 C.3   259  ILE259      0.0022
    137  CG2       -0.0530   32.0450  110.2340 C.3   259  ILE259      0.0022
    138  CD1       -0.5910   35.0670  110.6470 C.3   259  ILE259      0.0001
@<TRIPOS>BOND
     1    21    23   ar
     2    21    19   ar
     3    23    22   ar
     4    16    15    2
     5    27    26    2
     6    19    18   ar
     7    22    20   ar
     8    26    25    1
     9    15    14    1
    10    15    24   am
    11    18    20   ar
    12    18    17    1
    13    35    36    1
    14    14    17    1
    15    14    13    1
    16    25    24    1
    17    25    28    1
    18    42    40   am
    19   120   119    1
    20   120   121    1
    21    36    39    1
    22    36    37    1
    23    39    40    1
    24   119   116    1
    25    40    41    2
    26   126   123    1
    27   126   127    1
    28    28    29    1
    29   122   123    1
    30   121   115    1
    31   123   124    1
    32    30    29   ar
    33    30    32   ar
    34   128   127    1
    35   128   129    1
    36    37    38    2
    37   117   118    2
    38   117   116    1
    39   116   115    1
    40    29    31   ar
    41    32    34   ar
    42     8     7    2
    43   129   130    1
    44   124   131   am
    45   124   125    2
    46   131   132    1
    47   111   110    2
    48     7     6    1
    49    31    33   ar
    50   137   135    1
    51   136   138    1
    52   136   135    1
    53    34    33   ar
    54   135   132    1
    55   132   133    1
    56   110   109    1
    57     6     9    1
    58     6     5    1
    59     9    10    1
    60   134   133    2
    61     4     3    2
    62     5     3   am
    63   109   112    1
    64   109   108    1
    65     3     2    1
    66   112   113    1
    67   112   114    1
    68     2     1    1
    69    50    48   am
    70   106   105    2
    71    10    12   ar
    72    10    11   ar
    73   108   105   am
    74   105   104    1
    75    48    47    1
    76    48    49    2
    77    47    44    1
    78    44    43    1
    79    44    45    1
    80    56    55    1
    81   104   103    1
    82   104   107    1
    83    45    46    2
    84    98    97    2
    85    55    57    1
    86    55    52    1
    87    64    63    1
    88    51    52    1
    89    97    96    1
    90    52    53    1
    91    63    65    1
    92    63    62    1
    93    85    83    1
    94    58    53   am
    95    58    59    1
    96    84    83    1
    97    53    54    2
    98    62    59    1
    99    83    82    2
   100    99    96    1
   101    99   100    1
   102    96    95    1
   103    59    60    1
   104    89    88    2
   105   100   102   ar
   106   100   101   ar
   107    82    81    1
   108    78    77    2
   109    95    88   am
   110    88    87    1
   111    60    61    2
   112    77    76    1
   113    81    80    1
   114    87    86    1
   115    87    90    1
   116    79    76    1
   117    79    80    1
   118    76    75    1
   119    69    68    2
   120    90    91    1
   121    74    73    1
   122    75    68   am
   123    68    67    1
   124    73    72    1
   125    91    92    1
   126    72    71    1
   127    71    70    1
   128    92    94   am
   129    92    93    2
   130    67    70    1
   131    67    66    1
