@<TRIPOS>MOLECULE
tmp/2yorB07.pdb
 92 88 0 0 0
SMALL
GASTEIGER

@<TRIPOS>ATOM
      1  N          9.9070    1.1230  117.9530 N.3    76  TYR76      -0.1241
      2  CA         8.9470    0.4670  117.0360 C.3    76  TYR76       0.1605
      3  C          7.8890    1.3860  116.4040 C.2    76  TYR76       0.2264
      4  O          7.5310    1.2070  115.2330 O.2    76  TYR76      -0.2867
      5  CB         8.3140   -0.7560  117.7030 C.3    76  TYR76       0.0534
      6  CG         9.3730   -1.7880  117.9620 C.ar   76  TYR76      -0.0201
      7  CD1        9.8840   -2.5440  116.9170 C.ar   76  TYR76      -0.0009
      8  CD2        9.9510   -1.9190  119.2170 C.ar   76  TYR76      -0.0009
      9  CE1       10.8830   -3.4620  117.1300 C.ar   76  TYR76       0.0417
     10  CE2       10.9600   -2.8430  119.4520 C.ar   76  TYR76       0.0417
     11  CZ        11.4230   -3.6070  118.3850 C.ar   76  TYR76       0.1957
     12  OH        12.4660   -4.4800  118.5730 O.3    76  TYR76      -0.2866
     13  N         10.4480   -2.3510  106.9550 N.3    85  LEU85      -0.1231
     14  CA        10.0900   -3.4860  107.8050 C.3    85  LEU85       0.1693
     15  C         10.7200   -4.7830  107.2940 C.2    85  LEU85       0.2592
     16  O         10.8800   -5.7100  108.0540 O.2    85  LEU85      -0.2718
     17  CB         8.5580   -3.6500  107.9090 C.3    85  LEU85       0.0284
     18  CG         7.7850   -2.3760  108.2910 C.3    85  LEU85       0.0019
     19  CD1        6.2990   -2.7180  108.4740 C.3    85  LEU85       0.0001
     20  CD2        8.3140   -1.8090  109.6040 C.3    85  LEU85       0.0001
     21  N         11.1380   -4.8170  106.0360 N.am   86  ILE86      -0.1966
     22  CA        11.6930   -6.0640  105.4410 C.3    86  ILE86       0.1727
     23  C         13.1960   -6.1850  105.6800 C.2    86  ILE86       0.2617
     24  O         13.6490   -7.1980  106.1630 O.2    86  ILE86      -0.2715
     25  CB        11.4160   -6.1390  103.9220 C.3    86  ILE86       0.0290
     26  CG1        9.8950   -6.1890  103.6680 C.3    86  ILE86       0.0022
     27  CG2       12.1600   -7.3670  103.2750 C.3    86  ILE86       0.0023
     28  CD1        9.2450   -7.5300  104.0190 C.3    86  ILE86       0.0001
     29  N         13.9530   -5.1130  105.4590 N.am   87  THR87      -0.1937
     30  CA        15.3850   -5.1520  105.7500 C.3    87  THR87       0.2028
     31  C         15.6470   -4.9510  107.2320 C.2    87  THR87       0.2642
     32  O         16.7870   -5.1050  107.6800 O.2    87  THR87      -0.2714
     33  CB        16.1400   -4.0580  104.9700 C.3    87  THR87       0.1808
     34  OG1       15.6780   -2.7660  105.4110 O.3    87  THR87      -0.2208
     35  CG2       15.8290   -4.1960  103.4450 C.3    87  THR87       0.0379
     36  N         14.6440   -4.3930  107.9280 N.am   88  ASP88      -0.1971
     37  CA        14.7190   -4.1120  109.3650 C.3    88  ASP88       0.1709
     38  C         15.6620   -2.9460  109.6830 C.2    88  ASP88       0.2293
     39  O         16.3300   -2.9580  110.7030 O.2    88  ASP88      -0.2864
     40  CB        15.1340   -5.3850  110.1330 C.3    88  ASP88       0.1436
     41  CG        14.7500   -5.3420  111.6530 C.2    88  ASP88       0.3671
     42  OD1       13.5940   -4.9620  112.0120 O.co2  88  ASP88      -0.2456
     43  OD2       15.5830   -5.8000  112.4830 O.co2  88  ASP88      -0.2456
     44  N          4.8390  -11.5250  103.3030 N.3   296  GLN296     -0.1245
     45  CA         6.0560  -11.3370  104.0710 C.3   296  GLN296      0.1566
     46  C          6.0130   -9.9870  104.7570 C.2   296  GLN296      0.2260
     47  O          6.4770   -9.8360  105.8670 O.2   296  GLN296     -0.2867
     48  CB         7.2690  -11.4090  103.1350 C.3   296  GLN296      0.0367
     49  CG         7.6880  -12.8560  102.7890 C.3   296  GLN296      0.0905
     50  CD         7.4680  -13.8400  103.9400 C.2   296  GLN296      0.2608
     51  OE1        8.0290  -13.6840  105.0400 O.2   296  GLN296     -0.2717
     52  NE2        6.6700  -14.8780  103.6830 N.am  296  GLN296     -0.0878
     53  N          3.5750  -10.3740  107.8210 N.3   299  LYS299     -0.1231
     54  CA         4.2940  -10.9440  108.9580 C.3   299  LYS299      0.1693
     55  C          5.1560   -9.8950  109.6830 C.2   299  LYS299      0.2591
     56  O          5.2530   -9.9100  110.9110 O.2   299  LYS299     -0.2718
     57  CB         5.2180  -12.0790  108.4910 C.3   299  LYS299      0.0285
     58  CG         4.5140  -13.3780  108.1140 C.3   299  LYS299      0.0035
     59  CD         5.5030  -14.5520  108.1780 C.3   299  LYS299      0.0206
     60  CE         6.4200  -14.4480  109.4040 C.3   299  LYS299      0.1093
     61  NZ         7.7120  -15.1850  109.2180 N.3   299  LYS299     -0.1314
     62  N          5.9080   -9.1090  108.9060 N.am  300  ALA300     -0.1980
     63  CA         6.8590   -8.1510  109.4730 C.3   300  ALA300      0.1597
     64  C          6.0660   -7.0930  110.2500 C.2   300  ALA300      0.2287
     65  O          6.4650   -6.6760  111.3190 O.2   300  ALA300     -0.2864
     66  CB         7.7010   -7.4910  108.3440 C.3   300  ALA300      0.0319
     67  N          4.6980   -8.6970  113.6840 N.3   303  THR303     -0.1203
     68  CA         5.8470   -8.8190  114.5860 C.3   303  THR303      0.1994
     69  C          6.2020   -7.4630  115.2010 C.2   303  THR303      0.2617
     70  O          6.3880   -7.3450  116.4070 O.2   303  THR303     -0.2717
     71  CB         7.0700   -9.3450  113.7880 C.3   303  THR303      0.1784
     72  OG1        6.7530  -10.6440  113.3080 O.3   303  THR303     -0.2211
     73  CG2        8.3340   -9.4120  114.6530 C.3   303  THR303      0.0376
     74  N          6.2370   -6.4290  114.3780 N.am  304  ASN304     -0.1974
     75  CA         6.6300   -5.1200  114.8750 C.3   304  ASN304      0.1688
     76  C          5.4930   -4.4360  115.6590 C.2   304  ASN304      0.2292
     77  O          5.7400   -3.6610  116.6010 O.2   304  ASN304     -0.2864
     78  CB         7.1380   -4.2430  113.7100 C.3   304  ASN304      0.1181
     79  CG         8.5730   -4.5930  113.3140 C.2   304  ASN304      0.2629
     80  OD1        9.4960   -4.3300  114.0850 O.2   304  ASN304     -0.2716
     81  ND2        8.7340   -5.3910  112.2210 N.am  304  ASN304     -0.0877
     82  N          5.7260   -5.8010  119.2070 N.3   307  PHE307     -0.1241
     83  CA         6.7800   -5.2190  120.0140 C.3   307  PHE307      0.1605
     84  C          6.3470   -3.8280  120.4100 C.2   307  PHE307      0.2264
     85  O          6.4890   -3.4180  121.5440 O.2   307  PHE307     -0.2867
     86  CB         8.0840   -5.1390  119.2270 C.3   307  PHE307      0.0534
     87  CG         8.6400   -6.4810  118.8420 C.ar  307  PHE307     -0.0203
     88  CD1        8.4070   -7.5980  119.6380 C.ar  307  PHE307     -0.0042
     89  CD2        9.3840   -6.6310  117.6820 C.ar  307  PHE307     -0.0042
     90  CE1        8.8950   -8.8560  119.2570 C.ar  307  PHE307     -0.0003
     91  CE2        9.9610   -7.8660  117.3440 C.ar  307  PHE307     -0.0003
     92  CZ         9.7070   -8.9800  118.1190 C.ar  307  PHE307     -0.0000
@<TRIPOS>BOND
     1    49    48    1
     2    49    50    1
     3    48    45    1
     4    27    25    1
     5    44    45    1
     6    35    33    1
     7    26    25    1
     8    26    28    1
     9    52    50   am
    10    25    22    1
    11    50    51    2
    12    45    46    1
    13    46    47    2
    14    33    34    1
    15    33    30    1
    16    22    23    1
    17    22    21    1
    18    29    23   am
    19    29    30    1
    20    23    24    2
    21    30    31    1
    22    21    15   am
    23    13    14    1
    24    31    32    2
    25    31    36   am
    26    15    14    1
    27    15    16    2
    28    14    17    1
    29    53    54    1
    30    17    18    1
    31    36    37    1
    32    58    59    1
    33    58    57    1
    34    59    60    1
    35    18    19    1
    36    18    20    1
    37    66    63    1
    38    57    54    1
    39    62    63    1
    40    62    55   am
    41    54    55    1
    42    61    60    1
    43    37    38    1
    44    37    40    1
    45    63    64    1
    46    38    39    2
    47    55    56    2
    48    40    41    1
    49    64    65    2
    50    41    42   ar
    51    41    43   ar
    52    81    79   am
    53    72    71    1
    54    79    78    1
    55    79    80    2
    56    67    68    1
    57    78    75    1
    58    71    68    1
    59    71    73    1
    60    74    75    1
    61    74    69   am
    62    68    69    1
    63    75    76    1
    64    69    70    2
    65     4     3    2
    66    76    77    2
    67     3     2    1
    68     7     9   ar
    69     7     6   ar
    70     2     5    1
    71     2     1    1
    72     9    11   ar
    73    91    89   ar
    74    91    92   ar
    75    89    87   ar
    76     5     6    1
    77     6     8   ar
    78    92    90   ar
    79    11    12    1
    80    11    10   ar
    81    87    86    1
    82    87    88   ar
    83    82    83    1
    84     8    10   ar
    85    86    83    1
    86    90    88   ar
    87    83    84    1
    88    84    85    2
