@<TRIPOS>MOLECULE
tmp/2yorB08.pdb
 97 92 0 0 0
SMALL
GASTEIGER

@<TRIPOS>ATOM
      1  N          7.8980   14.2410  107.7580 N.3   115  HIS115     -0.1226
      2  CA         6.9860   15.0710  108.5240 C.3   115  HIS115      0.1752
      3  C          5.6200   14.3990  108.8190 C.2   115  HIS115      0.2596
      4  O          4.9270   13.9710  107.9030 O.2   115  HIS115     -0.2718
      5  CB         6.7580   16.4150  107.8050 C.3   115  HIS115      0.0759
      6  CG         5.7760   17.2920  108.5080 C.ar  115  HIS115      0.0818
      7  ND1        6.0080   17.7850  109.7780 N.ar  115  HIS115     -0.2268
      8  CD2        4.4880   17.5900  108.2170 C.ar  115  HIS115      0.1154
      9  CE1        4.9380   18.4390  110.1930 C.ar  115  HIS115      0.1986
     10  NE2        3.9880   18.3010  109.2830 N.ar  115  HIS115     -0.2212
     11  N          5.2100   14.3520  110.0870 N.am  116  GLY116     -0.1957
     12  CA         3.7960   14.0260  110.4220 C.3   116  GLY116      0.1869
     13  C          3.5220   12.5600  110.7330 C.2   116  GLY116      0.2309
     14  O          2.4180   12.1970  111.0970 O.2   116  GLY116     -0.2863
     15  N         -0.2630   25.7510  108.7200 N.3   179  ASN179     -0.1225
     16  CA        -0.4980   24.3130  108.6810 C.3   179  ASN179      0.1785
     17  C         -0.3010   23.6540  110.0380 C.2   179  ASN179      0.2597
     18  O         -0.1770   22.4520  110.1150 O.2   179  ASN179     -0.2718
     19  CB         0.4670   23.6850  107.6850 C.3   179  ASN179      0.1169
     20  CG        -0.0080   23.8540  106.2640 C.2   179  ASN179      0.2627
     21  OD1       -0.9860   24.5580  106.0160 O.2   179  ASN179     -0.2716
     22  ND2        0.6070   23.1480  105.3440 N.am  179  ASN179     -0.0877
     23  N         -0.0790   24.4420  111.0800 N.am  180  PHE180     -0.1962
     24  CA         0.2890   23.8460  112.3800 C.3   180  PHE180      0.1771
     25  C         -0.7260   22.7740  112.7330 C.2   180  PHE180      0.2620
     26  O         -1.9210   22.9410  112.5270 O.2   180  PHE180     -0.2715
     27  CB         0.3330   24.9190  113.4660 C.3   180  PHE180      0.0574
     28  CG         0.5400   24.3890  114.8440 C.ar  180  PHE180     -0.0200
     29  CD1        1.7140   23.6900  115.1600 C.ar  180  PHE180     -0.0042
     30  CD2       -0.3500   24.7150  115.8610 C.ar  180  PHE180     -0.0042
     31  CE1        2.0040   23.3240  116.4670 C.ar  180  PHE180     -0.0003
     32  CE2       -0.0800   24.3620  117.2030 C.ar  180  PHE180     -0.0003
     33  CZ         1.1260   23.6670  117.5030 C.ar  180  PHE180     -0.0000
     34  N         -0.2120   21.6140  113.1130 N.am  181  SER181     -0.1950
     35  CA        -1.0240   20.5130  113.5900 C.3   181  SER181      0.1924
     36  C         -0.4720   19.9630  114.9030 C.2   181  SER181      0.2314
     37  O          0.7390   19.6750  115.0040 O.2   181  SER181     -0.2863
     38  CB        -0.9840   19.3850  112.5750 C.3   181  SER181      0.2116
     39  OG        -1.7810   18.3160  113.0370 O.3   181  SER181     -0.2180
     40  N         -2.0390   17.1840  117.2360 N.3   183  VAL183     -0.1231
     41  CA        -3.0330   16.1990  117.6070 C.3   183  VAL183      0.1692
     42  C         -2.4070   14.8140  117.8010 C.2   183  VAL183      0.2592
     43  O         -1.2400   14.6020  117.4400 O.2   183  VAL183     -0.2718
     44  CB        -4.1830   16.1150  116.5590 C.3   183  VAL183      0.0266
     45  CG1       -4.9300   17.4460  116.4900 C.3   183  VAL183      0.0020
     46  CG2       -3.6350   15.7990  115.1520 C.3   183  VAL183      0.0020
     47  N         -3.1660   13.8930  118.4210 N.am  184  ASP184     -0.1974
     48  CA        -2.8400   12.4600  118.4300 C.3   184  ASP184      0.1709
     49  C         -1.3840   12.1930  118.8460 C.2   184  ASP184      0.2293
     50  O         -0.9150   12.6910  119.8740 O.2   184  ASP184     -0.2864
     51  CB        -3.1260   11.8120  117.0650 C.3   184  ASP184      0.1436
     52  CG        -4.6160   11.8960  116.6610 C.2   184  ASP184      0.3671
     53  OD1       -5.5030   11.6200  117.5150 O.co2 184  ASP184     -0.2456
     54  OD2       -4.8900   12.2230  115.4730 O.co2 184  ASP184     -0.2456
     55  N         -5.5090   22.2080  115.7840 N.3   254  ARG254     -0.1231
     56  CA        -4.7960   22.4810  114.5310 C.3   254  ARG254      0.1694
     57  C         -5.1820   23.8510  114.0360 C.2   254  ARG254      0.2592
     58  O         -6.3140   24.2860  114.2760 O.2   254  ARG254     -0.2718
     59  CB        -5.0860   21.4100  113.4670 C.3   254  ARG254      0.0321
     60  CG        -6.4830   21.4950  112.8610 C.3   254  ARG254      0.0489
     61  CD        -7.3830   20.5230  113.5670 C.3   254  ARG254      0.2205
     62  NE        -8.8100   20.6270  113.2510 N.pl3 254  ARG254     -0.0865
     63  CZ        -9.7360   20.9390  114.1540 C.cat 254  ARG254      0.5346
     64  NH1       -9.3620   21.2900  115.3770 N.pl3 254  ARG254      0.1354
     65  NH2      -11.0170   20.9700  113.8250 N.pl3 254  ARG254      0.1354
     66  N         -4.2670   24.5410  113.3530 N.am  255  ASN255     -0.1974
     67  CA        -4.6830   25.7050  112.5510 C.3   255  ASN255      0.1688
     68  C         -5.5500   25.2890  111.3640 C.2   255  ASN255      0.2292
     69  O         -5.4960   24.1580  110.9120 O.2   255  ASN255     -0.2864
     70  CB        -3.4980   26.5410  112.0890 C.3   255  ASN255      0.1181
     71  CG        -3.1400   27.6000  113.0740 C.2   255  ASN255      0.2629
     72  OD1       -3.9870   28.0170  113.8800 O.2   255  ASN255     -0.2716
     73  ND2       -1.9270   28.1380  112.9590 N.am  255  ASN255     -0.0877
     74  N         -9.5890   19.9010  118.4780 N.3   265  ASP265     -0.1239
     75  CA       -10.1510   18.7650  117.7560 C.3   265  ASP265      0.1674
     76  C        -10.6740   17.6810  118.7160 C.2   265  ASP265      0.2266
     77  O         -9.8890   16.9920  119.3560 O.2   265  ASP265     -0.2867
     78  CB        -9.0650   18.1720  116.8670 C.3   265  ASP265      0.1410
     79  CG        -9.5460   16.9490  116.0680 C.2   265  ASP265      0.3668
     80  OD1      -10.7500   16.5820  116.1100 O.co2 265  ASP265     -0.2456
     81  OD2       -8.6910   16.3630  115.3660 O.co2 265  ASP265     -0.2456
     82  N        -11.9730   14.9070  118.2710 N.3   267  THR267     -0.1218
     83  CA       -11.7730   13.5130  117.8830 C.3   267  THR267      0.1862
     84  C        -10.3490   13.0750  118.1610 C.2   267  THR267      0.2287
     85  O        -10.0480   11.8960  118.0760 O.2   267  THR267     -0.2866
     86  CB       -12.0590   13.2440  116.3870 C.3   267  THR267      0.1770
     87  OG1      -11.1450   14.0150  115.5910 O.3   267  THR267     -0.2211
     88  CG2      -13.5040   13.6170  116.0280 C.3   267  THR267      0.0375
     89  N         -5.5320    4.6930  117.2940 N.3   280  LYS280     -0.1245
     90  CA        -5.5380    5.4900  116.0680 C.3   280  LYS280      0.1561
     91  C         -4.1900    5.3900  115.3260 C.2   280  LYS280      0.2260
     92  O         -4.1540    5.2970  114.1050 O.2   280  LYS280     -0.2867
     93  CB        -5.8970    6.9570  116.3590 C.3   280  LYS280      0.0271
     94  CG        -7.3980    7.1830  116.5960 C.3   280  LYS280      0.0035
     95  CD        -7.7910    8.6640  116.9010 C.3   280  LYS280      0.0206
     96  CE        -7.7010    9.5800  115.6720 C.3   280  LYS280      0.1093
     97  NZ        -8.1050   11.0210  115.9880 N.3   280  LYS280     -0.1314
@<TRIPOS>BOND
     1    22    20   am
     2    21    20    2
     3    20    19    1
     4    19    16    1
     5     1     2    1
     6     5     6    1
     7     5     2    1
     8     4     3    2
     9     8     6   ar
    10     8    10   ar
    11     6     7   ar
    12     2     3    1
    13    16    15    1
    14    16    17    1
    15     3    11   am
    16    10     9   ar
    17     7     9   ar
    18    17    18    2
    19    17    23   am
    20    11    12    1
    21    12    13    1
    22    13    14    2
    23    69    68    2
    24    23    24    1
    25    68    67    1
    26    70    67    1
    27    70    71    1
    28    24    25    1
    29    24    27    1
    30    26    25    2
    31    67    66    1
    32    38    39    1
    33    38    35    1
    34    25    34   am
    35    60    59    1
    36    60    61    1
    37    73    71   am
    38    71    72    2
    39    34    35    1
    40    62    61    1
    41    62    63    2
    42    66    57   am
    43    27    28    1
    44    59    56    1
    45    35    36    1
    46    65    63    1
    47    57    58    2
    48    57    56    1
    49    92    91    2
    50    63    64    1
    51    56    55    1
    52    28    29   ar
    53    28    30   ar
    54    36    37    2
    55    46    44    1
    56    29    31   ar
    57    91    90    1
    58    81    79   ar
    59    54    52   ar
    60    87    86    1
    61    96    97    1
    62    96    95    1
    63    30    32   ar
    64    88    86    1
    65    79    80   ar
    66    79    78    1
    67    90    93    1
    68    90    89    1
    69    93    94    1
    70    86    83    1
    71    31    33   ar
    72    45    44    1
    73    44    41    1
    74    94    95    1
    75    52    51    1
    76    52    53   ar
    77    78    75    1
    78    51    48    1
    79    32    33   ar
    80    40    41    1
    81    43    42    2
    82    41    42    1
    83    75    74    1
    84    75    76    1
    85    42    47   am
    86    83    84    1
    87    83    82    1
    88    85    84    2
    89    47    48    1
    90    48    49    1
    91    76    77    2
    92    49    50    2
