@<TRIPOS>MOLECULE
tmp/2yorA03.pdb
 82 78 0 0 0
SMALL
GASTEIGER

@<TRIPOS>ATOM
      1  N        -17.3740   -0.6540  135.5180 N.3   150  ARG150     -0.1231
      2  CA       -17.9900    0.4280  134.7540 C.3   150  ARG150      0.1694
      3  C        -17.0130    1.1320  133.7770 C.2   150  ARG150      0.2592
      4  O        -17.4280    1.7220  132.7820 O.2   150  ARG150     -0.2718
      5  CB       -18.5840    1.4460  135.7430 C.3   150  ARG150      0.0321
      6  CG       -19.8950    0.9880  136.4050 C.3   150  ARG150      0.0489
      7  CD       -20.3490    1.9090  137.5440 C.3   150  ARG150      0.2205
      8  NE       -20.3940    3.3220  137.1770 N.pl3 150  ARG150     -0.0865
      9  CZ       -20.5170    4.3290  138.0460 C.cat 150  ARG150      0.5346
     10  NH1      -20.5620    4.0970  139.3610 N.pl3 150  ARG150      0.1354
     11  NH2      -20.5850    5.5740  137.6000 N.pl3 150  ARG150      0.1354
     12  N        -15.7250    1.1510  134.1110 N.am  151  PHE151     -0.1962
     13  CA       -14.7690    1.8870  133.3170 C.3   151  PHE151      0.1771
     14  C        -13.6340    1.0220  132.8170 C.2   151  PHE151      0.2620
     15  O        -12.8710    1.4520  131.9820 O.2   151  PHE151     -0.2715
     16  CB       -14.2270    3.0950  134.1030 C.3   151  PHE151      0.0574
     17  CG       -15.3080    4.0060  134.6200 C.ar  151  PHE151     -0.0200
     18  CD1      -16.1730    4.6490  133.7330 C.ar  151  PHE151     -0.0042
     19  CD2      -15.5020    4.1740  135.9850 C.ar  151  PHE151     -0.0042
     20  CE1      -17.2200    5.4490  134.2030 C.ar  151  PHE151     -0.0003
     21  CE2      -16.5320    4.9630  136.4670 C.ar  151  PHE151     -0.0003
     22  CZ       -17.3770    5.6330  135.5700 C.ar  151  PHE151     -0.0000
     23  N        -13.4930   -0.1880  133.3460 N.am  152  GLY152     -0.1940
     24  CA       -12.2930   -0.9710  133.0620 C.3   152  GLY152      0.2014
     25  C        -12.5620   -2.3120  132.4330 C.2   152  GLY152      0.2639
     26  O        -11.6620   -3.1410  132.3320 O.2   152  GLY152     -0.2714
     27  N        -13.8080   -2.5580  132.0450 N.am  153  GLY153     -0.1954
     28  CA       -14.2160   -3.9040  131.5860 C.3   153  GLY153      0.1869
     29  C        -14.1100   -4.9770  132.6500 C.2   153  GLY153      0.2309
     30  O        -13.7760   -6.1240  132.3610 O.2   153  GLY153     -0.2863
     31  N         -7.6070   -0.2270  135.6950 N.3   157  ASN157     -0.1225
     32  CA        -6.5910    0.3070  134.8250 C.3   157  ASN157      0.1785
     33  C         -6.5530    1.8020  135.0180 C.2   157  ASN157      0.2597
     34  O         -7.2580    2.3230  135.8900 O.2   157  ASN157     -0.2718
     35  CB        -6.8160   -0.1530  133.3610 C.3   157  ASN157      0.1169
     36  CG        -8.0700    0.4640  132.7040 C.2   157  ASN157      0.2627
     37  OD1       -8.5490    1.5240  133.1160 O.2   157  ASN157     -0.2716
     38  ND2       -8.5510   -0.1770  131.6230 N.am  157  ASN157     -0.0877
     39  N         -5.6640    2.4830  134.3050 N.am  158  LEU158     -0.1966
     40  CA        -5.5020    3.9350  134.4740 C.3   158  LEU158      0.1728
     41  C         -6.7800    4.7390  134.2490 C.2   158  LEU158      0.2616
     42  O         -7.0300    5.7400  134.9350 O.2   158  LEU158     -0.2715
     43  CB        -4.3200    4.4940  133.6390 C.3   158  LEU158      0.0311
     44  CG        -2.9480    3.9490  134.0280 C.3   158  LEU158      0.0022
     45  CD1       -1.8170    4.4810  133.1200 C.3   158  LEU158      0.0001
     46  CD2       -2.6470    4.2700  135.4870 C.3   158  LEU158      0.0001
     47  N         -7.6340    4.2740  133.3570 N.am  159  THR159     -0.1951
     48  CA        -8.9020    4.9540  133.1490 C.3   159  THR159      0.1897
     49  C         -9.7230    4.8680  134.4450 C.2   159  THR159      0.2313
     50  O        -10.1710    5.8890  134.9660 O.2   159  THR159     -0.2863
     51  CB        -9.6970    4.3100  131.9850 C.3   159  THR159      0.1794
     52  OG1       -8.8560    4.2130  130.8270 O.3   159  THR159     -0.2208
     53  CG2      -11.0080    5.1090  131.6690 C.3   159  THR159      0.0378
     54  N        -11.0760    7.7780  137.3660 N.3   163  GLU163     -0.1245
     55  CA       -12.4700    7.9470  137.8470 C.3   163  GLU163      0.1567
     56  C        -12.5980    7.8600  139.3820 C.2   163  GLU163      0.2260
     57  O        -13.2860    8.6620  140.0180 O.2   163  GLU163     -0.2867
     58  CB       -13.4020    6.9140  137.1940 C.3   163  GLU163      0.0388
     59  CG       -13.4980    7.0670  135.6670 C.3   163  GLU163      0.1160
     60  CD       -13.9160    8.5090  135.2610 C.2   163  GLU163      0.3649
     61  OE1      -14.9300    9.0130  135.8190 O.co2 163  GLU163     -0.2457
     62  OE2      -13.1910    9.1530  134.4450 O.co2 163  GLU163     -0.2457
     63  N         -1.1060   -3.4800  131.9860 N.3   208  GLY208     -0.1210
     64  CA        -1.8130   -2.5340  132.8380 C.3   208  GLY208      0.1956
     65  C         -3.2820   -2.7870  133.1190 C.2   208  GLY208      0.2611
     66  O         -4.0170   -1.8410  133.3780 O.2   208  GLY208     -0.2717
     67  N         -3.7150   -4.0500  133.0650 N.am  209  GLN209     -0.1979
     68  CA        -5.1280   -4.4290  133.3600 C.3   209  GLN209      0.1601
     69  C         -5.1360   -5.3890  134.5480 C.2   209  GLN209      0.2287
     70  O         -4.6620   -6.5300  134.4210 O.2   209  GLN209     -0.2864
     71  CB        -5.7700   -5.1640  132.1530 C.3   209  GLN209      0.0394
     72  CG        -5.5560   -4.4770  130.7790 C.3   209  GLN209      0.0908
     73  CD        -6.1380   -3.0710  130.7440 C.2   209  GLN209      0.2608
     74  OE1       -7.2970   -2.8500  131.1150 O.2   209  GLN209     -0.2717
     75  NE2       -5.3470   -2.1180  130.2680 N.am  209  GLN209     -0.0878
     76  N         -2.4500   10.5910  132.9560 N.3   242  VAL242     -0.1245
     77  CA        -3.8090   10.0960  132.6820 C.3   242  VAL242      0.1561
     78  C         -4.7930   10.3640  133.8170 C.2   242  VAL242      0.2260
     79  O         -5.9320   10.7580  133.6010 O.2   242  VAL242     -0.2867
     80  CB        -3.8230    8.5640  132.3850 C.3   242  VAL242      0.0252
     81  CG1       -5.2520    8.0950  132.0720 C.3   242  VAL242      0.0019
     82  CG2       -2.9560    8.2770  131.2490 C.3   242  VAL242      0.0019
@<TRIPOS>BOND
     1    75    73   am
     2    73    72    1
     3    73    74    2
     4    72    71    1
     5    52    51    1
     6    82    80    1
     7    28    27    1
     8    28    29    1
     9    38    36   am
    10    53    51    1
    11    15    14    2
    12    51    48    1
    13    63    64    1
    14    27    25   am
    15    81    80    1
    16    71    68    1
    17    26    25    2
    18    30    29    2
    19    80    77    1
    20    25    24    1
    21    77    76    1
    22    77    78    1
    23    36    37    2
    24    36    35    1
    25     4     3    2
    26    14    13    1
    27    14    23   am
    28    64    65    1
    29    24    23    1
    30    67    65   am
    31    67    68    1
    32    65    66    2
    33    45    44    1
    34    48    47    1
    35    48    49    1
    36    13    16    1
    37    13    12    1
    38    47    41   am
    39    68    69    1
    40    35    32    1
    41    79    78    2
    42    43    44    1
    43    43    40    1
    44    18    20   ar
    45    18    17   ar
    46     3    12   am
    47     3     2    1
    48    44    46    1
    49    16    17    1
    50    20    22   ar
    51    41    40    1
    52    41    42    2
    53    39    40    1
    54    39    33   am
    55    70    69    2
    56    49    50    2
    57    62    60   ar
    58    17    19   ar
    59     2     1    1
    60     2     5    1
    61    32    33    1
    62    32    31    1
    63    33    34    2
    64    60    59    1
    65    60    61   ar
    66    22    21   ar
    67    59    58    1
    68     5     6    1
    69    19    21   ar
    70     6     7    1
    71     8     7    1
    72     8     9    2
    73    58    55    1
    74    54    55    1
    75    11     9    1
    76    55    56    1
    77     9    10    1
    78    56    57    2
