@<TRIPOS>MOLECULE
tmp/2yorA06.pdb
 80 76 0 0 0
SMALL
GASTEIGER

@<TRIPOS>ATOM
      1  N         22.4490    4.2480  150.4660 N.3     1  PRO1       -0.2116
      2  CA        21.2360    4.1350  149.6070 C.3     1  PRO1        0.1372
      3  C         21.5350    3.3200  148.3430 C.2     1  PRO1        0.2244
      4  O         22.3570    3.7260  147.5420 O.2     1  PRO1       -0.2868
      5  CB        20.9200    5.5920  149.2270 C.3     1  PRO1        0.0268
      6  CG        22.2480    6.3640  149.4250 C.3     1  PRO1        0.0207
      7  CD        23.2770    5.4020  150.0710 C.3     1  PRO1        0.0892
      8  N         15.7560    1.9940  155.9900 N.3    52  PRO52      -0.2102
      9  CA        15.6180    2.5190  154.6410 C.3    52  PRO52       0.1504
     10  C         16.3030    1.6780  153.5560 C.2    52  PRO52       0.2575
     11  O         15.7300    1.4980  152.5010 O.2    52  PRO52      -0.2718
     12  CB        16.2970    3.8900  154.7320 C.3    52  PRO52       0.0282
     13  CG        16.1490    4.2780  156.1630 C.3    52  PRO52       0.0208
     14  CD        16.3430    2.9860  156.9120 C.3    52  PRO52       0.0893
     15  N         17.5410    1.2440  153.7700 N.am   53  VAL53      -0.1980
     16  CA        18.2100    0.3410  152.8160 C.3    53  VAL53       0.1595
     17  C         17.4310   -0.9560  152.6160 C.2    53  VAL53       0.2287
     18  O         17.2960   -1.4540  151.5020 O.2    53  VAL53      -0.2864
     19  CB        19.6770    0.0230  153.2360 C.3    53  VAL53       0.0276
     20  CG1       20.2290   -1.1420  152.4150 C.3    53  VAL53       0.0022
     21  CG2       20.5650    1.2690  153.0690 C.3    53  VAL53       0.0022
     22  N         12.8860    7.7570  151.9470 N.3    75  TYR75      -0.1241
     23  CA        13.4910    8.7600  152.8200 C.3    75  TYR75       0.1605
     24  C         12.5470    9.8770  153.2600 C.2    75  TYR75       0.2264
     25  O         12.6700   10.3900  154.3600 O.2    75  TYR75      -0.2867
     26  CB        14.7760    9.2930  152.2190 C.3    75  TYR75       0.0534
     27  CG        15.8830    8.2470  152.2280 C.ar   75  TYR75      -0.0201
     28  CD1       16.5400    7.8900  153.4150 C.ar   75  TYR75      -0.0009
     29  CD2       16.2160    7.5750  151.0620 C.ar   75  TYR75      -0.0009
     30  CE1       17.5860    6.9050  153.4130 C.ar   75  TYR75       0.0417
     31  CE2       17.2400    6.6490  151.0400 C.ar   75  TYR75       0.0417
     32  CZ        17.8940    6.2830  152.2110 C.ar   75  TYR75       0.1957
     33  OH        18.8330    5.2860  152.1220 O.3    75  TYR75      -0.2866
     34  N         15.6140    8.4510  163.3440 N.3    84  LEU84      -0.1245
     35  CA        16.7830    8.8120  162.5920 C.3    84  LEU84       0.1561
     36  C         18.0990    8.3410  163.2150 C.2    84  LEU84       0.2260
     37  O         19.0780    8.2010  162.4830 O.2    84  LEU84      -0.2867
     38  CB        16.7930   10.3090  162.2670 C.3    84  LEU84       0.0270
     39  CG        15.5320   10.8300  161.5470 C.3    84  LEU84       0.0019
     40  CD1       15.5710   12.3080  161.4290 C.3    84  LEU84       0.0001
     41  CD2       15.3210   10.1910  160.1960 C.3    84  LEU84       0.0001
     42  N         17.7450    4.4330  162.7440 N.3    87  ASP87      -0.1239
     43  CA        17.6520    4.2420  161.3280 C.3    87  ASP87       0.1674
     44  C         16.5920    3.2220  161.0150 C.2    87  ASP87       0.2266
     45  O         16.7700    2.4050  160.1080 O.2    87  ASP87      -0.2867
     46  CB        19.0000    3.7710  160.7460 C.3    87  ASP87       0.1410
     47  CG        19.0900    3.9920  159.2310 C.2    87  ASP87       0.3668
     48  OD1       18.5980    5.0400  158.7760 O.co2  87  ASP87      -0.2456
     49  OD2       19.6270    3.1310  158.4930 O.co2  87  ASP87      -0.2456
     50  N         22.2640   13.2380  161.6240 N.3   299  ALA299     -0.1245
     51  CA        21.4070   12.2090  161.0060 C.3   299  ALA299      0.1562
     52  C         20.3890   12.8400  160.0420 C.2   299  ALA299      0.2260
     53  O         20.0570   12.2630  159.0110 O.2   299  ALA299     -0.2867
     54  CB        20.6960   11.3650  162.0550 C.3   299  ALA299      0.0290
     55  N         22.1880   13.8630  156.6540 N.3   302  THR302     -0.1203
     56  CA        22.4210   12.6790  155.8040 C.3   302  THR302      0.1994
     57  C         21.1350   12.1900  155.0990 C.2   302  THR302      0.2617
     58  O         21.1470   11.8600  153.9050 O.2   302  THR302     -0.2717
     59  CB        22.9820   11.5470  156.6590 C.3   302  THR302      0.1784
     60  OG1       24.1280   12.0320  157.3640 O.3   302  THR302     -0.2211
     61  CG2       23.3650   10.3530  155.8110 C.3   302  THR302      0.0376
     62  N         20.0410   12.0980  155.8430 N.am  303  ASN303     -0.1974
     63  CA        18.7680   11.6350  155.2580 C.3   303  ASN303      0.1688
     64  C         18.1140   12.6630  154.3070 C.2   303  ASN303      0.2292
     65  O         17.4270   12.2920  153.3350 O.2   303  ASN303     -0.2864
     66  CB        17.8070   11.2070  156.3620 C.3   303  ASN303      0.1181
     67  CG        18.2030    9.8350  156.9930 C.2   303  ASN303      0.2629
     68  OD1       17.9900    8.7820  156.3980 O.2   303  ASN303     -0.2716
     69  ND2       18.8700    9.8740  158.1410 N.am  303  ASN303     -0.0877
     70  N         19.8410   12.1950  151.0530 N.3   306  PHE306     -0.1241
     71  CA        19.4060   10.9850  150.3000 C.3   306  PHE306      0.1605
     72  C         17.9990   11.2810  149.7620 C.2   306  PHE306      0.2264
     73  O         17.6770   10.9770  148.6420 O.2   306  PHE306     -0.2867
     74  CB        19.3730    9.7250  151.1830 C.3   306  PHE306      0.0534
     75  CG        20.7130    9.3470  151.7800 C.ar  306  PHE306     -0.0203
     76  CD1       21.9090    9.7370  151.1790 C.ar  306  PHE306     -0.0042
     77  CD2       20.7710    8.5610  152.9190 C.ar  306  PHE306     -0.0042
     78  CE1       23.1380    9.2690  151.6820 C.ar  306  PHE306     -0.0003
     79  CE2       21.9760    8.1570  153.4580 C.ar  306  PHE306     -0.0003
     80  CZ        23.1510    8.4440  152.8200 C.ar  306  PHE306     -0.0000
@<TRIPOS>BOND
     1     4     3    2
     2     3     2    1
     3    73    72    2
     4     5     6    1
     5     5     2    1
     6     6     7    1
     7     2     1    1
     8    72    71    1
     9     7     1    1
    10    71    70    1
    11    71    74    1
    12    31    29   ar
    13    31    32   ar
    14    29    27   ar
    15    76    78   ar
    16    76    75   ar
    17    74    75    1
    18    18    17    2
    19    78    80   ar
    20    75    77   ar
    21    22    23    1
    22    33    32    1
    23    32    30   ar
    24    26    27    1
    25    26    23    1
    26    27    28   ar
    27    20    19    1
    28    11    10    2
    29    17    16    1
    30    16    19    1
    31    16    15    1
    32    80    79   ar
    33    23    24    1
    34    77    79   ar
    35    21    19    1
    36    24    25    2
    37    65    64    2
    38    30    28   ar
    39    10    15   am
    40    10     9    1
    41    58    57    2
    42    64    63    1
    43     9    12    1
    44     9     8    1
    45    12    13    1
    46    57    56    1
    47    57    62   am
    48    63    62    1
    49    63    66    1
    50    56    55    1
    51    56    59    1
    52    61    59    1
    53     8    14    1
    54    13    14    1
    55    66    67    1
    56    68    67    2
    57    59    60    1
    58    67    69   am
    59    49    47   ar
    60    48    47   ar
    61    53    52    2
    62    47    46    1
    63    52    51    1
    64    45    44    2
    65    41    39    1
    66    46    43    1
    67    51    50    1
    68    51    54    1
    69    44    43    1
    70    43    42    1
    71    40    39    1
    72    39    38    1
    73    38    35    1
    74    37    36    2
    75    35    36    1
    76    35    34    1
