@<TRIPOS>MOLECULE
tmp/2yorB05.pdb
 87 84 0 0 0
SMALL
GASTEIGER

@<TRIPOS>ATOM
      1  N         -6.7190    5.5140  122.9840 N.3   276  LEU276     -0.1245
      2  CA        -7.2450    5.9650  121.7150 C.3   276  LEU276      0.1561
      3  C         -6.0700    6.4250  120.8350 C.2   276  LEU276      0.2260
      4  O         -6.0540    6.1880  119.6270 O.2   276  LEU276     -0.2867
      5  CB        -8.2210    7.1130  121.9690 C.3   276  LEU276      0.0270
      6  CG        -8.9390    7.7370  120.7790 C.3   276  LEU276      0.0019
      7  CD1       -9.6770    6.6110  120.0640 C.3   276  LEU276      0.0001
      8  CD2       -9.9300    8.8360  121.2840 C.3   276  LEU276      0.0001
      9  N         -4.6280    3.2160  119.5360 N.3   279  GLU279     -0.1231
     10  CA        -5.5070    2.6050  118.5520 C.3   279  GLU279      0.1699
     11  C         -5.5220    3.3690  117.2360 C.2   279  GLU279      0.2592
     12  O         -5.5600    2.7630  116.1780 O.2   279  GLU279     -0.2718
     13  CB        -6.9450    2.4850  119.1020 C.3   279  GLU279      0.0402
     14  CG        -7.1730    1.1390  119.7730 C.3   279  GLU279      0.1161
     15  CD        -8.5850    0.9510  120.3320 C.2   279  GLU279      0.3649
     16  OE1       -9.5580    1.4600  119.7080 O.co2 279  GLU279     -0.2457
     17  OE2       -8.7050    0.2040  121.3440 O.co2 279  GLU279     -0.2457
     18  N         -5.5320    4.6930  117.2940 N.am  280  LYS280     -0.1980
     19  CA        -5.5380    5.4900  116.0680 C.3   280  LYS280      0.1596
     20  C         -4.1900    5.3900  115.3260 C.2   280  LYS280      0.2287
     21  O         -4.1540    5.2970  114.1050 O.2   280  LYS280     -0.2864
     22  CB        -5.8970    6.9570  116.3590 C.3   280  LYS280      0.0298
     23  CG        -7.3980    7.1830  116.5960 C.3   280  LYS280      0.0038
     24  CD        -7.7910    8.6640  116.9010 C.3   280  LYS280      0.0206
     25  CE        -7.7010    9.5800  115.6720 C.3   280  LYS280      0.1093
     26  NZ        -8.1050   11.0210  115.9880 N.3   280  LYS280     -0.1314
     27  N         -4.6550    1.7410  113.7470 N.3   283  ASN283     -0.1225
     28  CA        -5.7650    1.6090  112.7920 C.3   283  ASN283      0.1785
     29  C         -5.6890    2.5860  111.6640 C.2   283  ASN283      0.2597
     30  O         -6.2300    2.3360  110.6170 O.2   283  ASN283     -0.2718
     31  CB        -7.1140    1.8360  113.4690 C.3   283  ASN283      0.1169
     32  CG        -7.5520    0.6590  114.2840 C.2   283  ASN283      0.2627
     33  OD1       -6.8410   -0.3440  114.3720 O.2   283  ASN283     -0.2716
     34  ND2       -8.7480    0.7570  114.8680 N.am  283  ASN283     -0.0877
     35  N         -5.1380    3.7630  111.9370 N.am  284  ILE284     -0.1980
     36  CA        -5.1210    4.8340  110.9690 C.3   284  ILE284      0.1595
     37  C         -3.7190    5.1260  110.3850 C.2   284  ILE284      0.2287
     38  O         -3.5150    4.9740  109.1960 O.2   284  ILE284     -0.2864
     39  CB        -5.7560    6.1190  111.5400 C.3   284  ILE284      0.0276
     40  CG1       -7.1620    5.8230  112.0560 C.3   284  ILE284      0.0022
     41  CG2       -5.8440    7.1840  110.4360 C.3   284  ILE284      0.0022
     42  CD1       -7.9320    7.0820  112.4410 C.3   284  ILE284      0.0001
     43  N         -4.5900   -4.6850  123.0010 N.3   318  GLN318     -0.1231
     44  CA        -4.0080   -4.7630  121.6590 C.3   318  GLN318      0.1698
     45  C         -5.0910   -4.7310  120.5870 C.2   318  GLN318      0.2592
     46  O         -6.0810   -5.4290  120.6860 O.2   318  GLN318     -0.2718
     47  CB        -3.1870   -6.0540  121.4910 C.3   318  GLN318      0.0381
     48  CG        -2.2260   -6.0430  120.2590 C.3   318  GLN318      0.0905
     49  CD        -1.1340   -7.1320  120.3340 C.2   318  GLN318      0.2608
     50  OE1       -0.9960   -7.8270  121.3440 O.2   318  GLN318     -0.2717
     51  NE2       -0.2830   -7.1770  119.3170 N.am  318  GLN318     -0.0878
     52  N         -4.8600   -3.9770  119.5240 N.am  319  VAL319     -0.1966
     53  CA        -5.7090   -4.0920  118.3340 C.3   319  VAL319      0.1727
     54  C         -4.9630   -4.7920  117.2030 C.2   319  VAL319      0.2616
     55  O         -3.7230   -4.8270  117.1730 O.2   319  VAL319     -0.2715
     56  CB        -6.2420   -2.7160  117.8400 C.3   319  VAL319      0.0290
     57  CG1       -5.1590   -1.6680  117.8840 C.3   319  VAL319      0.0023
     58  CG2       -6.7070   -2.8380  116.4060 C.3   319  VAL319      0.0023
     59  N         -5.7100   -5.4500  116.3270 N.am  320  PHE320     -0.1960
     60  CA        -5.0770   -6.2790  115.2810 C.3   320  PHE320      0.1756
     61  C         -5.5770   -5.8950  113.8840 C.2   320  PHE320      0.2461
     62  O         -6.5350   -6.4690  113.3860 O.2   320  PHE320     -0.2730
     63  CB        -5.3250   -7.7760  115.5350 C.3   320  PHE320      0.0574
     64  CG        -4.7640   -8.2750  116.8370 C.ar  320  PHE320     -0.0200
     65  CD1       -3.4120   -8.5910  116.9520 C.ar  320  PHE320     -0.0042
     66  CD2       -5.5890   -8.4100  117.9520 C.ar  320  PHE320     -0.0042
     67  CE1       -2.9100   -9.0620  118.1330 C.ar  320  PHE320     -0.0003
     68  CE2       -5.0860   -8.8750  119.1470 C.ar  320  PHE320     -0.0003
     69  CZ        -3.7490   -9.2180  119.2470 C.ar  320  PHE320     -0.0000
     70  N         -4.9010   -4.9460  113.2310 N.am  321  PRO321     -0.2727
     71  CA        -5.4080   -4.4470  111.9450 C.3   321  PRO321      0.1402
     72  C         -5.2720   -5.4840  110.8140 C.2   321  PRO321      0.2269
     73  O         -5.9700   -5.3900  109.8240 O.2   321  PRO321     -0.2865
     74  CB        -4.5250   -3.2250  111.6660 C.3   321  PRO321      0.0296
     75  CG        -3.2060   -3.5450  112.3810 C.3   321  PRO321      0.0237
     76  CD        -3.6220   -4.3240  113.6320 C.3   321  PRO321      0.0939
     77  N         -4.8780  -11.9600  113.6760 N.3   324  ARG324     -0.1245
     78  CA        -3.9050  -12.6420  114.5390 C.3   324  ARG324      0.1563
     79  C         -3.6090  -14.0570  114.0300 C.2   324  ARG324      0.2260
     80  O         -2.7970  -14.2510  113.1210 O.2   324  ARG324     -0.2867
     81  CB        -4.3910  -12.7050  116.0010 C.3   324  ARG324      0.0307
     82  CG        -5.4890  -11.7030  116.3950 C.3   324  ARG324      0.0489
     83  CD        -6.5190  -12.3660  117.3290 C.3   324  ARG324      0.2205
     84  NE        -7.4240  -11.4170  117.9840 N.pl3 324  ARG324     -0.0865
     85  CZ        -8.4580  -10.8140  117.3930 C.cat 324  ARG324      0.5346
     86  NH1       -8.7150  -11.0230  116.1050 N.pl3 324  ARG324      0.1354
     87  NH2       -9.2350   -9.9900  118.0910 N.pl3 324  ARG324      0.1354
@<TRIPOS>BOND
     1    38    37    2
     2    73    72    2
     3    37    36    1
     4    41    39    1
     5    30    29    2
     6    72    71    1
     7    36    39    1
     8    36    35    1
     9    39    40    1
    10    29    35   am
    11    29    28    1
    12    74    71    1
    13    74    75    1
    14    71    70    1
    15    40    42    1
    16    75    76    1
    17    28    31    1
    18    28    27    1
    19    80    79    2
    20    70    76    1
    21    70    61   am
    22    62    61    2
    23    31    32    1
    24    77    78    1
    25    61    60    1
    26    79    78    1
    27    21    20    2
    28    32    33    2
    29    32    34   am
    30    78    81    1
    31    60    63    1
    32    60    59    1
    33    20    19    1
    34    63    64    1
    35    25    26    1
    36    25    24    1
    37    81    82    1
    38    19    22    1
    39    19    18    1
    40    86    85    1
    41    12    11    2
    42    59    54   am
    43    22    23    1
    44    82    83    1
    45    58    56    1
    46    23    24    1
    47    64    65   ar
    48    64    66   ar
    49    65    67   ar
    50    55    54    2
    51    54    53    1
    52    11    18   am
    53    11    10    1
    54    83    84    1
    55    85    84    2
    56    85    87    1
    57    56    57    1
    58    56    53    1
    59    66    68   ar
    60    67    69   ar
    61    53    52    1
    62    10    13    1
    63    10     9    1
    64    13    14    1
    65    68    69   ar
    66    51    49   am
    67    52    45   am
    68     4     3    2
    69    16    15   ar
    70    14    15    1
    71     7     6    1
    72    48    49    1
    73    48    47    1
    74    15    17   ar
    75    49    50    2
    76    45    46    2
    77    45    44    1
    78     6     8    1
    79     6     5    1
    80     3     2    1
    81    47    44    1
    82    44    43    1
    83     2     5    1
    84     2     1    1
