@<TRIPOS>MOLECULE
tmp/2yorB04.pdb
 77 74 0 0 0
SMALL
GASTEIGER

@<TRIPOS>ATOM
      1  N         17.4400   31.3530  131.3910 N.3   150  ASN150     -0.1225
      2  CA        17.8450   32.5020  132.2410 C.3   150  ASN150      0.1785
      3  C         16.6220   33.0260  133.0000 C.2   150  ASN150      0.2597
      4  O         16.6880   33.3760  134.1720 O.2   150  ASN150     -0.2718
      5  CB        18.4330   33.6560  131.4030 C.3   150  ASN150      0.1169
      6  CG        19.7790   33.3250  130.7600 C.2   150  ASN150      0.2627
      7  OD1       20.5310   32.5060  131.2910 O.2   150  ASN150     -0.2716
      8  ND2       20.1460   34.0720  129.6790 N.am  150  ASN150     -0.0877
      9  N         15.4930   33.1070  132.3230 N.am  151  ARG151     -0.1966
     10  CA        14.3020   33.6400  132.9800 C.3   151  ARG151      0.1729
     11  C         13.7080   32.6820  134.0020 C.2   151  ARG151      0.2616
     12  O         13.2990   33.1030  135.0550 O.2   151  ARG151     -0.2715
     13  CB        13.2350   34.0970  131.9700 C.3   151  ARG151      0.0348
     14  CG        13.5210   35.4900  131.4240 C.3   151  ARG151      0.0492
     15  CD        12.9570   35.6930  130.0070 C.3   151  ARG151      0.2205
     16  NE        11.5040   35.7500  130.0020 N.pl3 151  ARG151     -0.0865
     17  CZ        10.7630   35.5860  128.9000 C.cat 151  ARG151      0.5346
     18  NH1       11.3590   35.4460  127.7140 N.pl3 151  ARG151      0.1354
     19  NH2        9.4260   35.6330  128.9710 N.pl3 151  ARG151      0.1354
     20  N         13.6560   31.3960  133.6960 N.am  152  PHE152     -0.1960
     21  CA        12.9070   30.4970  134.5610 C.3   152  PHE152      0.1771
     22  C         13.7260   29.4080  135.2690 C.2   152  PHE152      0.2620
     23  O         13.2360   28.7610  136.2060 O.2   152  PHE152     -0.2715
     24  CB        11.7820   29.8550  133.7570 C.3   152  PHE152      0.0574
     25  CG        10.7750   30.8320  133.2580 C.ar  152  PHE152     -0.0200
     26  CD1        9.7970   31.3540  134.1190 C.ar  152  PHE152     -0.0042
     27  CD2       10.7360   31.1660  131.9230 C.ar  152  PHE152     -0.0042
     28  CE1        8.8180   32.2600  133.6470 C.ar  152  PHE152     -0.0003
     29  CE2        9.7430   31.9970  131.4230 C.ar  152  PHE152     -0.0003
     30  CZ         8.7910   32.5850  132.2960 C.ar  152  PHE152     -0.0000
     31  N         14.9790   29.2150  134.8630 N.am  153  GLY153     -0.1940
     32  CA        15.7850   28.1540  135.4830 C.3   153  GLY153      0.2014
     33  C         17.0950   28.6070  136.0510 C.2   153  GLY153      0.2639
     34  O         18.0720   27.8290  136.0750 O.2   153  GLY153     -0.2714
     35  N         17.1910   29.8870  136.3990 N.am  154  GLY154     -0.1954
     36  CA        18.4750   30.4090  136.9210 C.3   154  GLY154      0.1869
     37  C         19.6570   30.2260  135.9660 C.2   154  GLY154      0.2309
     38  O         20.7960   30.1260  136.3900 O.2   154  GLY154     -0.2863
     39  N         15.6070   23.3350  133.1890 N.3   158  ASN158     -0.1225
     40  CA        15.0150   22.3260  134.0870 C.3   158  ASN158      0.1785
     41  C         13.5300   22.2160  133.7330 C.2   158  ASN158      0.2597
     42  O         13.1240   22.7770  132.7220 O.2   158  ASN158     -0.2718
     43  CB        15.2660   22.6940  135.5580 C.3   158  ASN158      0.1169
     44  CG        14.5520   23.9550  135.9950 C.2   158  ASN158      0.2627
     45  OD1       13.5230   24.3360  135.4280 O.2   158  ASN158     -0.2716
     46  ND2       15.0620   24.5780  137.0620 N.am  158  ASN158     -0.0877
     47  N         12.7770   21.3520  134.4080 N.am  159  LEU159     -0.1966
     48  CA        11.3510   21.1200  134.0620 C.3   159  LEU159      0.1728
     49  C         10.4730   22.3700  134.1450 C.2   159  LEU159      0.2616
     50  O          9.4100   22.4400  133.5310 O.2   159  LEU159     -0.2715
     51  CB        10.7270   20.0230  134.9350 C.3   159  LEU159      0.0311
     52  CG        11.3870   18.6470  134.7040 C.3   159  LEU159      0.0022
     53  CD1       10.7710   17.6460  135.6390 C.3   159  LEU159      0.0001
     54  CD2       11.1630   18.2190  133.2440 C.3   159  LEU159      0.0001
     55  N         10.8670   23.3370  134.9500 N.am  160  THR160     -0.1951
     56  CA        10.1100   24.6030  134.9500 C.3   160  THR160      0.1897
     57  C         10.3420   25.3530  133.6440 C.2   160  THR160      0.2313
     58  O          9.4130   25.8530  133.0530 O.2   160  THR160     -0.2863
     59  CB        10.5380   25.5500  136.1000 C.3   160  THR160      0.1794
     60  OG1       10.5720   24.8420  137.3370 O.3   160  THR160     -0.2208
     61  CG2        9.5830   26.7440  136.2090 C.3   160  THR160      0.0378
     62  N         19.1560   19.9330  136.4530 N.3   210  GLN210     -0.1245
     63  CA        19.5400   21.2900  136.0340 C.3   210  GLN210      0.1566
     64  C         20.6130   21.1940  134.9560 C.2   210  GLN210      0.2260
     65  O         21.7830   20.9180  135.2650 O.2   210  GLN210     -0.2867
     66  CB        20.0900   22.1160  137.2260 C.3   210  GLN210      0.0367
     67  CG        19.2650   22.0200  138.5310 C.3   210  GLN210      0.0905
     68  CD        17.8320   22.4290  138.3170 C.2   210  GLN210      0.2608
     69  OE1       17.5580   23.5240  137.8120 O.2   210  GLN210     -0.2717
     70  NE2       16.8940   21.5280  138.6570 N.am  210  GLN210     -0.0878
     71  N          4.5260   17.8700  135.0600 N.3   243  VAL243     -0.1245
     72  CA         4.9850   19.2400  135.3970 C.3   243  VAL243      0.1561
     73  C          4.9550   20.1320  134.1610 C.2   243  VAL243      0.2260
     74  O          4.6460   21.3530  134.2410 O.2   243  VAL243     -0.2867
     75  CB         6.4580   19.1960  135.9220 C.3   243  VAL243      0.0252
     76  CG1        6.9950   20.5730  136.2440 C.3   243  VAL243      0.0019
     77  CG2        6.5560   18.2700  137.1250 C.3   243  VAL243      0.0019
@<TRIPOS>BOND
     1    18    17    1
     2    17    19    1
     3    17    16    2
     4     8     6   am
     5    16    15    1
     6    15    14    1
     7     6     7    2
     8     6     5    1
     9     1     2    1
    10     5     2    1
    11    29    27   ar
    12    29    30   ar
    13    14    13    1
    14    27    25   ar
    15    13    10    1
    16     2     3    1
    17    30    28   ar
    18     9    10    1
    19     9     3   am
    20    42    41    2
    21    10    11    1
    22     3     4    2
    23    58    57    2
    24    39    40    1
    25    54    52    1
    26    25    24    1
    27    25    26   ar
    28    50    49    2
    29    57    56    1
    30    28    26   ar
    31    20    11   am
    32    20    21    1
    33    41    40    1
    34    41    47   am
    35    24    21    1
    36    11    12    2
    37    48    49    1
    38    48    47    1
    39    48    51    1
    40    40    43    1
    41    49    55   am
    42    73    74    2
    43    73    72    1
    44    21    22    1
    45    52    51    1
    46    52    53    1
    47    31    22   am
    48    31    32    1
    49    56    55    1
    50    56    59    1
    51    64    65    2
    52    64    63    1
    53    71    72    1
    54    22    23    2
    55    72    75    1
    56    45    44    2
    57    32    33    1
    58    43    44    1
    59    75    76    1
    60    75    77    1
    61    37    38    2
    62    37    36    1
    63    44    46   am
    64    63    62    1
    65    63    66    1
    66    33    34    2
    67    33    35   am
    68    59    61    1
    69    59    60    1
    70    35    36    1
    71    66    67    1
    72    69    68    2
    73    68    67    1
    74    68    70   am
