@<TRIPOS>MOLECULE
tmp/2yorB02.pdb
 91 88 0 0 0
SMALL
GASTEIGER

@<TRIPOS>ATOM
      1  N         16.3390   14.2380  116.0940 N.3    33  CYS33      -0.1235
      2  CA        16.5630   13.7190  117.4540 C.3    33  CYS33       0.1677
      3  C         18.0070   13.8580  117.9360 C.2    33  CYS33       0.2270
      4  O         18.9230   13.1850  117.4220 O.2    33  CYS33      -0.2867
      5  CB        16.1660   12.2330  117.5910 C.3    33  CYS33       0.0956
      6  SG        16.3350   11.6870  119.3240 S.3    33  CYS33      -0.0801
      7  N         18.3280    5.4820  128.8110 N.3    66  PHE66      -0.1241
      8  CA        16.9190    5.5180  128.4170 C.3    66  PHE66       0.1605
      9  C         16.1690    4.2780  128.8790 C.2    66  PHE66       0.2264
     10  O         16.6660    3.1720  128.7710 O.2    66  PHE66      -0.2867
     11  CB        16.7690    5.7260  126.9060 C.3    66  PHE66       0.0534
     12  CG        15.4940    6.4560  126.5100 C.ar   66  PHE66      -0.0203
     13  CD1       15.2400    7.7680  126.9610 C.ar   66  PHE66      -0.0042
     14  CD2       14.6150    5.8890  125.6080 C.ar   66  PHE66      -0.0042
     15  CE1       14.1060    8.4650  126.5400 C.ar   66  PHE66      -0.0003
     16  CE2       13.4720    6.6100  125.1240 C.ar   66  PHE66      -0.0003
     17  CZ        13.2240    7.8960  125.5660 C.ar   66  PHE66      -0.0000
     18  N          9.9940    3.1090  127.3030 N.3    70  ALA70      -0.1245
     19  CA        10.0640    4.2470  126.3420 C.3    70  ALA70       0.1562
     20  C         10.9110    3.9370  125.0830 C.2    70  ALA70       0.2260
     21  O         10.6600    4.4900  124.0040 O.2    70  ALA70      -0.2867
     22  CB        10.6450    5.5190  127.0450 C.3    70  ALA70       0.0290
     23  N          8.6700    1.6180  122.9280 N.3    73  PHE73      -0.1227
     24  CA         7.5980    2.4320  122.3820 C.3    73  PHE73       0.1736
     25  C          8.0390    3.3310  121.2100 C.2    73  PHE73       0.2595
     26  O          7.4700    3.2830  120.1010 O.2    73  PHE73      -0.2718
     27  CB         6.9620    3.2710  123.4760 C.3    73  PHE73       0.0547
     28  CG         5.8750    4.1530  122.9880 C.ar   73  PHE73      -0.0202
     29  CD1        4.6230    3.6240  122.6650 C.ar   73  PHE73      -0.0042
     30  CD2        6.1060    5.5030  122.7700 C.ar   73  PHE73      -0.0042
     31  CE1        3.5910    4.4760  122.2280 C.ar   73  PHE73      -0.0003
     32  CE2        5.0930    6.3310  122.3330 C.ar   73  PHE73      -0.0003
     33  CZ         3.8420    5.8040  122.0060 C.ar   73  PHE73      -0.0000
     34  N          9.0400    4.1650  121.4400 N.am   74  ALA74      -0.1980
     35  CA         9.4530    5.0950  120.4100 C.3    74  ALA74       0.1597
     36  C         10.1040    4.3690  119.2190 C.2    74  ALA74       0.2287
     37  O          9.9270    4.7810  118.0660 O.2    74  ALA74      -0.2864
     38  CB        10.4340    6.1670  120.9970 C.3    74  ALA74       0.0319
     39  N          6.0910   10.5700  112.7640 N.3   118  PHE118     -0.1241
     40  CA         6.6110   10.7080  114.1280 C.3   118  PHE118      0.1605
     41  C          7.0200   12.1710  114.3820 C.2   118  PHE118      0.2264
     42  O          6.5150   12.8120  115.3150 O.2   118  PHE118     -0.2867
     43  CB         7.8010    9.7430  114.3280 C.3   118  PHE118      0.0534
     44  CG         8.1860    9.4900  115.7670 C.ar  118  PHE118     -0.0203
     45  CD1        8.5820   10.5380  116.6020 C.ar  118  PHE118     -0.0042
     46  CD2        8.2410    8.1900  116.2650 C.ar  118  PHE118     -0.0042
     47  CE1        8.9750   10.3110  117.9330 C.ar  118  PHE118     -0.0003
     48  CE2        8.6770    7.9420  117.5990 C.ar  118  PHE118     -0.0003
     49  CZ         9.0430    8.9940  118.4270 C.ar  118  PHE118     -0.0000
     50  N          0.9200   13.9390  122.1390 N.3   188  PHE188     -0.1227
     51  CA         1.4790   13.1100  123.2120 C.3   188  PHE188      0.1736
     52  C          3.0190   13.1950  123.3190 C.2   188  PHE188      0.2596
     53  O          3.5530   13.5780  124.3580 O.2   188  PHE188     -0.2718
     54  CB         1.0160   11.6500  123.0520 C.3   188  PHE188      0.0547
     55  CG         1.6420   10.6810  124.0480 C.ar  188  PHE188     -0.0202
     56  CD1        1.0120   10.3960  125.2470 C.ar  188  PHE188     -0.0042
     57  CD2        2.7860    9.9660  123.7140 C.ar  188  PHE188     -0.0042
     58  CE1        1.5840    9.4940  126.1760 C.ar  188  PHE188     -0.0003
     59  CE2        3.3690    9.0620  124.6080 C.ar  188  PHE188     -0.0003
     60  CZ         2.7650    8.8290  125.8610 C.ar  188  PHE188     -0.0000
     61  N          3.7300   12.9070  122.2310 N.am  189  THR189     -0.1953
     62  CA         5.2060   12.9090  122.2690 C.3   189  THR189      0.1897
     63  C          5.8440   14.2740  122.5380 C.2   189  THR189      0.2313
     64  O          6.9590   14.3520  123.0560 O.2   189  THR189     -0.2863
     65  CB         5.8360   12.3980  120.9460 C.3   189  THR189      0.1794
     66  OG1        5.3590   13.1670  119.8430 O.3   189  THR189     -0.2208
     67  CG2        5.5400   10.9570  120.7010 C.3   189  THR189      0.0378
     68  N          6.5770   14.8130  126.3370 N.3   192  GLY192     -0.1210
     69  CA         7.5890   13.9670  126.9480 C.3   192  GLY192      0.1956
     70  C          8.9850   14.3970  126.5160 C.2   192  GLY192      0.2611
     71  O          9.9030   14.4210  127.3200 O.2   192  GLY192     -0.2717
     72  N          9.1290   14.8030  125.2640 N.am  193  GLU193     -0.1979
     73  CA        10.4380   15.1900  124.7570 C.3   193  GLU193      0.1602
     74  C         11.0680   16.3610  125.5050 C.2   193  GLU193      0.2287
     75  O         12.2830   16.5430  125.4350 O.2   193  GLU193     -0.2864
     76  CB        10.3650   15.5370  123.2730 C.3   193  GLU193      0.0415
     77  CG        10.2820   14.3240  122.3540 C.3   193  GLU193      0.1163
     78  CD         9.5480   14.6320  121.0270 C.2   193  GLU193      0.3649
     79  OE1        9.4990   15.8470  120.6230 O.co2 193  GLU193     -0.2457
     80  OE2        8.9430   13.6730  120.4510 O.co2 193  GLU193     -0.2457
     81  N         13.2130   15.2560  128.4070 N.3   196  PHE196     -0.1241
     82  CA        14.4040   14.3700  128.2680 C.3   196  PHE196      0.1605
     83  C         15.7410   15.1170  128.5770 C.2   196  PHE196      0.2264
     84  O         16.6880   14.5220  129.1010 O.2   196  PHE196     -0.2867
     85  CB        14.4600   13.6790  126.8890 C.3   196  PHE196      0.0534
     86  CG        13.2480   12.8110  126.5720 C.ar  196  PHE196     -0.0203
     87  CD1       12.4970   12.2170  127.5850 C.ar  196  PHE196     -0.0042
     88  CD2       12.9230   12.5250  125.2470 C.ar  196  PHE196     -0.0042
     89  CE1       11.3840   11.4300  127.2910 C.ar  196  PHE196     -0.0003
     90  CE2       11.8150   11.7350  124.9160 C.ar  196  PHE196     -0.0003
     91  CZ        11.0330   11.1730  125.9380 C.ar  196  PHE196     -0.0000
@<TRIPOS>BOND
     1    39    40    1
     2    40    43    1
     3    40    41    1
     4    43    44    1
     5    41    42    2
     6    44    46   ar
     7    44    45   ar
     8     1     2    1
     9    46    48   ar
    10    45    47   ar
    11     4     3    2
    12     2     5    1
    13     2     3    1
    14     5     6    1
    15    48    49   ar
    16    47    49   ar
    17    37    36    2
    18    36    35    1
    19    66    65    1
    20    26    25    2
    21    35    38    1
    22    35    34    1
    23    80    78   ar
    24    79    78   ar
    25    67    65    1
    26    65    62    1
    27    78    77    1
    28    25    34   am
    29    25    24    1
    30    33    31   ar
    31    33    32   ar
    32    50    51    1
    33    31    29   ar
    34    61    62    1
    35    61    52   am
    36    62    63    1
    37    32    30   ar
    38    77    76    1
    39    24    23    1
    40    24    27    1
    41    63    64    2
    42    29    28   ar
    43    30    28   ar
    44    28    27    1
    45    54    51    1
    46    54    55    1
    47    51    52    1
    48    76    73    1
    49    52    53    2
    50    57    55   ar
    51    57    59   ar
    52    21    20    2
    53    55    56   ar
    54    59    60   ar
    55    73    72    1
    56    73    74    1
    57    90    88   ar
    58    90    91   ar
    59    20    19    1
    60    16    17   ar
    61    16    14   ar
    62    56    58   ar
    63    88    86   ar
    64    72    70   am
    65    75    74    2
    66    17    15   ar
    67    14    12   ar
    68    60    58   ar
    69    91    89   ar
    70    68    69    1
    71    19    22    1
    72    19    18    1
    73    12    11    1
    74    12    13   ar
    75    70    69    1
    76    70    71    2
    77    15    13   ar
    78    86    85    1
    79    86    87   ar
    80    85    82    1
    81    11     8    1
    82    89    87   ar
    83    82    81    1
    84    82    83    1
    85     8     7    1
    86     8     9    1
    87    83    84    2
    88    10     9    2
