@<TRIPOS>MOLECULE
tmp/2yp1B01.pdb
 95 89 0 0 0
SMALL
GASTEIGER

@<TRIPOS>ATOM
      1  N        -10.8650  -14.2740   23.0730 N.3   127  GLY127     -0.1225
      2  CA       -11.0730  -12.8770   22.7120 C.3   127  GLY127      0.1811
      3  C        -12.4480  -12.5910   22.0930 C.2   127  GLY127      0.2280
      4  O        -13.1110  -13.4980   21.5580 O.2   127  GLY127     -0.2866
      5  N        -15.0550   -9.3450   17.5560 N.3   130  PHE130     -0.1227
      6  CA       -14.5430   -8.1500   16.8950 C.3   130  PHE130      0.1736
      7  C        -13.0410   -8.2820   16.5360 C.2   130  PHE130      0.2595
      8  O        -12.6370   -8.0070   15.4150 O.2   130  PHE130     -0.2718
      9  CB       -14.8060   -6.9020   17.7330 C.3   130  PHE130      0.0547
     10  CG       -14.3730   -5.6370   17.0650 C.ar  130  PHE130     -0.0202
     11  CD1      -15.1990   -5.0070   16.1520 C.ar  130  PHE130     -0.0042
     12  CD2      -13.0980   -5.1330   17.2740 C.ar  130  PHE130     -0.0042
     13  CE1      -14.7690   -3.8730   15.4690 C.ar  130  PHE130     -0.0003
     14  CE2      -12.6610   -3.9910   16.6080 C.ar  130  PHE130     -0.0003
     15  CZ       -13.4900   -3.3760   15.6810 C.ar  130  PHE130     -0.0000
     16  N        -12.2260   -8.7580   17.4680 N.am  131  PHE131     -0.1976
     17  CA       -10.7850   -8.8520   17.2460 C.3   131  PHE131      0.1639
     18  C        -10.3540  -10.0250   16.3560 C.2   131  PHE131      0.2290
     19  O         -9.1830  -10.1520   16.0220 O.2   131  PHE131     -0.2864
     20  CB       -10.0470   -8.9300   18.5860 C.3   131  PHE131      0.0560
     21  CG       -10.4370   -7.8470   19.5480 C.ar  131  PHE131     -0.0200
     22  CD1      -10.2360   -6.5080   19.2230 C.ar  131  PHE131     -0.0042
     23  CD2      -11.0330   -8.1600   20.7590 C.ar  131  PHE131     -0.0042
     24  CE1      -10.6350   -5.4980   20.0920 C.ar  131  PHE131     -0.0003
     25  CE2      -11.4190   -7.1490   21.6510 C.ar  131  PHE131     -0.0003
     26  CZ       -11.2180   -5.8280   21.3220 C.ar  131  PHE131     -0.0000
     27  N        -10.5560  -14.1980   16.1520 N.3   133  ASN133     -0.1240
     28  CA       -10.8130  -15.4930   16.7600 C.3   133  ASN133      0.1653
     29  C        -11.5980  -15.4790   18.0810 C.2   133  ASN133      0.2266
     30  O        -11.0980  -15.0330   19.1150 O.2   133  ASN133     -0.2867
     31  CB        -9.4640  -16.1900   16.9620 C.3   133  ASN133      0.1155
     32  CG        -9.6020  -17.6770   17.1850 C.2   133  ASN133      0.2627
     33  OD1      -10.4060  -18.1330   18.0230 O.2   133  ASN133     -0.2716
     34  ND2       -8.7910  -18.4560   16.4600 N.am  133  ASN133     -0.0877
     35  N         -6.4960  -18.1360   24.4650 N.3   138  ASN138     -0.1240
     36  CA        -5.7020  -16.9300   24.3320 C.3   138  ASN138      0.1653
     37  C         -4.8130  -16.7190   25.5550 C.2   138  ASN138      0.2266
     38  O         -5.2950  -16.5710   26.6860 O.2   138  ASN138     -0.2867
     39  CB        -6.6170  -15.7250   24.1380 C.3   138  ASN138      0.1155
     40  CG        -5.8660  -14.4050   24.1240 C.2   138  ASN138      0.2627
     41  OD1       -5.0770  -14.1080   25.0230 O.2   138  ASN138     -0.2716
     42  ND2       -6.1770  -13.5670   23.1480 N.am  138  ASN138     -0.0877
     43  N         -2.5450  -14.4610   26.6040 N.3   140  THR140     -0.1203
     44  CA        -2.5680  -13.1800   27.3210 C.3   140  THR140      0.1994
     45  C         -3.7560  -13.1170   28.2810 C.2   140  THR140      0.2617
     46  O         -3.6210  -12.6980   29.4210 O.2   140  THR140     -0.2717
     47  CB        -2.6270  -11.9850   26.3550 C.3   140  THR140      0.1784
     48  OG1       -1.5360  -12.0630   25.4370 O.3   140  THR140     -0.2211
     49  CG2       -2.5730  -10.6430   27.1030 C.3   140  THR140      0.0376
     50  N         -4.9090  -13.5990   27.8400 N.am  141  LEU141     -0.1979
     51  CA        -6.0900  -13.5300   28.6810 C.3   141  LEU141      0.1596
     52  C         -5.9800  -14.5570   29.7920 C.2   141  LEU141      0.2287
     53  O         -6.3550  -14.2910   30.9340 O.2   141  LEU141     -0.2864
     54  CB        -7.3640  -13.7560   27.8560 C.3   141  LEU141      0.0297
     55  CG        -7.7640  -12.5910   26.9300 C.3   141  LEU141      0.0022
     56  CD1       -9.0440  -12.9480   26.1300 C.3   141  LEU141      0.0001
     57  CD2       -7.9740  -11.3120   27.7730 C.3   141  LEU141      0.0001
     58  N        -12.8520   -8.0490   32.6020 N.3   169  ARG169     -0.1245
     59  CA       -13.0810   -8.3740   31.1900 C.3   169  ARG169      0.1563
     60  C        -14.1470   -7.4950   30.5330 C.2   169  ARG169      0.2260
     61  O        -14.0470   -7.1680   29.3570 O.2   169  ARG169     -0.2867
     62  CB       -13.4080   -9.8630   31.0130 C.3   169  ARG169      0.0307
     63  CG       -12.2340  -10.7750   31.3820 C.3   169  ARG169      0.0489
     64  CD       -11.0560  -10.5660   30.4130 C.3   169  ARG169      0.2205
     65  NE       -11.4170  -11.0390   29.0910 N.pl3 169  ARG169     -0.0865
     66  CZ       -11.4780  -10.2900   28.0010 C.cat 169  ARG169      0.5346
     67  NH1      -11.0170   -9.0280   28.0200 N.pl3 169  ARG169      0.1354
     68  NH2      -11.9780  -10.8210   26.8780 N.pl3 169  ARG169      0.1354
     69  N        -13.3810   -0.7180   26.7780 N.3   175  ALA175     -0.1231
     70  CA       -12.3070    0.2180   26.4330 C.3   175  ALA175      0.1694
     71  C        -11.7450   -0.0310   25.0330 C.2   175  ALA175      0.2592
     72  O        -11.1180    0.8490   24.4660 O.2   175  ALA175     -0.2718
     73  CB       -11.1740    0.1870   27.4810 C.3   175  ALA175      0.0304
     74  N        -11.9420   -1.2410   24.5020 N.am  176  THR176     -0.1953
     75  CA       -11.2300   -1.6930   23.3040 C.3   176  THR176      0.1897
     76  C        -12.1170   -2.1640   22.1390 C.2   176  THR176      0.2313
     77  O        -11.6640   -2.1960   21.0000 O.2   176  THR176     -0.2863
     78  CB       -10.1750   -2.7850   23.6230 C.3   176  THR176      0.1794
     79  OG1      -10.8060   -3.9800   24.1120 O.3   176  THR176     -0.2208
     80  CG2       -9.1720   -2.2970   24.6480 C.3   176  THR176      0.0378
     81  N        -15.3750   -1.6190   19.9600 N.3   178  PRO178     -0.2116
     82  CA       -16.4110   -0.6190   19.6170 C.3   178  PRO178      0.1372
     83  C        -17.7500   -1.3020   19.3400 C.2   178  PRO178      0.2244
     84  O        -18.7760   -0.6420   19.2690 O.2   178  PRO178     -0.2868
     85  CB       -15.8820    0.0080   18.3230 C.3   178  PRO178      0.0268
     86  CG       -14.9270   -1.0190   17.7620 C.3   178  PRO178      0.0207
     87  CD       -14.2830   -1.6370   18.9770 C.3   178  PRO178      0.0892
     88  N        -15.4100    2.8700   21.0710 N.3   259  ILE259     -0.1245
     89  CA       -14.9870    2.4450   22.3900 C.3   259  ILE259      0.1561
     90  C        -15.4860    3.4270   23.4340 C.2   259  ILE259      0.2260
     91  O        -15.8170    4.5720   23.1130 O.2   259  ILE259     -0.2867
     92  CB       -13.4620    2.3220   22.4790 C.3   259  ILE259      0.0252
     93  CG1      -12.8010    3.6340   22.0450 C.3   259  ILE259      0.0019
     94  CG2      -12.9880    1.2000   21.5740 C.3   259  ILE259      0.0019
     95  CD1      -11.3020    3.6850   22.2740 C.3   259  ILE259      0.0001
@<TRIPOS>BOND
     1     8     7    2
     2    13    15   ar
     3    13    11   ar
     4    15    14   ar
     5    19    18    2
     6    27    28    1
     7    11    10   ar
     8    18    17    1
     9    34    32   am
    10     7     6    1
    11     7    16   am
    12    14    12   ar
    13    28    31    1
    14    28    29    1
    15     6     5    1
    16     6     9    1
    17    31    32    1
    18    10    12   ar
    19    10     9    1
    20    32    33    2
    21    17    16    1
    22    17    20    1
    23    86    85    1
    24    86    87    1
    25    29    30    2
    26    85    82    1
    27    20    21    1
    28    87    81    1
    29    22    21   ar
    30    22    24   ar
    31    84    83    2
    32    83    82    1
    33    21    23   ar
    34    82    81    1
    35    24    26   ar
    36    23    25   ar
    37    77    76    2
    38    88    89    1
    39    26    25   ar
    40     4     3    2
    41    94    92    1
    42    93    95    1
    43    93    92    1
    44     3     2    1
    45    76    75    1
    46    89    92    1
    47    89    90    1
    48     2     1    1
    49    91    90    2
    50    42    40   am
    51    75    78    1
    52    75    74    1
    53    78    79    1
    54    78    80    1
    55    40    39    1
    56    40    41    2
    57    39    36    1
    58    36    35    1
    59    36    37    1
    60    72    71    2
    61    74    71   am
    62    71    70    1
    63    48    47    1
    64    37    38    2
    65    56    55    1
    66    47    49    1
    67    47    44    1
    68    70    69    1
    69    70    73    1
    70    43    44    1
    71    68    66    1
    72    55    57    1
    73    55    54    1
    74    44    45    1
    75    50    45   am
    76    50    51    1
    77    54    51    1
    78    66    67    1
    79    66    65    2
    80    45    46    2
    81    51    52    1
    82    65    64    1
    83    61    60    2
    84    52    53    2
    85    64    63    1
    86    60    59    1
    87    62    59    1
    88    62    63    1
    89    59    58    1
