@<TRIPOS>MOLECULE
tmp/2yp1A01.pdb
 124 118 0 0 0
SMALL
GASTEIGER

@<TRIPOS>ATOM
      1  N         12.6420  -19.0270   44.4130 N.3   127  GLY127     -0.1210
      2  CA        12.7470  -17.6580   44.8880 C.3   127  GLY127      0.1956
      3  C         14.1440  -17.2670   45.3550 C.2   127  GLY127      0.2611
      4  O         14.9310  -18.1180   45.7790 O.2   127  GLY127     -0.2717
      5  N         14.4350  -15.9710   45.3430 N.am  128  ASP128     -0.1973
      6  CA        15.7080  -15.4910   45.8640 C.3   128  ASP128      0.1709
      7  C         15.7300  -15.7260   47.3850 C.2   128  ASP128      0.2293
      8  O         14.7120  -15.5920   48.0450 O.2   128  ASP128     -0.2864
      9  CB        15.8800  -13.9950   45.5790 C.3   128  ASP128      0.1436
     10  CG        15.9930  -13.6670   44.0960 C.2   128  ASP128      0.3671
     11  OD1       16.0950  -14.5900   43.2610 O.co2 128  ASP128     -0.2456
     12  OD2       16.0730  -12.4550   43.7750 O.co2 128  ASP128     -0.2456
     13  N         16.6430  -13.8130   49.7690 N.3   130  PHE130     -0.1227
     14  CA        16.1000  -12.6660   50.4890 C.3   130  PHE130      0.1736
     15  C         14.6390  -12.8710   50.9180 C.2   130  PHE130      0.2595
     16  O         14.2580  -12.5540   52.0540 O.2   130  PHE130     -0.2718
     17  CB        16.2530  -11.3930   49.6630 C.3   130  PHE130      0.0547
     18  CG        15.7260  -10.1670   50.3470 C.ar  130  PHE130     -0.0202
     19  CD1       16.4470   -9.5610   51.3680 C.ar  130  PHE130     -0.0042
     20  CD2       14.4790   -9.6440   50.0080 C.ar  130  PHE130     -0.0042
     21  CE1       15.9210   -8.4580   52.0540 C.ar  130  PHE130     -0.0003
     22  CE2       13.9500   -8.5500   50.6870 C.ar  130  PHE130     -0.0003
     23  CZ        14.6740   -7.9560   51.7060 C.ar  130  PHE130     -0.0000
     24  N         13.8280  -13.4310   50.0270 N.am  131  PHE131     -0.1962
     25  CA        12.4120  -13.6330   50.3170 C.3   131  PHE131      0.1771
     26  C         12.1360  -14.8120   51.2600 C.2   131  PHE131      0.2620
     27  O         11.0340  -14.9340   51.7820 O.2   131  PHE131     -0.2715
     28  CB        11.6030  -13.8000   49.0230 C.3   131  PHE131      0.0574
     29  CG        11.7800  -12.6740   48.0540 C.ar  131  PHE131     -0.0200
     30  CD1       11.5650  -11.3560   48.4530 C.ar  131  PHE131     -0.0042
     31  CD2       12.2220  -12.9190   46.7540 C.ar  131  PHE131     -0.0042
     32  CE1       11.7530  -10.2990   47.5690 C.ar  131  PHE131     -0.0003
     33  CE2       12.4120  -11.8630   45.8620 C.ar  131  PHE131     -0.0003
     34  CZ        12.1520  -10.5530   46.2620 C.ar  131  PHE131     -0.0000
     35  N         13.0860  -15.7320   51.4000 N.am  132  GLY132     -0.1940
     36  CA        13.0710  -16.6210   52.5640 C.3   132  GLY132      0.2014
     37  C         13.0730  -18.1190   52.3260 C.2   132  GLY132      0.2638
     38  O         13.0910  -18.8970   53.2750 O.2   132  GLY132     -0.2714
     39  N         13.0700  -18.5320   51.0670 N.am  133  ASN133     -0.1972
     40  CA        13.1700  -19.9540   50.7080 C.3   133  ASN133      0.1688
     41  C         13.7740  -20.0290   49.3290 C.2   133  ASN133      0.2292
     42  O         13.1070  -19.7010   48.3380 O.2   133  ASN133     -0.2864
     43  CB        11.7880  -20.6230   50.6750 C.3   133  ASN133      0.1181
     44  CG        11.8580  -22.1360   50.4110 C.2   133  ASN133      0.2629
     45  OD1       12.6660  -22.6230   49.6130 O.2   133  ASN133     -0.2716
     46  ND2       10.9630  -22.8750   51.0440 N.am  133  ASN133     -0.0877
     47  N          8.8590  -23.3020   43.2720 N.3   138  ASN138     -0.1240
     48  CA         7.9560  -22.1850   43.4650 C.3   138  ASN138      0.1653
     49  C          7.0150  -22.0620   42.2660 C.2   138  ASN138      0.2266
     50  O          7.4610  -21.9460   41.1220 O.2   138  ASN138     -0.2867
     51  CB         8.7750  -20.9190   43.6630 C.3   138  ASN138      0.1155
     52  CG         7.9460  -19.6760   43.6350 C.2   138  ASN138      0.2627
     53  OD1        7.1060  -19.5000   42.7610 O.2   138  ASN138     -0.2716
     54  ND2        8.2160  -18.7690   44.5660 N.am  138  ASN138     -0.0877
     55  N          4.4170  -20.0150   41.2410 N.3   140  THR140     -0.1203
     56  CA         4.2550  -18.7490   40.5200 C.3   140  THR140      0.1994
     57  C          5.3370  -18.5090   39.4570 C.2   140  THR140      0.2617
     58  O          5.0420  -18.0370   38.3600 O.2   140  THR140     -0.2717
     59  CB         4.2580  -17.5900   41.5200 C.3   140  THR140      0.1784
     60  OG1        3.0910  -17.6850   42.3400 O.3   140  THR140     -0.2211
     61  CG2        4.2720  -16.2390   40.8320 C.3   140  THR140      0.0376
     62  N          6.5850  -18.8490   39.7900 N.am  141  LEU141     -0.1979
     63  CA         7.7040  -18.6860   38.8720 C.3   141  LEU141      0.1596
     64  C          7.6410  -19.7330   37.7260 C.2   141  LEU141      0.2287
     65  O          7.9450  -19.4350   36.5630 O.2   141  LEU141     -0.2864
     66  CB         9.0310  -18.8230   39.6370 C.3   141  LEU141      0.0297
     67  CG         9.3880  -17.7370   40.6550 C.3   141  LEU141      0.0022
     68  CD1       10.6690  -18.1010   41.3750 C.3   141  LEU141      0.0001
     69  CD2        9.5020  -16.3560   39.9570 C.3   141  LEU141      0.0001
     70  N         14.2200  -11.6120   32.1810 N.3   168  LYS168     -0.1231
     71  CA        13.0950  -11.2620   33.0080 C.3   168  LYS168      0.1693
     72  C         13.2860  -11.5720   34.5180 C.2   168  LYS168      0.2591
     73  O         12.8100  -10.8300   35.3670 O.2   168  LYS168     -0.2718
     74  CB        11.8170  -11.8890   32.4500 C.3   168  LYS168      0.0285
     75  CG        10.7010  -11.9120   33.4420 C.3   168  LYS168      0.0035
     76  CD         9.8770  -10.6560   33.3750 C.3   168  LYS168      0.0206
     77  CE         8.5890  -10.8680   34.1940 C.3   168  LYS168      0.1093
     78  NZ         7.8830   -9.5900   34.3870 N.3   168  LYS168     -0.1314
     79  N         13.9230  -12.6950   34.8460 N.am  169  ARG169     -0.1980
     80  CA        14.1980  -13.0480   36.2400 C.3   169  ARG169      0.1597
     81  C         15.2100  -12.0740   36.8830 C.2   169  ARG169      0.2287
     82  O         15.0350  -11.6310   38.0250 O.2   169  ARG169     -0.2864
     83  CB        14.6850  -14.5040   36.3370 C.3   169  ARG169      0.0334
     84  CG        13.5980  -15.5370   36.0460 C.3   169  ARG169      0.0492
     85  CD        12.4520  -15.3960   37.0380 C.3   169  ARG169      0.2205
     86  NE        12.8860  -15.8830   38.3320 N.pl3 169  ARG169     -0.0865
     87  CZ        12.9090  -15.1660   39.4480 C.cat 169  ARG169      0.5346
     88  NH1       12.3380  -13.9670   39.4880 N.pl3 169  ARG169      0.1354
     89  NH2       13.4230  -15.7030   40.5540 N.pl3 169  ARG169      0.1354
     90  N         13.1500   -8.9670   37.3930 N.3   172  ASP172     -0.1239
     91  CA        12.3050   -9.2420   38.5590 C.3   172  ASP172      0.1674
     92  C         13.0660   -8.9730   39.8610 C.2   172  ASP172      0.2266
     93  O         12.5380   -8.3650   40.7920 O.2   172  ASP172     -0.2867
     94  CB        11.8380  -10.7150   38.5620 C.3   172  ASP172      0.1410
     95  CG        10.6260  -10.9650   37.6550 C.2   172  ASP172      0.3668
     96  OD1       10.0940   -9.9820   37.1010 O.co2 172  ASP172     -0.2456
     97  OD2       10.1960  -12.1480   37.5190 O.co2 172  ASP172     -0.2456
     98  N         13.9470   -5.4500   40.6800 N.3   175  ALA175     -0.1231
     99  CA        12.7940   -4.6140   41.0070 C.3   175  ALA175      0.1694
    100  C         12.2380   -4.9270   42.3870 C.2   175  ALA175      0.2592
    101  O         11.3710   -4.2130   42.8620 O.2   175  ALA175     -0.2718
    102  CB        11.6920   -4.7500   39.9340 C.3   175  ALA175      0.0304
    103  N         12.6380   -6.0580   42.9750 N.am  176  THR176     -0.1953
    104  CA        11.9850   -6.5310   44.1910 C.3   176  THR176      0.1897
    105  C         12.9450   -6.9720   45.2910 C.2   176  THR176      0.2313
    106  O         12.5300   -7.2230   46.4160 O.2   176  THR176     -0.2863
    107  CB        11.0070   -7.6940   43.9350 C.3   176  THR176      0.1794
    108  OG1       11.7320   -8.8550   43.4840 O.3   176  THR176     -0.2208
    109  CG2        9.9040   -7.2880   42.9300 C.3   176  THR176      0.0378
    110  N         16.1300   -6.0450   47.3950 N.3   178  PRO178     -0.2116
    111  CA        17.0580   -4.9560   47.6890 C.3   178  PRO178      0.1372
    112  C         18.4500   -5.5020   47.9240 C.2   178  PRO178      0.2244
    113  O         19.4250   -4.7560   47.8730 O.2   178  PRO178     -0.2868
    114  CB        16.4790   -4.3430   48.9820 C.3   178  PRO178      0.0268
    115  CG        15.6600   -5.4500   49.5960 C.3   178  PRO178      0.0207
    116  CD        15.0560   -6.1460   48.4030 C.3   178  PRO178      0.0892
    117  N         15.7390   -1.7070   46.3160 N.3   259  ILE259     -0.1245
    118  CA        15.2950   -2.0930   44.9800 C.3   259  ILE259      0.1561
    119  C         15.6120   -1.0070   43.9510 C.2   259  ILE259      0.2260
    120  O         15.8820    0.1500   44.3000 O.2   259  ILE259     -0.2867
    121  CB        13.7870   -2.3910   44.9420 C.3   259  ILE259      0.0252
    122  CG1       12.9730   -1.1250   45.2370 C.3   259  ILE259      0.0019
    123  CG2       13.4320   -3.5160   45.9160 C.3   259  ILE259      0.0019
    124  CD1       11.4560   -1.3330   45.1240 C.3   259  ILE259      0.0001
@<TRIPOS>BOND
     1    70    71    1
     2    74    71    1
     3    74    75    1
     4    71    72    1
     5    76    75    1
     6    76    77    1
     7    77    78    1
     8    72    79   am
     9    72    73    2
    10    79    80    1
    11    84    83    1
    12    84    85    1
    13    80    83    1
    14    80    81    1
    15    65    64    2
    16    81    82    2
    17    85    86    1
    18    96    95   ar
    19    90    91    1
    20    97    95   ar
    21    95    94    1
    22    64    63    1
    23    86    87    2
    24    58    57    2
    25    91    94    1
    26    91    92    1
    27    63    66    1
    28    63    62    1
    29    87    88    1
    30    87    89    1
    31    57    62   am
    32    57    56    1
    33    66    67    1
    34    92    93    2
    35   102    99    1
    36    69    67    1
    37    56    55    1
    38    56    59    1
    39    67    68    1
    40    98    99    1
    41    61    59    1
    42    99   100    1
    43    50    49    2
    44    59    60    1
    45    49    48    1
    46   100   101    2
    47   100   103   am
    48    53    52    2
    49   109   107    1
    50   103   104    1
    51    11    10   ar
    52    47    48    1
    53    48    51    1
    54   108   107    1
    55    52    51    1
    56    52    54   am
    57    12    10   ar
    58   107   104    1
    59   119   120    2
    60   119   118    1
    61    10     9    1
    62   104   105    1
    63     1     2    1
    64     2     3    1
    65   121   118    1
    66   121   122    1
    67   121   123    1
    68   118   117    1
    69   124   122    1
    70   105   106    2
    71     5     3   am
    72     5     6    1
    73     3     4    2
    74     9     6    1
    75    33    34   ar
    76    33    31   ar
    77     6     7    1
    78    34    32   ar
    79    31    29   ar
    80     7     8    2
    81   110   111    1
    82   110   116    1
    83    32    30   ar
    84   111   112    1
    85   111   114    1
    86   113   112    2
    87    29    30   ar
    88    29    28    1
    89    42    41    2
    90   116   115    1
    91   114   115    1
    92    28    25    1
    93    41    40    1
    94    45    44    2
    95    17    18    1
    96    17    14    1
    97    13    14    1
    98    20    18   ar
    99    20    22   ar
   100    24    25    1
   101    24    15   am
   102    25    26    1
   103    18    19   ar
   104    44    43    1
   105    44    46   am
   106    14    15    1
   107    43    40    1
   108    22    23   ar
   109    40    39    1
   110    15    16    2
   111    39    37   am
   112    26    35   am
   113    26    27    2
   114    19    21   ar
   115    35    36    1
   116    23    21   ar
   117    37    36    1
   118    37    38    2
