@<TRIPOS>MOLECULE
tmp/2yp1D03.pdb
 77 74 0 0 0
SMALL
GASTEIGER

@<TRIPOS>ATOM
      1  N        -50.6160  -12.2230   44.4620 N.3   150  ASN150     -0.1225
      2  CA       -51.6130  -11.8020   43.4880 C.3   150  ASN150      0.1785
      3  C        -51.0690  -10.6930   42.6170 C.2   150  ASN150      0.2597
      4  O        -51.3090  -10.6570   41.4110 O.2   150  ASN150     -0.2718
      5  CB       -52.8950  -11.3200   44.1950 C.3   150  ASN150      0.1169
      6  CG       -53.7430  -12.4660   44.7000 C.2   150  ASN150      0.2627
      7  OD1      -53.7300  -13.5500   44.1290 O.2   150  ASN150     -0.2716
      8  ND2      -54.4750  -12.2370   45.7790 N.am  150  ASN150     -0.0877
      9  N        -50.3690   -9.7560   43.2380 N.am  151  ARG151     -0.1966
     10  CA       -49.8640   -8.6080   42.5050 C.3   151  ARG151      0.1729
     11  C        -48.7740   -8.9910   41.4930 C.2   151  ARG151      0.2616
     12  O        -48.6780   -8.3800   40.4200 O.2   151  ARG151     -0.2715
     13  CB       -49.3540   -7.5420   43.4720 C.3   151  ARG151      0.0348
     14  CG       -50.4650   -6.8010   44.2230 C.3   151  ARG151      0.0492
     15  CD       -49.8770   -5.8000   45.2100 C.3   151  ARG151      0.2205
     16  NE       -49.1410   -4.7340   44.5350 N.pl3 151  ARG151     -0.0865
     17  CZ       -48.3420   -3.8670   45.1520 C.cat 151  ARG151      0.5346
     18  NH1      -48.1610   -3.9380   46.4690 N.pl3 151  ARG151      0.1354
     19  NH2      -47.7320   -2.9170   44.4540 N.pl3 151  ARG151      0.1354
     20  N        -47.9660   -9.9990   41.8320 N.am  152  PHE152     -0.1960
     21  CA       -46.6800  -10.1830   41.1730 C.3   152  PHE152      0.1771
     22  C        -46.4640  -11.5990   40.6560 C.2   152  PHE152      0.2620
     23  O        -45.6030  -11.8220   39.8180 O.2   152  PHE152     -0.2715
     24  CB       -45.5150   -9.7710   42.0830 C.3   152  PHE152      0.0574
     25  CG       -45.4360   -8.2960   42.3430 C.ar  152  PHE152     -0.0200
     26  CD1      -45.0180   -7.4240   41.3490 C.ar  152  PHE152     -0.0042
     27  CD2      -45.7270   -7.7870   43.6080 C.ar  152  PHE152     -0.0042
     28  CE1      -44.9170   -6.0680   41.5900 C.ar  152  PHE152     -0.0003
     29  CE2      -45.6530   -6.4290   43.8640 C.ar  152  PHE152     -0.0003
     30  CZ       -45.2680   -5.5600   42.8390 C.ar  152  PHE152     -0.0000
     31  N        -47.2700  -12.5420   41.1170 N.am  153  GLY153     -0.1940
     32  CA       -47.1020  -13.9350   40.7220 C.3   153  GLY153      0.2014
     33  C        -48.3920  -14.5620   40.2150 C.2   153  GLY153      0.2639
     34  O        -48.5820  -15.7720   40.3240 O.2   153  GLY153     -0.2714
     35  N        -49.2670  -13.7410   39.6350 N.am  154  GLY154     -0.1954
     36  CA       -50.5640  -14.2250   39.1380 C.3   154  GLY154      0.1869
     37  C        -51.3460  -15.0410   40.1620 C.2   154  GLY154      0.2309
     38  O        -52.1270  -15.9150   39.8080 O.2   154  GLY154     -0.2863
     39  N        -43.9060  -16.9430   43.6010 N.3   158  ASN158     -0.1225
     40  CA       -42.7090  -17.3370   42.8730 C.3   158  ASN158      0.1785
     41  C        -41.5590  -16.3570   43.0810 C.2   158  ASN158      0.2597
     42  O        -41.6870  -15.3870   43.8370 O.2   158  ASN158     -0.2718
     43  CB       -43.0310  -17.5160   41.3760 C.3   158  ASN158      0.1169
     44  CG       -43.4030  -16.2130   40.6940 C.2   158  ASN158      0.2627
     45  OD1      -43.1470  -15.1260   41.2170 O.2   158  ASN158     -0.2716
     46  ND2      -44.0130  -16.3200   39.5010 N.am  158  ASN158     -0.0877
     47  N        -40.4470  -16.5920   42.3870 N.am  159  LEU159     -0.1966
     48  CA       -39.2380  -15.8350   42.6460 C.3   159  LEU159      0.1728
     49  C        -39.4040  -14.3330   42.4460 C.2   159  LEU159      0.2616
     50  O        -38.7940  -13.5490   43.1630 O.2   159  LEU159     -0.2715
     51  CB       -38.0670  -16.3780   41.8270 C.3   159  LEU159      0.0311
     52  CG       -37.4260  -17.6770   42.3240 C.3   159  LEU159      0.0022
     53  CD1      -36.0990  -17.8950   41.6040 C.3   159  LEU159      0.0001
     54  CD2      -37.2200  -17.6340   43.8330 C.3   159  LEU159      0.0001
     55  N        -40.2550  -13.9240   41.5060 N.am  160  THR160     -0.1951
     56  CA       -40.5870  -12.5070   41.3580 C.3   160  THR160      0.1897
     57  C        -41.3370  -11.9600   42.5770 C.2   160  THR160      0.2313
     58  O        -41.1150  -10.8240   42.9870 O.2   160  THR160     -0.2863
     59  CB       -41.4480  -12.2520   40.1170 C.3   160  THR160      0.1794
     60  OG1      -40.8910  -12.9520   38.9990 O.3   160  THR160     -0.2208
     61  CG2      -41.5300  -10.7560   39.8070 C.3   160  THR160      0.0378
     62  N        -43.9730  -22.2680   41.1320 N.3   210  GLN210     -0.1245
     63  CA       -45.1610  -21.4760   41.4440 C.3   210  GLN210      0.1566
     64  C        -45.9490  -22.1020   42.5980 C.2   210  GLN210      0.2260
     65  O        -46.4480  -23.2270   42.4910 O.2   210  GLN210     -0.2867
     66  CB       -46.0490  -21.2830   40.2120 C.3   210  GLN210      0.0367
     67  CG       -45.2900  -21.1090   38.8900 C.3   210  GLN210      0.0905
     68  CD       -44.5930  -19.7750   38.7840 C.2   210  GLN210      0.2608
     69  OE1      -45.1960  -18.7220   38.9880 O.2   210  GLN210     -0.2717
     70  NE2      -43.3250  -19.8070   38.3810 N.am  210  GLN210     -0.0878
     71  N        -32.0360  -13.2850   41.9050 N.3   243  VAL243     -0.1245
     72  CA       -33.2580  -12.5940   41.4700 C.3   243  VAL243      0.1561
     73  C        -33.8420  -11.7450   42.5990 C.2   243  VAL243      0.2260
     74  O        -34.1640  -10.5640   42.4150 O.2   243  VAL243     -0.2867
     75  CB       -34.3350  -13.6300   41.0400 C.3   243  VAL243      0.0252
     76  CG1      -35.6180  -12.9400   40.5920 C.3   243  VAL243      0.0019
     77  CG2      -33.7910  -14.5500   39.9510 C.3   243  VAL243      0.0019
@<TRIPOS>BOND
     1    70    68   am
     2    68    67    1
     3    68    69    2
     4    67    66    1
     5    60    59    1
     6    36    35    1
     7    36    37    1
     8    46    44   am
     9    35    33   am
    10    61    59    1
    11    38    37    2
    12    23    22    2
    13    77    75    1
    14    59    56    1
    15    66    63    1
    16    33    34    2
    17    33    32    1
    18    12    11    2
    19    76    75    1
    20    22    31   am
    21    22    21    1
    22    44    45    2
    23    44    43    1
    24    32    31    1
    25    75    72    1
    26    62    63    1
    27    21    20    1
    28    21    24    1
    29    26    28   ar
    30    26    25   ar
    31    56    55    1
    32    56    57    1
    33    43    40    1
    34     4     3    2
    35    63    64    1
    36    72    71    1
    37    72    73    1
    38    11    20   am
    39    11    10    1
    40    55    49   am
    41    28    30   ar
    42    53    52    1
    43    51    52    1
    44    51    48    1
    45    24    25    1
    46    52    54    1
    47    25    27   ar
    48    47    48    1
    49    47    41   am
    50    74    73    2
    51    49    48    1
    52    49    50    2
    53    65    64    2
    54    10     9    1
    55    10    13    1
    56    57    58    2
    57     3     9   am
    58     3     2    1
    59    30    29   ar
    60    40    41    1
    61    40    39    1
    62    41    42    2
    63    13    14    1
    64     2     5    1
    65     2     1    1
    66    27    29   ar
    67     7     6    2
    68     5     6    1
    69    14    15    1
    70    19    17    1
    71    16    17    2
    72    16    15    1
    73     6     8   am
    74    17    18    1
