@<TRIPOS>MOLECULE
tmp/2yp1A02.pdb
 73 70 0 0 0
SMALL
GASTEIGER

@<TRIPOS>ATOM
      1  N          4.7920  -17.9020   24.9440 N.3   151  ARG151     -0.1231
      2  CA         5.0150  -16.6670   24.1890 C.3   151  ARG151      0.1694
      3  C          6.1970  -16.7530   23.2010 C.2   151  ARG151      0.2592
      4  O          6.1440  -16.1870   22.1200 O.2   151  ARG151     -0.2718
      5  CB         5.1570  -15.4540   25.1210 C.3   151  ARG151      0.0321
      6  CG         3.8860  -15.0900   25.9030 C.3   151  ARG151      0.0489
      7  CD         4.2550  -14.3340   27.1830 C.3   151  ARG151      0.2205
      8  NE         4.9220  -13.0810   26.8760 N.pl3 151  ARG151     -0.0865
      9  CZ         5.0300  -12.0700   27.7340 C.cat 151  ARG151      0.5346
     10  NH1        4.5920  -12.2050   28.9780 N.pl3 151  ARG151      0.1354
     11  NH2        5.5730  -10.9210   27.3490 N.pl3 151  ARG151      0.1354
     12  N          7.2450  -17.4900   23.5410 N.am  152  PHE152     -0.1962
     13  CA         8.4770  -17.4250   22.7380 C.3   152  PHE152      0.1771
     14  C          8.9120  -18.7700   22.1910 C.2   152  PHE152      0.2620
     15  O          9.9150  -18.8630   21.4950 O.2   152  PHE152     -0.2715
     16  CB         9.6220  -16.8170   23.5700 C.3   152  PHE152      0.0574
     17  CG         9.3280  -15.4400   24.0680 C.ar  152  PHE152     -0.0200
     18  CD1        9.0890  -14.4000   23.1690 C.ar  152  PHE152     -0.0042
     19  CD2        9.1970  -15.1910   25.4200 C.ar  152  PHE152     -0.0042
     20  CE1        8.8020  -13.1120   23.6280 C.ar  152  PHE152     -0.0003
     21  CE2        8.8920  -13.9170   25.8800 C.ar  152  PHE152     -0.0003
     22  CZ         8.7170  -12.8740   24.9850 C.ar  152  PHE152     -0.0000
     23  N          8.1910  -19.8210   22.5520 N.am  153  GLY153     -0.1940
     24  CA         8.6680  -21.1710   22.3270 C.3   153  GLY153      0.2014
     25  C          7.6030  -22.0030   21.6310 C.2   153  GLY153      0.2639
     26  O          7.7720  -23.2120   21.4510 O.2   153  GLY153     -0.2714
     27  N          6.5220  -21.3470   21.2190 N.am  154  GLY154     -0.1954
     28  CA         5.3470  -22.0360   20.6780 C.3   154  GLY154      0.1869
     29  C          4.7340  -23.0670   21.6250 C.2   154  GLY154      0.2309
     30  O          4.2090  -24.0900   21.1930 O.2   154  GLY154     -0.2863
     31  N         12.6060  -23.5180   25.0000 N.3   158  ASN158     -0.1225
     32  CA        13.7760  -23.6700   24.1420 C.3   158  ASN158      0.1785
     33  C         14.7410  -22.5160   24.3520 C.2   158  ASN158      0.2597
     34  O         14.4900  -21.6900   25.2230 O.2   158  ASN158     -0.2718
     35  CB        13.3830  -23.8790   22.6660 C.3   158  ASN158      0.1169
     36  CG        12.7720  -22.6630   22.0210 C.2   158  ASN158      0.2627
     37  OD1       12.9160  -21.5270   22.4980 O.2   158  ASN158     -0.2716
     38  ND2       12.1170  -22.8870   20.8660 N.am  158  ASN158     -0.0877
     39  N         15.8760  -22.4990   23.6450 N.am  159  LEU159     -0.1966
     40  CA        16.9000  -21.4590   23.9070 C.3   159  LEU159      0.1728
     41  C         16.3720  -20.0360   23.7590 C.2   159  LEU159      0.2616
     42  O         16.8470  -19.1160   24.4240 O.2   159  LEU159     -0.2715
     43  CB        18.1630  -21.6430   23.0590 C.3   159  LEU159      0.0311
     44  CG        18.9990  -22.8940   23.3180 C.3   159  LEU159      0.0022
     45  CD1       20.2590  -22.9040   22.4600 C.3   159  LEU159      0.0001
     46  CD2       19.3530  -23.0370   24.7880 C.3   159  LEU159      0.0001
     47  N         15.4210  -19.8350   22.8580 N.am  160  THR160     -0.1951
     48  CA        14.8380  -18.5030   22.6950 C.3   160  THR160      0.1897
     49  C         14.0400  -18.1200   23.9570 C.2   160  THR160      0.2313
     50  O         14.1340  -16.9970   24.4360 O.2   160  THR160     -0.2863
     51  CB        13.9450  -18.4060   21.4460 C.3   160  THR160      0.1794
     52  OG1       14.6880  -18.7610   20.2750 O.3   160  THR160     -0.2208
     53  CG2       13.3910  -16.9690   21.2660 C.3   160  THR160      0.0378
     54  N         15.7480  -29.7220   21.1840 N.3   209  GLY209     -0.1210
     55  CA        15.8490  -28.4450   21.8920 C.3   209  GLY209      0.1956
     56  C         14.5030  -27.8540   22.3100 C.2   209  GLY209      0.2611
     57  O         14.4370  -26.6820   22.6640 O.2   209  GLY209     -0.2717
     58  N         13.4220  -28.6340   22.2240 N.am  210  GLN210     -0.1979
     59  CA        12.0770  -28.1220   22.5380 C.3   210  GLN210      0.1601
     60  C         11.4770  -28.9380   23.6810 C.2   210  GLN210      0.2287
     61  O         11.0530  -30.0750   23.4850 O.2   210  GLN210     -0.2864
     62  CB        11.1230  -28.1870   21.3200 C.3   210  GLN210      0.0394
     63  CG        11.7370  -27.8160   19.9680 C.3   210  GLN210      0.0908
     64  CD        12.2740  -26.3890   19.9350 C.2   210  GLN210      0.2608
     65  OE1       11.5440  -25.4310   20.2050 O.2   210  GLN210     -0.2717
     66  NE2       13.5640  -26.2460   19.6210 N.am  210  GLN210     -0.0878
     67  N         23.6700  -17.6570   22.9980 N.3   243  VAL243     -0.1245
     68  CA        22.3400  -17.2140   22.5760 C.3   243  VAL243      0.1561
     69  C         21.6250  -16.5110   23.7250 C.2   243  VAL243      0.2260
     70  O         21.0770  -15.4180   23.5630 O.2   243  VAL243     -0.2867
     71  CB        21.4910  -18.4140   22.0870 C.3   243  VAL243      0.0252
     72  CG1       20.1230  -17.9760   21.6820 C.3   243  VAL243      0.0019
     73  CG2       22.2080  -19.1000   20.9150 C.3   243  VAL243      0.0019
@<TRIPOS>BOND
     1    66    64   am
     2    64    63    1
     3    64    65    2
     4    63    62    1
     5    52    51    1
     6    28    27    1
     7    28    29    1
     8    38    36   am
     9    73    71    1
    10    54    55    1
    11    30    29    2
    12    27    25   am
    13    53    51    1
    14    62    59    1
    15    51    48    1
    16    26    25    2
    17    15    14    2
    18    25    24    1
    19    72    71    1
    20    55    56    1
    21    36    37    2
    22    36    35    1
    23    71    68    1
    24     4     3    2
    25    14    23   am
    26    14    13    1
    27    58    56   am
    28    58    59    1
    29    56    57    2
    30    24    23    1
    31    45    44    1
    32    59    60    1
    33    68    67    1
    34    68    69    1
    35    35    32    1
    36    48    47    1
    37    48    49    1
    38    13    12    1
    39    13    16    1
    40    47    41   am
    41    43    44    1
    42    43    40    1
    43    18    20   ar
    44    18    17   ar
    45     3    12   am
    46     3     2    1
    47    44    46    1
    48    61    60    2
    49    70    69    2
    50    16    17    1
    51    20    22   ar
    52    39    40    1
    53    39    33   am
    54    41    40    1
    55    41    42    2
    56    49    50    2
    57    17    19   ar
    58    32    33    1
    59    32    31    1
    60     2     1    1
    61     2     5    1
    62    33    34    2
    63    22    21   ar
    64     5     6    1
    65    19    21   ar
    66     6     7    1
    67     8     7    1
    68     8     9    2
    69    11     9    1
    70     9    10    1
