@<TRIPOS>MOLECULE
tmp/2yp2A06.pdb
 96 92 0 0 0
SMALL
GASTEIGER

@<TRIPOS>ATOM
      1  N         27.4020  -38.1220  -76.1530 N.3    58  THR58      -0.1218
      2  CA        28.4560  -37.3220  -75.5640 C.3    58  THR58       0.1862
      3  C         28.0810  -35.8500  -75.7210 C.2    58  THR58       0.2287
      4  O         27.2090  -35.4970  -76.5440 O.2    58  THR58      -0.2866
      5  CB        29.7830  -37.5900  -76.2550 C.3    58  THR58       0.1770
      6  OG1       29.7000  -37.1140  -77.5970 O.3    58  THR58      -0.2211
      7  CG2       30.1130  -39.1120  -76.2480 C.3    58  THR58       0.0375
      8  N         28.2770  -42.5150  -81.0860 N.3    88  SER88      -0.1217
      9  CA        27.9700  -41.6170  -82.1950 C.3    88  SER88       0.1889
     10  C         27.1910  -42.3440  -83.2780 C.2    88  SER88       0.2288
     11  O         27.4600  -43.5100  -83.5740 O.2    88  SER88      -0.2866
     12  CB        29.2530  -41.0440  -82.7880 C.3    88  SER88       0.2089
     13  OG        29.9300  -40.2560  -81.8300 O.3    88  SER88      -0.2183
     14  N         31.0860  -40.2140  -89.4900 N.3    92  PRO92      -0.2102
     15  CA        32.2610  -40.3720  -88.6500 C.3    92  PRO92       0.1504
     16  C         33.1090  -39.1010  -88.6170 C.2    92  PRO92       0.2576
     17  O         33.3100  -38.4380  -89.6420 O.2    92  PRO92      -0.2718
     18  CB        33.0310  -41.5500  -89.2810 C.3    92  PRO92       0.0282
     19  CG        32.4060  -41.7770  -90.6170 C.3    92  PRO92       0.0208
     20  CD        31.0050  -41.2570  -90.5300 C.3    92  PRO92       0.0893
     21  N         33.5490  -38.7300  -87.4260 N.am   93  TYR93      -0.1963
     22  CA        34.3050  -37.5080  -87.2790 C.3    93  TYR93       0.1771
     23  C         35.4090  -37.6720  -86.2510 C.2    93  TYR93       0.2619
     24  O         35.4050  -38.6100  -85.4610 O.2    93  TYR93      -0.2715
     25  CB        33.3550  -36.3590  -86.8880 C.3    93  TYR93       0.0574
     26  CG        32.8210  -36.4550  -85.4750 C.ar   93  TYR93      -0.0198
     27  CD1       31.6670  -37.1680  -85.1990 C.ar   93  TYR93      -0.0009
     28  CD2       33.4920  -35.8450  -84.4050 C.ar   93  TYR93      -0.0009
     29  CE1       31.1710  -37.2720  -83.9040 C.ar   93  TYR93       0.0417
     30  CE2       33.0110  -35.9490  -83.1020 C.ar   93  TYR93       0.0417
     31  CZ        31.8470  -36.6630  -82.8520 C.ar   93  TYR93       0.1957
     32  OH        31.3410  -36.7720  -81.5710 O.3    93  TYR93      -0.2866
     33  N         36.3770  -36.7650  -86.3040 N.am   94  ASP94      -0.1971
     34  CA        37.3180  -36.5930  -85.2120 C.3    94  ASP94       0.1709
     35  C         37.4560  -35.1050  -84.9170 C.2    94  ASP94       0.2293
     36  O         37.1150  -34.2630  -85.7550 O.2    94  ASP94      -0.2864
     37  CB        38.6670  -37.2070  -85.5540 C.3    94  ASP94       0.1436
     38  CG        39.1900  -36.7450  -86.8880 C.2    94  ASP94       0.3671
     39  OD1       39.5700  -35.5600  -86.9890 O.co2  94  ASP94      -0.2456
     40  OD2       39.2160  -37.5700  -87.8440 O.co2  94  ASP94      -0.2456
     41  N         40.0550  -32.7480  -79.1280 N.3    98  TYR98      -0.1241
     42  CA        38.7610  -33.1300  -78.5730 C.3    98  TYR98       0.1605
     43  C         38.6310  -32.7540  -77.0930 C.2    98  TYR98       0.2264
     44  O         37.6340  -32.1500  -76.6890 O.2    98  TYR98      -0.2867
     45  CB        38.5990  -34.6490  -78.7350 C.3    98  TYR98       0.0534
     46  CG        37.2500  -35.1940  -78.3060 C.ar   98  TYR98      -0.0201
     47  CD1       37.0000  -35.5150  -76.9740 C.ar   98  TYR98      -0.0009
     48  CD2       36.2320  -35.4060  -79.2320 C.ar   98  TYR98      -0.0009
     49  CE1       35.7590  -36.0160  -76.5730 C.ar   98  TYR98       0.0417
     50  CE2       34.9940  -35.9110  -78.8360 C.ar   98  TYR98       0.0417
     51  CZ        34.7670  -36.2070  -77.4960 C.ar   98  TYR98       0.1957
     52  OH        33.5490  -36.7260  -77.0810 O.3    98  TYR98      -0.2866
     53  N         33.6130  -46.7930  -90.8660 N.3   216  VAL216     -0.1231
     54  CA        32.8790  -46.6420  -89.6220 C.3   216  VAL216      0.1692
     55  C         31.4230  -46.4170  -90.0330 C.2   216  VAL216      0.2591
     56  O         31.1220  -45.5030  -90.8040 O.2   216  VAL216     -0.2718
     57  CB        33.3980  -45.4500  -88.8090 C.3   216  VAL216      0.0266
     58  CG1       32.4210  -45.1030  -87.6860 C.3   216  VAL216      0.0020
     59  CG2       34.7990  -45.7460  -88.2650 C.3   216  VAL216      0.0020
     60  N         30.5340  -47.2610  -89.5210 N.am  217  ARG217     -0.1980
     61  CA        29.1330  -47.2630  -89.9330 C.3   217  ARG217      0.1597
     62  C         29.0570  -47.1840  -91.4670 C.2   217  ARG217      0.2287
     63  O         28.2940  -46.4120  -92.0420 O.2   217  ARG217     -0.2864
     64  CB        28.3730  -46.1470  -89.1990 C.3   217  ARG217      0.0334
     65  CG        28.4720  -46.2820  -87.6700 C.3   217  ARG217      0.0492
     66  CD        27.7160  -45.2060  -86.8890 C.3   217  ARG217      0.2205
     67  NE        28.3220  -43.8770  -87.0070 N.pl3 217  ARG217     -0.0865
     68  CZ        29.4020  -43.4580  -86.3470 C.cat 217  ARG217      0.5346
     69  NH1       30.0450  -44.2500  -85.4920 N.pl3 217  ARG217      0.1354
     70  NH2       29.8560  -42.2270  -86.5460 N.pl3 217  ARG217      0.1354
     71  N         35.9030  -39.0880  -93.6080 N.3   222  ARG222     -0.1245
     72  CA        35.8820  -38.4820  -92.2770 C.3   222  ARG222      0.1563
     73  C         35.5640  -36.9930  -92.3570 C.2   222  ARG222      0.2260
     74  O         35.7950  -36.3520  -93.3820 O.2   222  ARG222     -0.2867
     75  CB        37.2520  -38.6310  -91.5950 C.3   222  ARG222      0.0307
     76  CG        37.6820  -40.0620  -91.3070 C.3   222  ARG222      0.0489
     77  CD        36.8170  -40.7370  -90.2390 C.3   222  ARG222      0.2205
     78  NE        37.3970  -42.0380  -89.8750 N.pl3 222  ARG222     -0.0865
     79  CZ        37.0030  -43.2210  -90.3490 C.cat 222  ARG222      0.5346
     80  NH1       35.9930  -43.3160  -91.2350 N.pl3 222  ARG222      0.1354
     81  NH2       37.6280  -44.3220  -89.9480 N.pl3 222  ARG222      0.1354
     82  N         41.1160  -42.7880  -70.8620 N.3   388  SER388     -0.1202
     83  CA        40.8970  -43.9950  -71.6700 C.3   388  SER388      0.2020
     84  C         41.9970  -44.2800  -72.7130 C.2   388  SER388      0.2618
     85  O         42.0840  -45.4060  -73.2190 O.2   388  SER388     -0.2717
     86  CB        39.5420  -43.8970  -72.3470 C.3   388  SER388      0.2103
     87  OG        39.5100  -42.7700  -73.2020 O.3   388  SER388     -0.2182
     88  N         42.8350  -43.2880  -73.0230 N.am  389  GLU389     -0.1979
     89  CA        43.9400  -43.4680  -73.9810 C.3   389  GLU389      0.1602
     90  C         45.2760  -43.0980  -73.3650 C.2   389  GLU389      0.2287
     91  O         45.3460  -42.2750  -72.4550 O.2   389  GLU389     -0.2864
     92  CB        43.7570  -42.5990  -75.2360 C.3   389  GLU389      0.0415
     93  CG        42.6250  -43.0330  -76.1410 C.3   389  GLU389      0.1163
     94  CD        41.2830  -42.5940  -75.6200 C.2   389  GLU389      0.3649
     95  OE1       41.1690  -41.4050  -75.2380 O.co2 389  GLU389     -0.2457
     96  OE2       40.3510  -43.4360  -75.5840 O.co2 389  GLU389     -0.2457
@<TRIPOS>BOND
     1    71    72    1
     2    74    73    2
     3    73    72    1
     4    72    75    1
     5    63    62    2
     6    75    76    1
     7    62    61    1
     8    76    77    1
     9    80    79    1
    10    53    54    1
    11    56    55    2
    12    19    20    1
    13    19    18    1
    14    20    14    1
    15    79    81    1
    16    79    78    2
    17    77    78    1
    18    55    54    1
    19    55    60   am
    20    61    60    1
    21    61    64    1
    22    17    16    2
    23    54    57    1
    24    14    15    1
    25    18    15    1
    26    64    65    1
    27    57    59    1
    28    57    58    1
    29    15    16    1
    30    16    21   am
    31    40    38   ar
    32    65    66    1
    33    21    22    1
    34    22    25    1
    35    22    23    1
    36    67    66    1
    37    67    68    2
    38    39    38   ar
    39    38    37    1
    40    25    26    1
    41    70    68    1
    42    68    69    1
    43    33    23   am
    44    33    34    1
    45    23    24    2
    46    36    35    2
    47    37    34    1
    48    26    27   ar
    49    26    28   ar
    50    34    35    1
    51    27    29   ar
    52    28    30   ar
    53    29    31   ar
    54    11    10    2
    55    10     9    1
    56    30    31   ar
    57    31    32    1
    58    12     9    1
    59    12    13    1
    60     9     8    1
    61    48    50   ar
    62    48    46   ar
    63    41    42    1
    64    50    51   ar
    65    45    42    1
    66    45    46    1
    67    42    43    1
    68    46    47   ar
    69     6     5    1
    70    51    52    1
    71    51    49   ar
    72    43    44    2
    73    47    49   ar
    74     4     3    2
    75     5     7    1
    76     5     2    1
    77     1     2    1
    78    93    94    1
    79    93    92    1
    80     3     2    1
    81    94    96   ar
    82    94    95   ar
    83    92    89    1
    84    89    90    1
    85    89    88    1
    86    90    91    2
    87    85    84    2
    88    87    86    1
    89    88    84   am
    90    84    83    1
    91    86    83    1
    92    83    82    1
