@<TRIPOS>MOLECULE
tmp/2yp3A07.pdb
 144 139 0 0 0
SMALL
GASTEIGER

@<TRIPOS>ATOM
      1  N        -47.6840    4.7850   89.1930 N.3    91  TYR91      -0.1241
      2  CA       -48.3610    5.7480   90.0630 C.3    91  TYR91       0.1605
      3  C        -49.1590    6.7410   89.2240 C.2    91  TYR91       0.2264
      4  O        -48.6620    7.2250   88.1840 O.2    91  TYR91      -0.2867
      5  CB       -47.3700    6.4830   90.9670 C.3    91  TYR91       0.0534
      6  CG       -47.9420    6.8830   92.3240 C.ar   91  TYR91      -0.0201
      7  CD1      -47.9340    5.9860   93.4000 C.ar   91  TYR91      -0.0009
      8  CD2      -48.4590    8.1590   92.5350 C.ar   91  TYR91      -0.0009
      9  CE1      -48.4420    6.3430   94.6450 C.ar   91  TYR91       0.0417
     10  CE2      -48.9670    8.5340   93.7740 C.ar   91  TYR91       0.0417
     11  CZ       -48.9490    7.6190   94.8310 C.ar   91  TYR91       0.1957
     12  OH       -49.4510    7.9910   96.0530 O.3    91  TYR91      -0.2866
     13  N        -38.9000    5.3880   97.6110 N.3   127  GLY127     -0.1210
     14  CA       -40.2860    5.0310   97.9280 C.3   127  GLY127      0.1956
     15  C        -40.9170    4.2460   96.7850 C.2   127  GLY127      0.2613
     16  O        -40.5900    4.4760   95.5970 O.2   127  GLY127     -0.2717
     17  N        -41.8200    3.3240   97.1300 N.am  128  THR128     -0.1938
     18  CA       -42.4850    2.4870   96.1400 C.3   128  THR128      0.2028
     19  C        -43.9760    2.4010   96.4060 C.2   128  THR128      0.2643
     20  O        -44.4660    2.9510   97.3990 O.2   128  THR128     -0.2714
     21  CB       -41.8770    1.0720   96.1060 C.3   128  THR128      0.1808
     22  OG1      -42.0960    0.4250   97.3630 O.3   128  THR128     -0.2208
     23  CG2      -40.3690    1.1310   95.8180 C.3   128  THR128      0.0379
     24  N        -44.6870    1.7230   95.4980 N.am  129  SER129     -0.1935
     25  CA       -46.1390    1.5700   95.5750 C.3   129  SER129      0.2055
     26  C        -46.6420    0.2950   94.8910 C.2   129  SER129      0.2643
     27  O        -46.0280   -0.1950   93.9290 O.2   129  SER129     -0.2714
     28  CB       -46.8140    2.7930   94.9410 C.3   129  SER129      0.2130
     29  OG       -48.2110    2.6130   94.8300 O.3   129  SER129     -0.2179
     30  N        -47.7790   -0.2130   95.3780 N.am  130  SER130     -0.1949
     31  CA       -48.4560   -1.3740   94.7840 C.3   130  SER130      0.1924
     32  C        -49.1420   -1.0100   93.4790 C.2   130  SER130      0.2314
     33  O        -49.4840   -1.8870   92.6910 O.2   130  SER130     -0.2863
     34  CB       -49.5090   -1.9500   95.7480 C.3   130  SER130      0.2116
     35  OG       -50.4420   -0.9480   96.1280 O.3   130  SER130     -0.2180
     36  N        -43.6740   -4.1990   94.8060 N.3   138  ASN138     -0.1240
     37  CA       -43.9730   -2.7670   94.8240 C.3   138  ASN138      0.1653
     38  C        -42.7800   -1.9960   94.2680 C.2   138  ASN138      0.2266
     39  O        -41.6570   -2.3000   94.6080 O.2   138  ASN138     -0.2867
     40  CB       -44.2420   -2.2950   96.2510 C.3   138  ASN138      0.1155
     41  CG       -45.6300   -2.6530   96.7430 C.2   138  ASN138      0.2627
     42  OD1      -46.3500   -3.4480   96.1300 O.2   138  ASN138     -0.2716
     43  ND2      -46.0180   -2.0480   97.8610 N.am  138  ASN138     -0.0877
     44  N        -38.7210    8.7770   94.9670 N.3   146  TRP146     -0.1241
     45  CA       -39.6940    9.2230   95.9590 C.3   146  TRP146      0.1605
     46  C        -39.0210    9.2930   97.3160 C.2   146  TRP146      0.2264
     47  O        -38.7450    8.2680   97.9260 O.2   146  TRP146     -0.2867
     48  CB       -40.8430    8.2440   96.0090 C.3   146  TRP146      0.0550
     49  CG       -42.0760    8.7170   96.7450 C.ar  146  TRP146      0.0003
     50  CD1      -42.2420    9.8760   97.5150 C.ar  146  TRP146      0.0946
     51  CD2      -43.3690    8.0450   96.7880 C.ar  146  TRP146      0.0152
     52  NE1      -43.5250    9.9580   97.9940 N.ar  146  TRP146     -0.2442
     53  CE2      -44.2520    8.8930   97.5900 C.ar  146  TRP146      0.0810
     54  CE3      -43.8770    6.8800   96.2370 C.ar  146  TRP146      0.0012
     55  CZ2      -45.5730    8.5570   97.8260 C.ar  146  TRP146      0.0191
     56  CZ3      -45.2130    6.5540   96.4750 C.ar  146  TRP146      0.0001
     57  CH2      -46.0430    7.3760   97.2510 C.ar  146  TRP146      0.0015
     58  N        -38.8800   10.3120  101.3130 N.3   148  THR148     -0.1218
     59  CA       -39.7890   10.4400  102.4480 C.3   148  THR148      0.1862
     60  C        -38.9530   10.6770  103.7040 C.2   148  THR148      0.2287
     61  O        -37.7240   10.6910  103.6420 O.2   148  THR148     -0.2866
     62  CB       -40.6890    9.1870  102.6170 C.3   148  THR148      0.1770
     63  OG1      -39.8780    8.0080  102.7190 O.3   148  THR148     -0.2211
     64  CG2      -41.6670    9.0670  101.4390 C.3   148  THR148      0.0375
     65  N        -45.6460   15.3020   94.6770 N.3   176  HIS176     -0.1241
     66  CA       -46.6340   14.3450   95.1490 C.3   176  HIS176      0.1621
     67  C        -47.7350   15.0600   95.8870 C.2   176  HIS176      0.2264
     68  O        -47.4670   15.7970   96.8580 O.2   176  HIS176     -0.2867
     69  CB       -45.9710   13.3180   96.0610 C.3   176  HIS176      0.0745
     70  CG       -46.9100   12.2550   96.5490 C.ar  176  HIS176      0.0817
     71  ND1      -47.2410   12.1190   97.8530 N.ar  176  HIS176     -0.2268
     72  CD2      -47.6210   11.2720   95.8560 C.ar  176  HIS176      0.1154
     73  CE1      -48.1060   11.0890   97.9900 C.ar  176  HIS176      0.1986
     74  NE2      -48.3380   10.5710   96.7670 N.ar  176  HIS176     -0.2212
     75  N        -53.2870   12.8610  106.7340 N.3   182  ASN182     -0.1225
     76  CA       -52.6640   11.6770  107.3190 C.3   182  ASN182      0.1785
     77  C        -51.5030   11.1640  106.4620 C.2   182  ASN182      0.2597
     78  O        -50.4430   10.8220  106.9900 O.2   182  ASN182     -0.2718
     79  CB       -53.7110   10.5730  107.5170 C.3   182  ASN182      0.1169
     80  CG       -53.2640    9.5080  108.5030 C.2   182  ASN182      0.2627
     81  OD1      -52.1400    9.0060  108.4380 O.2   182  ASN182     -0.2716
     82  ND2      -54.1540    9.1480  109.4190 N.am  182  ASN182     -0.0877
     83  N        -51.7050   11.1170  105.1410 N.am  183  ASP183     -0.1974
     84  CA       -50.6430   10.6870  104.2220 C.3   183  ASP183      0.1709
     85  C        -49.4900   11.6780  104.2360 C.2   183  ASP183      0.2293
     86  O        -48.3330   11.2830  104.1800 O.2   183  ASP183     -0.2864
     87  CB       -51.1550   10.5680  102.7730 C.3   183  ASP183      0.1436
     88  CG       -52.2580    9.5410  102.6130 C.2   183  ASP183      0.3671
     89  OD1      -52.0690    8.3550  102.9910 O.co2 183  ASP183     -0.2456
     90  OD2      -53.3150    9.9310  102.0800 O.co2 183  ASP183     -0.2456
     91  N        -47.5940   11.0210  107.4070 N.3   186  SER186     -0.1202
     92  CA       -46.9480    9.6930  107.3490 C.3   186  SER186      0.2020
     93  C        -45.7700    9.6470  106.3730 C.2   186  SER186      0.2618
     94  O        -44.8080    8.9070  106.5790 O.2   186  SER186     -0.2717
     95  CB       -47.9520    8.6160  106.9370 C.3   186  SER186      0.2103
     96  OG       -49.0330    8.5360  107.8490 O.3   186  SER186     -0.2182
     97  N        -45.8530   10.4280  105.2960 N.am  187  LEU187     -0.1979
     98  CA       -44.8160   10.4040  104.2800 C.3   187  LEU187      0.1596
     99  C        -43.6710   11.3760  104.5730 C.2   187  LEU187      0.2287
    100  O        -42.5000   11.0220  104.4040 O.2   187  LEU187     -0.2864
    101  CB       -45.4270   10.6890  102.8970 C.3   187  LEU187      0.0297
    102  CG       -46.3300    9.5850  102.3350 C.3   187  LEU187      0.0022
    103  CD1      -47.2500   10.1090  101.2290 C.3   187  LEU187      0.0001
    104  CD2      -45.4830    8.4130  101.8440 C.3   187  LEU187      0.0001
    105  N        -59.8620    7.2730   92.9750 N.3   215  ARG215     -0.1245
    106  CA       -58.8280    6.2710   93.0620 C.3   215  ARG215      0.1563
    107  C        -58.5400    5.6540   91.7100 C.2   215  ARG215      0.2260
    108  O        -59.4500    5.3950   90.9260 O.2   215  ARG215     -0.2867
    109  CB       -59.1960    5.1920   94.0830 C.3   215  ARG215      0.0307
    110  CG       -59.1810    5.7390   95.4940 C.3   215  ARG215      0.0489
    111  CD       -59.2380    4.6480   96.5450 C.3   215  ARG215      0.2205
    112  NE       -59.2970    5.2140   97.8880 N.pl3 215  ARG215     -0.0865
    113  CZ       -59.2390    4.4900   99.0070 C.cat 215  ARG215      0.5346
    114  NH1      -59.1240    3.1650   98.9480 N.pl3 215  ARG215      0.1354
    115  NH2      -59.3010    5.0890  100.1900 N.pl3 215  ARG215      0.1354
    116  N        -56.1750    1.9570   93.2370 N.3   218  ASP218     -0.1225
    117  CA       -56.4080    2.2210   94.6540 C.3   218  ASP218      0.1805
    118  C        -55.6050    3.3880   95.2330 C.2   218  ASP218      0.2598
    119  O        -55.3920    3.4490   96.4590 O.2   218  ASP218     -0.2718
    120  CB       -56.1630    0.9500   95.4830 C.3   218  ASP218      0.1424
    121  CG       -57.0000    0.9190   96.7630 C.2   218  ASP218      0.3668
    122  OD1      -58.1630    1.4110   96.7370 O.co2 218  ASP218     -0.2456
    123  OD2      -56.4860    0.4030   97.7840 O.co2 218  ASP218     -0.2456
    124  N        -55.1930    4.3270   94.3690 N.am  219  ILE219     -0.1966
    125  CA       -54.4230    5.4880   94.8060 C.3   219  ILE219      0.1712
    126  C        -55.2440    6.7600   94.5940 C.2   219  ILE219      0.2458
    127  O        -55.6140    7.0910   93.4490 O.2   219  ILE219     -0.2730
    128  CB       -53.0690    5.5950   94.0610 C.3   219  ILE219      0.0289
    129  CG1      -52.2370    4.3400   94.2820 C.3   219  ILE219      0.0022
    130  CG2      -52.2890    6.8210   94.4960 C.3   219  ILE219      0.0023
    131  CD1      -51.9830    3.9820   95.7430 C.3   219  ILE219      0.0001
    132  N        -55.5640    7.4640   95.6940 N.am  220  PRO220     -0.2716
    133  CA       -56.2640    8.7410   95.6130 C.3   220  PRO220      0.1536
    134  C        -55.3070    9.9340   95.5440 C.2   220  PRO220      0.2599
    135  O        -55.7440   11.0570   95.3270 O.2   220  PRO220     -0.2715
    136  CB       -57.0780    8.7650   96.9160 C.3   220  PRO220      0.0310
    137  CG       -56.2180    8.0350   97.8860 C.3   220  PRO220      0.0237
    138  CD       -55.4480    6.9990   97.0970 C.3   220  PRO220      0.0939
    139  N        -54.0160    9.6900   95.6960 N.am  221  SER221     -0.1950
    140  CA       -53.0080   10.7330   95.5330 C.3   221  SER221      0.1924
    141  C        -52.6800   10.8830   94.0410 C.2   221  SER221      0.2314
    142  O        -53.1300   10.0740   93.2170 O.2   221  SER221     -0.2863
    143  CB       -51.7350   10.3710   96.3010 C.3   221  SER221      0.2116
    144  OG       -51.9700   10.2050   97.6940 O.3   221  SER221     -0.2180
@<TRIPOS>BOND
     1     4     3    2
     2     1     2    1
     3     3     2    1
     4     2     5    1
     5   108   107    2
     6     5     6    1
     7   107   106    1
     8     6     8   ar
     9     6     7   ar
    10     8    10   ar
    11    33    32    2
    12   105   106    1
    13   106   109    1
    14   142   141    2
    15   116   117    1
    16     7     9   ar
    17   127   126    2
    18    32    31    1
    19    10    11   ar
    20    27    26    2
    21   141   140    1
    22   128   129    1
    23   128   130    1
    24   128   125    1
    25   109   110    1
    26    38    39    2
    27    38    37    1
    28   129   131    1
    29   124   125    1
    30   124   118   am
    31   126   125    1
    32   126   132   am
    33     9    11   ar
    34   117   118    1
    35   117   120    1
    36    65    66    1
    37    31    30    1
    38    31    34    1
    39    36    37    1
    40    37    40    1
    41    29    28    1
    42    11    12    1
    43    26    30   am
    44    26    25    1
    45    28    25    1
    46    44    45    1
    47    66    67    1
    48    66    69    1
    49   118   119    2
    50   135   134    2
    51   120   121    1
    52   110   111    1
    53    24    25    1
    54    24    19   am
    55   140   139    1
    56   140   143    1
    57   134   133    1
    58   134   139   am
    59    16    15    2
    60   133   132    1
    61   133   136    1
    62   132   138    1
    63    34    35    1
    64    23    21    1
    65    72    70   ar
    66    72    74   ar
    67    67    68    2
    68    45    48    1
    69    45    46    1
    70    48    49    1
    71    69    70    1
    72    21    18    1
    73    21    22    1
    74    42    41    2
    75    18    19    1
    76    18    17    1
    77    54    56   ar
    78    54    51   ar
    79    40    41    1
    80   143   144    1
    81    19    20    2
    82    56    57   ar
    83   111   112    1
    84    70    71   ar
    85   122   121   ar
    86    41    43   am
    87    49    51   ar
    88    49    50   ar
    89   121   123   ar
    90    74    73   ar
    91    15    17   am
    92    15    14    1
    93    51    53   ar
    94   136   137    1
    95   138   137    1
    96    57    55   ar
    97    46    47    2
    98    50    52   ar
    99    53    55   ar
   100    53    52   ar
   101    13    14    1
   102    71    73   ar
   103   112   113    2
   104   114   113    1
   105   113   115    1
   106   103   102    1
   107    58    59    1
   108    64    62    1
   109   104   102    1
   110    90    88   ar
   111   102   101    1
   112    59    62    1
   113    59    60    1
   114    88    87    1
   115    88    89   ar
   116    62    63    1
   117    87    84    1
   118   101    98    1
   119    61    60    2
   120    86    85    2
   121    84    85    1
   122    84    83    1
   123    98    99    1
   124    98    97    1
   125   100    99    2
   126    83    77   am
   127    97    93   am
   128    93    94    2
   129    93    92    1
   130    77    78    2
   131    77    76    1
   132    75    76    1
   133    95    92    1
   134    95    96    1
   135    76    79    1
   136    92    91    1
   137    79    80    1
   138    81    80    2
   139    80    82   am
