@<TRIPOS>MOLECULE
tmp/2yp4A06.pdb
 165 161 0 0 0
SMALL
GASTEIGER

@<TRIPOS>ATOM
      1  N        -30.8280   14.3400  -24.6370 N.3    91  TYR91      -0.1241
      2  CA       -31.3160   15.4420  -25.4840 C.3    91  TYR91       0.1605
      3  C        -31.7790   16.6070  -24.6180 C.2    91  TYR91       0.2264
      4  O        -32.4770   16.3910  -23.6150 O.2    91  TYR91      -0.2867
      5  CB       -32.4550   14.9720  -26.3890 C.3    91  TYR91       0.0534
      6  CG       -32.5150   15.6450  -27.7500 C.ar   91  TYR91      -0.0201
      7  CD1      -31.7330   15.1820  -28.8190 C.ar   91  TYR91      -0.0009
      8  CD2      -33.3820   16.7080  -27.9810 C.ar   91  TYR91      -0.0009
      9  CE1      -31.7970   15.7840  -30.0710 C.ar   91  TYR91       0.0417
     10  CE2      -33.4680   17.3100  -29.2250 C.ar   91  TYR91       0.0417
     11  CZ       -32.6710   16.8410  -30.2740 C.ar   91  TYR91       0.1957
     12  OH       -32.7530   17.4490  -31.5020 O.3    91  TYR91      -0.2866
     13  N        -35.7940    6.9430  -33.0620 N.3   127  GLY127     -0.1210
     14  CA       -34.7840    7.9470  -33.3880 C.3   127  GLY127      0.1956
     15  C        -33.7970    8.0950  -32.2400 C.2   127  GLY127      0.2613
     16  O        -34.1870    7.9760  -31.0560 O.2   127  GLY127     -0.2717
     17  N        -32.5270    8.3470  -32.5760 N.am  128  THR128     -0.1938
     18  CA       -31.4820    8.5650  -31.5730 C.3   128  THR128      0.2028
     19  C        -30.6760    9.8300  -31.8450 C.2   128  THR128      0.2643
     20  O        -30.9050   10.5070  -32.8460 O.2   128  THR128     -0.2714
     21  CB       -30.5210    7.3700  -31.5040 C.3   128  THR128      0.1808
     22  OG1      -29.7420    7.3110  -32.7030 O.3   128  THR128     -0.2208
     23  CG2      -31.2980    6.0540  -31.3250 C.3   128  THR128      0.0379
     24  N        -29.7490   10.1450  -30.9340 N.am  129  SER129     -0.1935
     25  CA       -28.9060   11.3390  -31.0250 C.3   129  SER129      0.2055
     26  C        -27.5570   11.1300  -30.3420 C.2   129  SER129      0.2643
     27  O        -27.4380   10.3490  -29.3940 O.2   129  SER129     -0.2714
     28  CB       -29.6190   12.5440  -30.4010 C.3   129  SER129      0.2130
     29  OG       -28.7580   13.6720  -30.2710 O.3   129  SER129     -0.2179
     30  N        -26.5460   11.8490  -30.8300 N.am  130  SER130     -0.1949
     31  CA       -25.2000   11.8310  -30.2500 C.3   130  SER130      0.1924
     32  C        -25.1480   12.6010  -28.9320 C.2   130  SER130      0.2314
     33  O        -24.1800   12.4810  -28.1760 O.2   130  SER130     -0.2863
     34  CB       -24.1860   12.4410  -31.2350 C.3   130  SER130      0.2116
     35  OG       -24.4870   13.8100  -31.4750 O.3   130  SER130     -0.2180
     36  N        -25.1160    6.1550  -30.2140 N.3   138  ASN138     -0.1240
     37  CA       -26.1740    7.1650  -30.2520 C.3   138  ASN138      0.1653
     38  C        -27.4610    6.5550  -29.6890 C.2   138  ASN138      0.2266
     39  O        -27.8250    5.4540  -30.0620 O.2   138  ASN138     -0.2867
     40  CB       -26.4180    7.6570  -31.6860 C.3   138  ASN138      0.1155
     41  CG       -25.4300    8.7310  -32.1330 C.2   138  ASN138      0.2627
     42  OD1      -24.3930    8.9630  -31.5020 O.2   138  ASN138     -0.2716
     43  ND2      -25.7600    9.3990  -33.2400 N.am  138  ASN138     -0.0877
     44  N        -38.7880    8.4930  -30.3510 N.3   146  TRP146     -0.1241
     45  CA       -38.6720    9.5640  -31.3390 C.3   146  TRP146      0.1605
     46  C        -39.0990    9.0310  -32.6830 C.2   146  TRP146      0.2264
     47  O        -38.3530    8.2810  -33.2960 O.2   146  TRP146     -0.2867
     48  CB       -37.2310   10.0280  -31.4510 C.3   146  TRP146      0.0550
     49  CG       -37.0400   11.3360  -32.1690 C.ar  146  TRP146      0.0003
     50  CD1      -37.9790   12.0790  -32.8930 C.ar  146  TRP146      0.0946
     51  CD2      -35.8060   12.1120  -32.2410 C.ar  146  TRP146      0.0152
     52  NE1      -37.4180   13.2440  -33.3600 N.ar  146  TRP146     -0.2442
     53  CE2      -36.1190   13.3190  -33.0130 C.ar  146  TRP146      0.0810
     54  CE3      -34.5250   11.9460  -31.7470 C.ar  146  TRP146      0.0012
     55  CZ2      -35.1690   14.2980  -33.2660 C.ar  146  TRP146      0.0191
     56  CZ3      -33.5710   12.9420  -32.0110 C.ar  146  TRP146      0.0001
     57  CH2      -33.8910   14.0940  -32.7450 C.ar  146  TRP146      0.0015
     58  N        -40.1340    9.4720  -36.7110 N.3   148  THR148     -0.1203
     59  CA       -39.7240   10.3060  -37.8390 C.3   148  THR148      0.1994
     60  C        -40.3740    9.7270  -39.0970 C.2   148  THR148      0.2617
     61  O        -41.0080    8.6710  -39.0410 O.2   148  THR148     -0.2717
     62  CB       -38.1840   10.3570  -37.9860 C.3   148  THR148      0.1784
     63  OG1      -37.6500    9.0290  -38.0710 O.3   148  THR148     -0.2211
     64  CG2      -37.5480   11.0940  -36.8020 C.3   148  THR148      0.0376
     65  N        -40.2360   10.4290  -40.2190 N.am  149  HIS149     -0.1975
     66  CA       -40.8850    9.9960  -41.4620 C.3   149  HIS149      0.1656
     67  C        -40.4010    8.6470  -41.8930 C.2   149  HIS149      0.2291
     68  O        -39.2880    8.2340  -41.5370 O.2   149  HIS149     -0.2864
     69  CB       -40.6510   11.0010  -42.5900 C.3   149  HIS149      0.0771
     70  CG       -39.2500   10.9740  -43.1650 C.ar  149  HIS149      0.0820
     71  ND1      -38.7750    9.9340  -43.8790 N.ar  149  HIS149     -0.2267
     72  CD2      -38.2380   11.9330  -43.1470 C.ar  149  HIS149      0.1154
     73  CE1      -37.5160   10.2000  -44.2730 C.ar  149  HIS149      0.1986
     74  NE2      -37.1890   11.4260  -43.8250 N.ar  149  HIS149     -0.2212
     75  N        -39.9710    9.3350  -46.6480 N.3   152  PHE152     -0.1241
     76  CA       -40.4160   10.7290  -46.8200 C.3   152  PHE152      0.1605
     77  C        -41.9230   10.9770  -46.6920 C.2   152  PHE152      0.2264
     78  O        -42.4200   12.0010  -47.1640 O.2   152  PHE152     -0.2867
     79  CB       -39.8780   11.3030  -48.1340 C.3   152  PHE152      0.0534
     80  CG       -38.4180   11.0530  -48.3250 C.ar  152  PHE152     -0.0203
     81  CD1      -37.4810   11.8410  -47.6760 C.ar  152  PHE152     -0.0042
     82  CD2      -37.9770   10.0030  -49.1200 C.ar  152  PHE152     -0.0042
     83  CE1      -36.1280   11.5970  -47.8260 C.ar  152  PHE152     -0.0003
     84  CE2      -36.6230    9.7560  -49.2810 C.ar  152  PHE152     -0.0003
     85  CZ       -35.6950   10.5530  -48.6310 C.ar  152  PHE152     -0.0000
     86  N        -40.9630   17.8050  -30.1280 N.3   176  HIS176     -0.1241
     87  CA       -39.6400   18.1870  -30.6140 C.3   176  HIS176      0.1621
     88  C        -39.7330   19.5050  -31.3290 C.2   176  HIS176      0.2264
     89  O        -40.5510   19.6560  -32.2530 O.2   176  HIS176     -0.2867
     90  CB       -39.0950   17.1250  -31.5650 C.3   176  HIS176      0.0745
     91  CG       -37.6790   17.3760  -31.9950 C.ar  176  HIS176      0.0817
     92  ND1      -37.3360   17.5700  -33.2880 N.ar  176  HIS176     -0.2268
     93  CD2      -36.5050   17.4920  -31.2550 C.ar  176  HIS176      0.1154
     94  CE1      -36.0060   17.7910  -33.3710 C.ar  176  HIS176      0.1986
     95  NE2      -35.4960   17.7400  -32.1280 N.ar  176  HIS176     -0.2212
     96  N        -34.2230   20.9410  -40.6240 N.3   183  ASP183     -0.1239
     97  CA       -34.3430   19.8090  -39.6940 C.3   183  ASP183      0.1674
     98  C        -35.7660   19.2890  -39.6570 C.2   183  ASP183      0.2266
     99  O        -35.9760   18.0930  -39.5510 O.2   183  ASP183     -0.2867
    100  CB       -33.9170   20.2130  -38.2730 C.3   183  ASP183      0.1410
    101  CG       -32.4570   20.6190  -38.1900 C.2   183  ASP183      0.3668
    102  OD1      -31.5850   19.8190  -38.5890 O.co2 183  ASP183     -0.2456
    103  OD2      -32.1850   21.7450  -37.7160 O.co2 183  ASP183     -0.2456
    104  N        -37.9900   19.3090  -42.0740 N.3   185  ILE185     -0.1231
    105  CA       -38.2380   18.5290  -43.2930 C.3   185  ILE185      0.1692
    106  C        -37.4330   17.2340  -43.2710 C.2   185  ILE185      0.2593
    107  O        -37.9740   16.1570  -43.5210 O.2   185  ILE185     -0.2718
    108  CB       -37.9190   19.3710  -44.5490 C.3   185  ILE185      0.0266
    109  CG1      -38.9070   20.5410  -44.6590 C.3   185  ILE185      0.0019
    110  CG2      -37.9260   18.5090  -45.8050 C.3   185  ILE185      0.0020
    111  CD1      -40.3690   20.1350  -44.7090 C.3   185  ILE185      0.0001
    112  N        -36.1480   17.3300  -42.9400 N.am  186  SER186     -0.1938
    113  CA       -35.3100   16.1360  -42.7880 C.3   186  SER186      0.2055
    114  C        -35.9690   15.0920  -41.8690 C.2   186  SER186      0.2642
    115  O        -35.9580   13.8990  -42.1670 O.2   186  SER186     -0.2714
    116  CB       -33.9400   16.5160  -42.2230 C.3   186  SER186      0.2130
    117  OG       -33.2520   17.4290  -43.0650 O.3   186  SER186     -0.2179
    118  N        -36.5620   15.5500  -40.7620 N.am  187  LEU187     -0.1977
    119  CA       -37.1200   14.6370  -39.7660 C.3   187  LEU187      0.1596
    120  C        -38.5540   14.1480  -40.0470 C.2   187  LEU187      0.2287
    121  O        -38.8310   12.9550  -39.9060 O.2   187  LEU187     -0.2864
    122  CB       -37.0450   15.2840  -38.3650 C.3   187  LEU187      0.0297
    123  CG       -35.6300   15.4780  -37.7980 C.3   187  LEU187      0.0022
    124  CD1      -35.6170   16.5080  -36.6640 C.3   187  LEU187      0.0001
    125  CD2      -35.0460   14.1460  -37.3420 C.3   187  LEU187      0.0001
    126  N        -26.8650   26.2260  -28.2180 N.3   215  ARG215     -0.1245
    127  CA       -26.5400   24.8180  -28.3080 C.3   215  ARG215      0.1563
    128  C        -26.1920   24.2340  -26.9530 C.2   215  ARG215      0.2260
    129  O        -25.4930   24.8520  -26.1560 O.2   215  ARG215     -0.2867
    130  CB       -25.4090   24.5720  -29.3040 C.3   215  ARG215      0.0307
    131  CG       -25.8250   24.8990  -30.7200 C.3   215  ARG215      0.0489
    132  CD       -24.8420   24.3620  -31.7410 C.3   215  ARG215      0.2205
    133  NE       -25.2820   24.6720  -33.0970 N.pl3 215  ARG215     -0.0865
    134  CZ       -24.7670   24.1370  -34.2010 C.cat 215  ARG215      0.5346
    135  NH1      -23.7800   23.2500  -34.1300 N.pl3 215  ARG215      0.1354
    136  NH2      -25.2470   24.4930  -35.3870 N.pl3 215  ARG215      0.1354
    137  N        -24.1920   20.4020  -28.5080 N.3   218  ASP218     -0.1225
    138  CA       -24.2740   20.7050  -29.9400 C.3   218  ASP218      0.1805
    139  C        -25.6920   20.6170  -30.5280 C.2   218  ASP218      0.2598
    140  O        -25.8540   20.4290  -31.7430 O.2   218  ASP218     -0.2718
    141  CB       -23.2990   19.8220  -30.7410 C.3   218  ASP218      0.1424
    142  CG       -22.8120   20.5030  -32.0280 C.2   218  ASP218      0.3668
    143  OD1      -22.6860   21.7540  -32.0410 O.co2 218  ASP218     -0.2456
    144  OD2      -22.5580   19.7820  -33.0220 O.co2 218  ASP218     -0.2456
    145  N        -26.7150   20.7660  -29.6820 N.am  219  ILE219     -0.1966
    146  CA       -28.0920   20.6710  -30.1420 C.3   219  ILE219      0.1712
    147  C        -28.7750   22.0220  -29.9380 C.2   219  ILE219      0.2458
    148  O        -28.8850   22.5170  -28.7910 O.2   219  ILE219     -0.2730
    149  CB       -28.8830   19.5570  -29.4160 C.3   219  ILE219      0.0289
    150  CG1      -28.1860   18.2000  -29.5390 C.3   219  ILE219      0.0022
    151  CG2      -30.3010   19.4570  -29.9520 C.3   219  ILE219      0.0023
    152  CD1      -28.0450   17.6770  -30.9620 C.3   219  ILE219      0.0001
    153  N        -29.2240   22.6390  -31.0430 N.am  220  PRO220     -0.2716
    154  CA       -29.9870   23.8750  -30.9550 C.3   220  PRO220      0.1536
    155  C        -31.4910   23.6210  -30.9570 C.2   220  PRO220      0.2599
    156  O        -32.2730   24.5590  -30.8340 O.2   220  PRO220     -0.2715
    157  CB       -29.5590   24.6270  -32.2150 C.3   220  PRO220      0.0310
    158  CG       -29.2380   23.5630  -33.2040 C.3   220  PRO220      0.0237
    159  CD       -28.8860   22.3080  -32.4450 C.3   220  PRO220      0.0939
    160  N        -31.8830   22.3620  -31.0830 N.am  221  SER221     -0.1950
    161  CA       -33.2780   21.9500  -30.9300 C.3   221  SER221      0.1924
    162  C        -33.5970   21.7490  -29.4480 C.2   221  SER221      0.2314
    163  O        -32.6870   21.7420  -28.6140 O.2   221  SER221     -0.2863
    164  CB       -33.5230   20.6330  -31.6710 C.3   221  SER221      0.2116
    165  OG       -33.3820   20.7950  -33.0670 O.3   221  SER221     -0.2180
@<TRIPOS>BOND
     1    84    82   ar
     2    84    85   ar
     3    82    80   ar
     4    85    83   ar
     5    80    79    1
     6    80    81   ar
     7    79    76    1
     8    83    81   ar
     9    78    77    2
    10    76    77    1
    11    76    75    1
    12   110   108    1
    13   111   109    1
    14   109   108    1
    15   108   105    1
    16    73    71   ar
    17    73    74   ar
    18    71    70   ar
    19    74    72   ar
    20   107   106    2
    21   105   106    1
    22   105   104    1
    23   106   112   am
    24    70    72   ar
    25    70    69    1
    26   117   116    1
    27   112   113    1
    28   113   116    1
    29   113   114    1
    30    69    66    1
    31   115   114    2
    32    67    68    2
    33    67    66    1
    34   114   118   am
    35    66    65    1
    36   118   119    1
    37    96    97    1
    38    65    60   am
    39   120   121    2
    40   120   119    1
    41   119   122    1
    42    97    98    1
    43    97   100    1
    44    98    99    2
    45    60    61    2
    46    60    59    1
    47   102   101   ar
    48   122   123    1
    49   100   101    1
    50   101   103   ar
    51    63    62    1
    52    62    59    1
    53    62    64    1
    54    59    58    1
    55   123   125    1
    56   123   124    1
    57   136   134    1
    58   134   135    1
    59   134   133    2
    60    14    13    1
    61    14    15    1
    62    94    92   ar
    63    94    95   ar
    64    52    53   ar
    65    52    50   ar
    66    47    46    2
    67    92    91   ar
    68    55    53   ar
    69    55    57   ar
    70    43    41   am
    71   158   159    1
    72   158   157    1
    73   133   132    1
    74   165   164    1
    75   144   142   ar
    76    53    51   ar
    77    50    49   ar
    78    20    19    2
    79    57    56   ar
    80    22    21    1
    81    46    45    1
    82    17    15   am
    83    17    18    1
    84   159   153    1
    85    89    88    2
    86    51    49   ar
    87    51    54   ar
    88    15    16    2
    89   157   154    1
    90    49    48    1
    91    41    40    1
    92    41    42    2
    93    95    93   ar
    94   143   142   ar
    95   142   141    1
    96    56    54   ar
    97    91    90    1
    98    91    93   ar
    99    19    18    1
   100    19    24   am
   101   140   139    2
   102   132   131    1
   103    40    37    1
   104   164   161    1
   105    18    21    1
   106    90    87    1
   107    21    23    1
   108    12    11    1
   109    35    34    1
   110    48    45    1
   111    45    44    1
   112    88    87    1
   113    34    31    1
   114   160   155   am
   115   160   161    1
   116   153   154    1
   117   153   147   am
   118    25    24    1
   119    25    28    1
   120    25    26    1
   121   152   150    1
   122   155   154    1
   123   155   156    2
   124   161   162    1
   125    30    26   am
   126    30    31    1
   127   141   138    1
   128   131   130    1
   129    87    86    1
   130   139   138    1
   131   139   145   am
   132    28    29    1
   133    26    27    2
   134    11     9   ar
   135    11    10   ar
   136    37    36    1
   137    37    38    1
   138    31    32    1
   139   146   147    1
   140   146   145    1
   141   146   149    1
   142     9     7   ar
   143    39    38    2
   144   151   149    1
   145   138   137    1
   146   147   148    2
   147   150   149    1
   148   162   163    2
   149   130   127    1
   150    10     8   ar
   151    32    33    2
   152     7     6   ar
   153   127   126    1
   154   127   128    1
   155     8     6   ar
   156     6     5    1
   157   128   129    2
   158     5     2    1
   159     2     1    1
   160     2     3    1
   161     3     4    2
