@<TRIPOS>MOLECULE
tmp/2yp4A04.pdb
 122 118 0 0 0
SMALL
GASTEIGER

@<TRIPOS>ATOM
      1  N        -30.1900    4.4690  -16.0490 N.3    70  ASP70      -0.1239
      2  CA       -30.8270    3.1880  -16.4090 C.3    70  ASP70       0.1674
      3  C        -31.0010    2.2620  -15.1970 C.2    70  ASP70       0.2266
      4  O        -31.9580    1.4780  -15.1200 O.2    70  ASP70      -0.2867
      5  CB       -30.0210    2.4790  -17.5110 C.3    70  ASP70       0.1410
      6  CG       -30.2380    3.0930  -18.9000 C.2    70  ASP70       0.3668
      7  OD1      -31.2250    3.8420  -19.1020 O.co2  70  ASP70      -0.2456
      8  OD2      -29.4310    2.7940  -19.8190 O.co2  70  ASP70      -0.2456
      9  N        -34.4460    2.0550  -13.1410 N.3    73  GLN73      -0.1245
     10  CA       -35.6970    1.5930  -13.7050 C.3    73  GLN73       0.1566
     11  C        -36.5550    0.8660  -12.6850 C.2    73  GLN73       0.2260
     12  O        -36.0760   -0.0090  -11.9800 O.2    73  GLN73      -0.2867
     13  CB       -35.4530    0.6860  -14.9450 C.3    73  GLN73       0.0367
     14  CG       -35.1990    1.5230  -16.1870 C.3    73  GLN73       0.0905
     15  CD       -35.2330    0.7230  -17.4790 C.2    73  GLN73       0.2608
     16  OE1      -35.4620   -0.4830  -17.4670 O.2    73  GLN73      -0.2717
     17  NE2      -35.0040    1.4120  -18.6100 N.am   73  GLN73      -0.0878
     18  N        -37.7990    4.8630  -32.8880 N.3   126  ASN126     -0.1225
     19  CA       -36.5020    4.7720  -32.2110 C.3   126  ASN126      0.1785
     20  C        -35.4170    5.7180  -32.7210 C.2   126  ASN126      0.2598
     21  O        -34.2400    5.3670  -32.7540 O.2   126  ASN126     -0.2718
     22  CB       -36.0010    3.3210  -32.1840 C.3   126  ASN126      0.1169
     23  CG       -37.0230    2.3680  -31.5870 C.2   126  ASN126      0.2627
     24  OD1      -37.8450    2.7690  -30.7610 O.2   126  ASN126     -0.2716
     25  ND2      -36.9820    1.1020  -31.9980 N.am  126  ASN126     -0.0877
     26  N        -35.7940    6.9430  -33.0620 N.am  127  GLY127     -0.1942
     27  CA       -34.7840    7.9470  -33.3880 C.3   127  GLY127      0.2014
     28  C        -33.7970    8.0950  -32.2400 C.2   127  GLY127      0.2639
     29  O        -34.1870    7.9760  -31.0560 O.2   127  GLY127     -0.2714
     30  N        -32.5270    8.3470  -32.5760 N.am  128  THR128     -0.1950
     31  CA       -31.4820    8.5650  -31.5730 C.3   128  THR128      0.1897
     32  C        -30.6760    9.8300  -31.8450 C.2   128  THR128      0.2313
     33  O        -30.9050   10.5070  -32.8460 O.2   128  THR128     -0.2863
     34  CB       -30.5210    7.3700  -31.5040 C.3   128  THR128      0.1794
     35  OG1      -29.7420    7.3110  -32.7030 O.3   128  THR128     -0.2208
     36  CG2      -31.2980    6.0540  -31.3250 C.3   128  THR128      0.0378
     37  N        -25.6770    5.9260  -25.1330 N.3   134  ARG134     -0.1231
     38  CA       -25.8560    4.7750  -24.2530 C.3   134  ARG134      0.1694
     39  C        -24.8960    3.6830  -24.7190 C.2   134  ARG134      0.2591
     40  O        -25.0050    3.2050  -25.8560 O.2   134  ARG134     -0.2718
     41  CB       -27.3100    4.2700  -24.3270 C.3   134  ARG134      0.0321
     42  CG       -27.6220    3.0340  -23.4840 C.3   134  ARG134      0.0489
     43  CD       -29.1150    2.7030  -23.4720 C.3   134  ARG134      0.2205
     44  NE       -29.8930    3.4490  -22.4620 N.pl3 134  ARG134     -0.0865
     45  CZ       -30.6940    4.4960  -22.6960 C.cat 134  ARG134      0.5346
     46  NH1      -30.8450    5.0040  -23.9200 N.pl3 134  ARG134      0.1354
     47  NH2      -31.3530    5.0720  -21.6830 N.pl3 134  ARG134      0.1354
     48  N        -23.9580    3.2950  -23.8530 N.am  135  ARG135     -0.1980
     49  CA       -22.9550    2.2760  -24.1950 C.3   135  ARG135      0.1597
     50  C        -22.2070    2.6890  -25.4700 C.2   135  ARG135      0.2287
     51  O        -22.1190    1.9210  -26.4310 O.2   135  ARG135     -0.2864
     52  CB       -23.6110    0.8950  -24.3680 C.3   135  ARG135      0.0334
     53  CG       -24.4610    0.4500  -23.1850 C.3   135  ARG135      0.0492
     54  CD       -25.1540   -0.8800  -23.4520 C.3   135  ARG135      0.2205
     55  NE       -26.1810   -0.7800  -24.4990 N.pl3 135  ARG135     -0.0865
     56  CZ       -27.4970   -0.6500  -24.2960 C.cat 135  ARG135      0.5346
     57  NH1      -28.0130   -0.5990  -23.0660 N.pl3 135  ARG135      0.1354
     58  NH2      -28.3140   -0.5720  -25.3430 N.pl3 135  ARG135      0.1354
     59  N        -28.1430    7.2570  -28.7830 N.3   139  SER139     -0.1202
     60  CA       -29.3650    6.6960  -28.1830 C.3   139  SER139      0.2020
     61  C        -30.3810    7.7840  -27.8580 C.2   139  SER139      0.2619
     62  O        -30.3460    8.8810  -28.4340 O.2   139  SER139     -0.2717
     63  CB       -29.0260    5.8500  -26.9370 C.3   139  SER139      0.2103
     64  OG       -30.0820    4.9360  -26.6120 O.3   139  SER139     -0.2182
     65  N        -31.2920    7.4750  -26.9310 N.am  140  PHE140     -0.1961
     66  CA       -32.3560    8.3940  -26.5750 C.3   140  PHE140      0.1771
     67  C        -32.9240    8.0000  -25.2020 C.2   140  PHE140      0.2620
     68  O        -32.6190    6.9260  -24.6730 O.2   140  PHE140     -0.2715
     69  CB       -33.4470    8.3240  -27.6410 C.3   140  PHE140      0.0574
     70  CG       -34.3720    9.5060  -27.6640 C.ar  140  PHE140     -0.0200
     71  CD1      -33.8960   10.7750  -27.9860 C.ar  140  PHE140     -0.0042
     72  CD2      -35.7280    9.3480  -27.3920 C.ar  140  PHE140     -0.0042
     73  CE1      -34.7490   11.8570  -28.0380 C.ar  140  PHE140     -0.0003
     74  CE2      -36.5850   10.4340  -27.4310 C.ar  140  PHE140     -0.0003
     75  CZ       -36.1000   11.6860  -27.7550 C.ar  140  PHE140     -0.0000
     76  N        -33.7500    8.8710  -24.6410 N.am  141  PHE141     -0.1960
     77  CA       -34.5170    8.5330  -23.4280 C.3   141  PHE141      0.1771
     78  C        -35.1690    7.1640  -23.5380 C.2   141  PHE141      0.2620
     79  O        -35.8910    6.8770  -24.5090 O.2   141  PHE141     -0.2715
     80  CB       -35.6000    9.5750  -23.2040 C.3   141  PHE141      0.0574
     81  CG       -35.0610   10.9540  -22.9830 C.ar  141  PHE141     -0.0200
     82  CD1      -34.4380   11.2830  -21.8000 C.ar  141  PHE141     -0.0042
     83  CD2      -35.1670   11.9180  -23.9700 C.ar  141  PHE141     -0.0042
     84  CE1      -33.9420   12.5600  -21.5850 C.ar  141  PHE141     -0.0003
     85  CE2      -34.6700   13.1960  -23.7720 C.ar  141  PHE141     -0.0003
     86  CZ       -34.0610   13.5210  -22.5660 C.ar  141  PHE141     -0.0000
     87  N        -34.9280    6.3140  -22.5430 N.am  142  SER142     -0.1936
     88  CA       -35.4390    4.9400  -22.5700 C.3   142  SER142      0.2055
     89  C        -36.9530    4.8430  -22.6750 C.2   142  SER142      0.2643
     90  O        -37.4650    3.8960  -23.2750 O.2   142  SER142     -0.2714
     91  CB       -34.9890    4.1510  -21.3360 C.3   142  SER142      0.2130
     92  OG       -35.6770    4.5700  -20.1580 O.3   142  SER142     -0.2179
     93  N        -37.6740    5.7950  -22.0910 N.am  143  ARG143     -0.1963
     94  CA       -39.1280    5.6760  -22.0120 C.3   143  ARG143      0.1729
     95  C        -39.8650    6.4520  -23.1070 C.2   143  ARG143      0.2616
     96  O        -41.1000    6.4260  -23.1510 O.2   143  ARG143     -0.2715
     97  CB       -39.6500    6.1230  -20.6330 C.3   143  ARG143      0.0348
     98  CG       -38.9630    5.4630  -19.4480 C.3   143  ARG143      0.0492
     99  CD       -39.0620    3.9620  -19.5230 C.3   143  ARG143      0.2205
    100  NE       -38.7370    3.3080  -18.2670 N.pl3 143  ARG143     -0.0865
    101  CZ       -38.6780    1.9840  -18.1100 C.cat 143  ARG143      0.5346
    102  NH1      -38.8810    1.1560  -19.1480 N.pl3 143  ARG143      0.1354
    103  NH2      -38.3900    1.4770  -16.9180 N.pl3 143  ARG143      0.1354
    104  N        -39.1120    7.1060  -23.9890 N.am  144  LEU144     -0.1977
    105  CA       -39.6920    7.8900  -25.0720 C.3   144  LEU144      0.1596
    106  C        -39.2860    7.3070  -26.4360 C.2   144  LEU144      0.2287
    107  O        -38.2780    6.6220  -26.5550 O.2   144  LEU144     -0.2864
    108  CB       -39.2580    9.3400  -24.9580 C.3   144  LEU144      0.0297
    109  CG       -39.7680   10.0280  -23.6700 C.3   144  LEU144      0.0022
    110  CD1      -39.1520   11.4080  -23.5230 C.3   144  LEU144      0.0001
    111  CD2      -41.2930   10.1170  -23.6320 C.3   144  LEU144      0.0001
    112  N        -43.7330    5.1590  -24.5770 N.3   248  ARG248     -0.1245
    113  CA       -43.5880    3.7260  -24.8410 C.3   248  ARG248      0.1563
    114  C        -44.4920    2.9030  -23.9310 C.2   248  ARG248      0.2260
    115  O        -44.4580    1.6800  -23.9720 O.2   248  ARG248     -0.2867
    116  CB       -42.1400    3.2680  -24.6720 C.3   248  ARG248      0.0307
    117  CG       -41.1600    3.8790  -25.6480 C.3   248  ARG248      0.0489
    118  CD       -39.8040    3.1860  -25.5550 C.3   248  ARG248      0.2205
    119  NE       -38.8270    3.8270  -26.4220 N.pl3 248  ARG248     -0.0865
    120  CZ       -38.6260    3.5150  -27.7080 C.cat 248  ARG248      0.5346
    121  NH1      -39.3200    2.5470  -28.2880 N.pl3 248  ARG248      0.1354
    122  NH2      -37.7160    4.1830  -28.4120 N.pl3 248  ARG248      0.1354
@<TRIPOS>BOND
     1    27    26    1
     2    27    28    1
     3    26    20   am
     4    18    19    1
     5    33    32    2
     6    21    20    2
     7    20    19    1
     8    35    34    1
     9    30    28   am
    10    30    31    1
    11    28    29    2
    12    19    22    1
    13    22    23    1
    14    25    23   am
    15    32    31    1
    16    23    24    2
    17    31    34    1
    18    34    36    1
    19    59    60    1
    20    62    61    2
    21   122   120    1
    22   121   120    1
    23    60    61    1
    24    60    63    1
    25    73    71   ar
    26    73    75   ar
    27    71    70   ar
    28    61    65   am
    29    75    74   ar
    30   120   119    2
    31    70    69    1
    32    70    72   ar
    33    69    66    1
    34    74    72   ar
    35    63    64    1
    36    65    66    1
    37    66    67    1
    38   107   106    2
    39   106   105    1
    40    51    50    2
    41   119   118    1
    42    40    39    2
    43   117   118    1
    44   117   116    1
    45    50    49    1
    46    58    56    1
    47    67    68    2
    48    67    76   am
    49    37    38    1
    50   105   108    1
    51   105   104    1
    52   108   109    1
    53   113   116    1
    54   113   112    1
    55   113   114    1
    56    39    38    1
    57    39    48   am
    58    76    77    1
    59    79    78    2
    60    55    56    2
    61    55    54    1
    62    52    49    1
    63    52    53    1
    64    41    38    1
    65    41    42    1
    66    56    57    1
    67    49    48    1
    68   104    95   am
    69   115   114    2
    70    83    85   ar
    71    83    81   ar
    72    46    45    1
    73    85    86   ar
    74   109   111    1
    75   109   110    1
    76    78    77    1
    77    78    87   am
    78    42    43    1
    79    43    44    1
    80    54    53    1
    81    77    80    1
    82    90    89    2
    83    80    81    1
    84    96    95    2
    85    95    94    1
    86    81    82   ar
    87    45    44    2
    88    45    47    1
    89    89    88    1
    90    89    93   am
    91    88    87    1
    92    88    91    1
    93    86    84   ar
    94    93    94    1
    95    94    97    1
    96    82    84   ar
    97    91    92    1
    98    97    98    1
    99     8     6   ar
   100    99    98    1
   101    99   100    1
   102   102   101    1
   103     7     6   ar
   104     6     5    1
   105    17    15   am
   106   100   101    2
   107   101   103    1
   108     5     2    1
   109    15    16    2
   110    15    14    1
   111     2     1    1
   112     2     3    1
   113    14    13    1
   114     3     4    2
   115    13    10    1
   116    10     9    1
   117    10    11    1
   118    11    12    2
