@<TRIPOS>MOLECULE
tmp/2yp4A07.pdb
 96 92 0 0 0
SMALL
GASTEIGER

@<TRIPOS>ATOM
      1  N        -38.5550   17.8250   21.4090 N.3   286  PRO286     -0.2102
      2  CA       -39.7750   18.2230   20.7010 C.3   286  PRO286      0.1504
      3  C        -39.5170   19.2420   19.5750 C.2   286  PRO286      0.2575
      4  O        -40.3430   19.3960   18.6790 O.2   286  PRO286     -0.2718
      5  CB       -40.6380   18.7810   21.8120 C.3   286  PRO286      0.0282
      6  CG       -39.6810   19.2520   22.8720 C.3   286  PRO286      0.0208
      7  CD       -38.5660   18.2380   22.8150 C.3   286  PRO286      0.0893
      8  N        -38.3950   19.9360   19.6450 N.am  287  PHE287     -0.1977
      9  CA       -38.0860   21.0170   18.7160 C.3   287  PHE287      0.1639
     10  C        -36.6780   20.8030   18.1510 C.2   287  PHE287      0.2290
     11  O        -35.8570   20.0150   18.7050 O.2   287  PHE287     -0.2864
     12  CB       -38.1800   22.3920   19.4390 C.3   287  PHE287      0.0560
     13  CG       -39.4970   22.6180   20.1500 C.ar  287  PHE287     -0.0200
     14  CD1      -40.6640   22.7350   19.4340 C.ar  287  PHE287     -0.0042
     15  CD2      -39.5530   22.7090   21.5300 C.ar  287  PHE287     -0.0042
     16  CE1      -41.8910   22.9290   20.0860 C.ar  287  PHE287     -0.0003
     17  CE2      -40.7740   22.9060   22.1910 C.ar  287  PHE287     -0.0003
     18  CZ       -41.9430   23.0060   21.4570 C.ar  287  PHE287     -0.0000
     19  N        -40.2900   19.6410   15.7330 N.3   300  ARG300     -0.1245
     20  CA       -40.7670   20.8030   14.9980 C.3   300  ARG300      0.1563
     21  C        -39.6620   21.8660   14.9220 C.2   300  ARG300      0.2260
     22  O        -38.9910   22.1510   15.9390 O.2   300  ARG300     -0.2867
     23  CB       -42.0010   21.3840   15.6820 C.3   300  ARG300      0.0307
     24  CG       -43.2160   20.4720   15.4850 C.3   300  ARG300      0.0489
     25  CD       -44.4950   21.2280   15.8070 C.3   300  ARG300      0.2205
     26  NE       -45.6760   20.4200   15.5050 N.pl3 300  ARG300     -0.0865
     27  CZ       -46.2780   20.3110   14.3230 C.cat 300  ARG300      0.5346
     28  NH1      -45.8390   20.9050   13.2290 N.pl3 300  ARG300      0.1354
     29  NH2      -47.3570   19.5640   14.2460 N.pl3 300  ARG300      0.1354
     30  N        -44.2110   13.5630   28.4530 N.3   371  ARG371     -0.1231
     31  CA       -45.1160   14.2170   27.4990 C.3   371  ARG371      0.1694
     32  C        -44.3990   14.9560   26.3800 C.2   371  ARG371      0.2591
     33  O        -44.9730   15.1920   25.3310 O.2   371  ARG371     -0.2718
     34  CB       -46.0210   15.2220   28.2080 C.3   371  ARG371      0.0321
     35  CG       -47.0650   14.5860   29.0970 C.3   371  ARG371      0.0489
     36  CD       -48.1070   15.6040   29.5640 C.3   371  ARG371      0.2205
     37  NE       -47.6330   16.4690   30.6490 N.pl3 371  ARG371     -0.0865
     38  CZ       -47.4330   16.0870   31.9190 C.cat 371  ARG371      0.5346
     39  NH1      -47.6360   14.8300   32.3060 N.pl3 371  ARG371      0.1354
     40  NH2      -47.0130   16.9740   32.8180 N.pl3 371  ARG371      0.1354
     41  N        -43.1610   15.3520   26.6270 N.am  372  LEU372     -0.1980
     42  CA       -42.3940   16.2000   25.7130 C.3   372  LEU372      0.1596
     43  C        -41.2820   15.4620   24.9730 C.2   372  LEU372      0.2287
     44  O        -40.8140   15.9360   23.9400 O.2   372  LEU372     -0.2864
     45  CB       -41.7310   17.3290   26.5080 C.3   372  LEU372      0.0297
     46  CG       -42.6720   18.3860   27.0760 C.3   372  LEU372      0.0022
     47  CD1      -41.9570   19.2880   28.0930 C.3   372  LEU372      0.0001
     48  CD2      -43.2460   19.1820   25.9120 C.3   372  LEU372      0.0001
     49  N        -41.9620   12.1890   21.4530 N.3   375  LYS375     -0.1245
     50  CA       -43.3800   12.2380   21.0710 C.3   375  LYS375      0.1561
     51  C        -43.6340   12.9590   19.7450 C.2   375  LYS375      0.2260
     52  O        -44.7110   13.5360   19.5250 O.2   375  LYS375     -0.2867
     53  CB       -44.1950   12.8780   22.1940 C.3   375  LYS375      0.0271
     54  CG       -44.0700   12.1450   23.5220 C.3   375  LYS375      0.0035
     55  CD       -44.7340   10.7770   23.4790 C.3   375  LYS375      0.0206
     56  CE       -44.7800   10.1350   24.8600 C.3   375  LYS375      0.1093
     57  NZ       -43.4200    9.9550   25.4400 N.3   375  LYS375     -0.1314
     58  N        -44.2520   13.7800   15.7560 N.3   377  ASN377     -0.1240
     59  CA       -45.2270   13.3150   14.7840 C.3   377  ASN377      0.1653
     60  C        -44.6150   13.3360   13.3820 C.2   377  ASN377      0.2266
     61  O        -43.7850   14.2030   13.0840 O.2   377  ASN377     -0.2867
     62  CB       -46.4520   14.2310   14.8340 C.3   377  ASN377      0.1155
     63  CG       -47.1450   14.2080   16.1870 C.2   377  ASN377      0.2627
     64  OD1      -46.8440   13.3740   17.0400 O.2   377  ASN377     -0.2716
     65  ND2      -48.0770   15.1250   16.3830 N.am  377  ASN377     -0.0877
     66  N        -44.9320   28.3920   15.6210 N.3   409  TRP409     -0.1241
     67  CA       -44.3080   27.3460   16.4450 C.3   409  TRP409      0.1605
     68  C        -43.2380   27.8290   17.3980 C.2   409  TRP409      0.2264
     69  O        -43.1450   27.3350   18.5070 O.2   409  TRP409     -0.2867
     70  CB       -43.8140   26.2010   15.5610 C.3   409  TRP409      0.0550
     71  CG       -44.9570   25.2950   15.2250 C.ar  409  TRP409      0.0003
     72  CD1      -45.5960   25.1450   13.9970 C.ar  409  TRP409      0.0946
     73  CD2      -45.7550   24.5070   16.1720 C.ar  409  TRP409      0.0152
     74  NE1      -46.6510   24.2730   14.1040 N.ar  409  TRP409     -0.2442
     75  CE2      -46.7900   23.8520   15.3830 C.ar  409  TRP409      0.0810
     76  CE3      -45.6710   24.2440   17.5440 C.ar  409  TRP409      0.0012
     77  CZ2      -47.7410   23.0050   15.9620 C.ar  409  TRP409      0.0191
     78  CZ3      -46.6270   23.3740   18.1060 C.ar  409  TRP409      0.0001
     79  CH2      -47.6360   22.8000   17.3260 C.ar  409  TRP409      0.0015
     80  N        -44.5010   27.5780   26.0240 N.3   416  LEU416     -0.1245
     81  CA       -44.6420   26.2640   26.6480 C.3   416  LEU416      0.1561
     82  C        -43.5280   26.0360   27.6760 C.2   416  LEU416      0.2260
     83  O        -43.7730   25.6040   28.7980 O.2   416  LEU416     -0.2867
     84  CB       -44.5930   25.1500   25.6040 C.3   416  LEU416      0.0270
     85  CG       -44.7670   23.7170   26.1450 C.3   416  LEU416      0.0019
     86  CD1      -46.0990   23.5200   26.8810 C.3   416  LEU416      0.0001
     87  CD2      -44.6300   22.7180   25.0030 C.3   416  LEU416      0.0001
     88  N        -44.1050   25.6610   31.6280 N.3   420  GLU420     -0.1245
     89  CA       -43.6720   24.4330   32.2480 C.3   420  GLU420      0.1567
     90  C        -42.6580   24.7080   33.3470 C.2   420  GLU420      0.2260
     91  O        -42.7590   24.1160   34.4140 O.2   420  GLU420     -0.2867
     92  CB       -43.0950   23.4400   31.2510 C.3   420  GLU420      0.0388
     93  CG       -44.1340   22.8620   30.3260 C.3   420  GLU420      0.1160
     94  CD       -44.9730   21.7610   30.9310 C.2   420  GLU420      0.3649
     95  OE1      -44.8690   21.4680   32.1510 O.co2 420  GLU420     -0.2457
     96  OE2      -45.7480   21.1670   30.1590 O.co2 420  GLU420     -0.2457
@<TRIPOS>BOND
     1    61    60    2
     2    28    27    1
     3    60    59    1
     4    72    74   ar
     5    72    71   ar
     6    74    75   ar
     7    29    27    1
     8    27    26    2
     9    59    62    1
    10    59    58    1
    11    62    63    1
    12    21    20    1
    13    21    22    2
    14    20    23    1
    15    20    19    1
    16    71    70    1
    17    71    73   ar
    18    75    77   ar
    19    75    73   ar
    20    24    23    1
    21    24    25    1
    22    26    25    1
    23    70    67    1
    24    66    67    1
    25    77    79   ar
    26    73    76   ar
    27    63    65   am
    28    63    64    2
    29    67    68    1
    30    79    78   ar
    31    68    69    2
    32    76    78   ar
    33    10    11    2
    34    10     9    1
    35     4     3    2
    36     9    12    1
    37     9     8    1
    38    14    16   ar
    39    14    13   ar
    40    12    13    1
    41    52    51    2
    42     3     8   am
    43     3     2    1
    44    51    50    1
    45    16    18   ar
    46    13    15   ar
    47     2     1    1
    48     2     5    1
    49    50    49    1
    50    50    53    1
    51     1     7    1
    52    18    17   ar
    53    15    17   ar
    54     5     6    1
    55    53    54    1
    56     7     6    1
    57    55    54    1
    58    55    56    1
    59    44    43    2
    60    56    57    1
    61    43    42    1
    62    87    85    1
    63    33    32    2
    64    84    85    1
    65    84    81    1
    66    42    45    1
    67    42    41    1
    68    48    46    1
    69    80    81    1
    70    85    86    1
    71    32    41   am
    72    32    31    1
    73    45    46    1
    74    81    82    1
    75    46    47    1
    76    31    34    1
    77    31    30    1
    78    82    83    2
    79    34    35    1
    80    35    36    1
    81    36    37    1
    82    96    94   ar
    83    93    94    1
    84    93    92    1
    85    37    38    2
    86    94    95   ar
    87    92    89    1
    88    88    89    1
    89    38    39    1
    90    38    40    1
    91    89    90    1
    92    90    91    2
