@<TRIPOS>MOLECULE
tmp/2yp6B00.pdb
 86 83 0 0 0
SMALL
GASTEIGER

@<TRIPOS>ATOM
      1  N         39.7490    6.0120   14.8990 N.3    35  TRP35      -0.1241
      2  CA        38.9230    5.0510   14.1930 C.3    35  TRP35       0.1605
      3  C         39.7000    3.8400   13.6840 C.2    35  TRP35       0.2264
      4  O         40.8990    3.7490   13.8500 O.2    35  TRP35      -0.2867
      5  CB        38.1380    5.7180   13.0620 C.3    35  TRP35       0.0550
      6  CG        38.9370    6.1890   11.8810 C.ar   35  TRP35       0.0003
      7  CD1       39.8340    7.2240   11.8480 C.ar   35  TRP35       0.0946
      8  CD2       38.8700    5.6790   10.5380 C.ar   35  TRP35       0.0152
      9  NE1       40.3230    7.3800   10.5690 N.ar   35  TRP35      -0.2442
     10  CE2       39.7570    6.4350    9.7550 C.ar   35  TRP35       0.0810
     11  CE3       38.1410    4.6510    9.9310 C.ar   35  TRP35       0.0012
     12  CZ2       39.9410    6.2030    8.3890 C.ar   35  TRP35       0.0191
     13  CZ3       38.3390    4.4140    8.5810 C.ar   35  TRP35       0.0001
     14  CH2       39.2150    5.1960    7.8240 C.ar   35  TRP35       0.0015
     15  N         38.0110   -1.6720   10.5110 N.3    38  TRP38      -0.1241
     16  CA        37.2070   -2.8510   10.8900 C.3    38  TRP38       0.1605
     17  C         35.9520   -2.4990   11.6890 C.2    38  TRP38       0.2264
     18  O         35.1240   -3.3560   11.9340 O.2    38  TRP38      -0.2867
     19  CB        38.0490   -3.8760   11.6620 C.3    38  TRP38       0.0550
     20  CG        38.8290   -3.3410   12.8140 C.ar   38  TRP38       0.0003
     21  CD1       40.1730   -3.0710   12.8340 C.ar   38  TRP38       0.0946
     22  CD2       38.3360   -2.9980   14.1200 C.ar   38  TRP38       0.0152
     23  NE1       40.5450   -2.5980   14.0650 N.ar   38  TRP38      -0.2442
     24  CE2       39.4390   -2.5390   14.8750 C.ar   38  TRP38       0.0810
     25  CE3       37.0760   -3.0520   14.7320 C.ar   38  TRP38       0.0012
     26  CZ2       39.3190   -2.1130   16.2030 C.ar   38  TRP38       0.0191
     27  CZ3       36.9590   -2.6380   16.0570 C.ar   38  TRP38       0.0001
     28  CH2       38.0800   -2.1780   16.7750 C.ar   38  TRP38       0.0015
     29  N         45.5460    2.9980   13.7380 N.3    67  ALA67      -0.1245
     30  CA        46.7330    2.3020   14.2250 C.3    67  ALA67       0.1562
     31  C         47.0260    1.1770   13.2350 C.2    67  ALA67       0.2260
     32  O         46.5980    0.0620   13.4470 O.2    67  ALA67      -0.2867
     33  CB        46.4820    1.7510   15.6400 C.3    67  ALA67       0.0290
     34  N         47.6020   -2.8320   13.6700 N.3    70  ILE70      -0.1231
     35  CA        47.4430   -3.1600   15.0840 C.3    70  ILE70       0.1692
     36  C         46.0330   -3.6420   15.3730 C.2    70  ILE70       0.2592
     37  O         45.0490   -3.0090   15.0180 O.2    70  ILE70      -0.2718
     38  CB        47.8420   -1.9580   15.9840 C.3    70  ILE70       0.0266
     39  CG1       49.3220   -1.6140   15.7270 C.3    70  ILE70       0.0019
     40  CG2       47.6110   -2.2650   17.4720 C.3    70  ILE70       0.0020
     41  CD1       49.8120   -0.4260   16.4730 C.3    70  ILE70       0.0001
     42  N         45.9680   -4.8120   16.0060 N.am   71  GLN71      -0.1966
     43  CA        44.7280   -5.4340   16.4000 C.3    71  GLN71       0.1733
     44  C         43.7400   -5.5040   15.2500 C.2    71  GLN71       0.2616
     45  O         42.5540   -5.2710   15.4320 O.2    71  GLN71      -0.2715
     46  CB        44.1290   -4.7430   17.6300 C.3    71  GLN71       0.0408
     47  CG        43.4670   -5.6940   18.5920 C.3    71  GLN71       0.0908
     48  CD        44.4300   -6.6790   19.2570 C.2    71  GLN71       0.2608
     49  OE1       45.6380   -6.6540   19.0370 O.2    71  GLN71      -0.2717
     50  NE2       43.8820   -7.5510   20.0790 N.am   71  GLN71      -0.0878
     51  N         44.2360   -5.8840   14.0700 N.am   72  GLY72      -0.1955
     52  CA        43.3680   -6.1730   12.9360 C.3    72  GLY72       0.1869
     53  C         43.2730   -5.0480   11.9160 C.2    72  GLY72       0.2309
     54  O         42.7130   -5.2370   10.8490 O.2    72  GLY72      -0.2863
     55  N         50.6570    2.8350   18.5410 N.3    99  ALA99      -0.1245
     56  CA        49.4410    2.9190   19.3450 C.3    99  ALA99       0.1562
     57  C         49.5370    3.8930   20.5130 C.2    99  ALA99       0.2260
     58  O         48.6740    3.8990   21.3970 O.2    99  ALA99      -0.2867
     59  CB        49.0550    1.5430   19.8520 C.3    99  ALA99       0.0290
     60  N         46.5970    6.6360   20.5360 N.3   102  PHE102     -0.1241
     61  CA        45.4150    5.9900   21.0980 C.3   102  PHE102      0.1605
     62  C         45.5490    5.8370   22.6110 C.2   102  PHE102      0.2264
     63  O         44.6020    6.0680   23.3530 O.2   102  PHE102     -0.2867
     64  CB        45.2240    4.6060   20.4800 C.3   102  PHE102      0.0534
     65  CG        44.4310    4.6120   19.1970 C.ar  102  PHE102     -0.0203
     66  CD1       45.0330    4.9650   17.9830 C.ar  102  PHE102     -0.0042
     67  CD2       43.1080    4.2400   19.2020 C.ar  102  PHE102     -0.0042
     68  CE1       44.3040    4.9420   16.8020 C.ar  102  PHE102     -0.0003
     69  CE2       42.3630    4.2360   18.0370 C.ar  102  PHE102     -0.0003
     70  CZ        42.9530    4.5970   16.8390 C.ar  102  PHE102     -0.0000
     71  N         41.6720    6.0990   24.5750 N.3   107  ILE107     -0.1245
     72  CA        40.5810    5.5910   23.7410 C.3   107  ILE107      0.1561
     73  C         40.0410    4.3130   24.3750 C.2   107  ILE107      0.2260
     74  O         40.8130    3.4070   24.7060 O.2   107  ILE107     -0.2867
     75  CB        41.0510    5.3370   22.3010 C.3   107  ILE107      0.0252
     76  CG1       41.5800    6.6260   21.6810 C.3   107  ILE107      0.0019
     77  CG2       39.9310    4.8420   21.4230 C.3   107  ILE107      0.0019
     78  CD1       40.5810    7.7820   21.6750 C.3   107  ILE107      0.0001
     79  N         35.5200    3.0630   19.6810 N.3   110  ILE110     -0.1245
     80  CA        35.6110    3.8490   18.4470 C.3   110  ILE110      0.1561
     81  C         34.3100    3.8050   17.6910 C.2   110  ILE110      0.2260
     82  O         33.5380    2.8560   17.8190 O.2   110  ILE110     -0.2867
     83  CB        36.7890    3.3830   17.5410 C.3   110  ILE110      0.0252
     84  CG1       36.8090    1.8720   17.4120 C.3   110  ILE110      0.0019
     85  CG2       38.1160    3.8770   18.0890 C.3   110  ILE110      0.0019
     86  CD1       37.8510    1.3870   16.4270 C.3   110  ILE110      0.0001
@<TRIPOS>BOND
     1    14    12   ar
     2    14    13   ar
     3    12    10   ar
     4    13    11   ar
     5    10     8   ar
     6    10     9   ar
     7    11     8   ar
     8    15    16    1
     9     8     6   ar
    10     9     7   ar
    11    54    53    2
    12    16    19    1
    13    16    17    1
    14    19    20    1
    15    17    18    2
    16     7     6   ar
    17     6     5    1
    18    53    52    1
    19    20    21   ar
    20    20    22   ar
    21    21    23   ar
    22    52    51    1
    23     5     2    1
    24    31    32    2
    25    31    30    1
    26    34    35    1
    27     3     4    2
    28     3     2    1
    29    29    30    1
    30    23    24   ar
    31    51    44   am
    32    22    25   ar
    33    22    24   ar
    34     2     1    1
    35    30    33    1
    36    25    27   ar
    37    24    26   ar
    38    37    36    2
    39    35    36    1
    40    35    38    1
    41    44    45    2
    42    44    43    1
    43    36    42   am
    44    39    38    1
    45    39    41    1
    46    38    40    1
    47    42    43    1
    48    27    28   ar
    49    26    28   ar
    50    43    46    1
    51    86    84    1
    52    68    70   ar
    53    68    66   ar
    54    70    69   ar
    55    84    83    1
    56    83    85    1
    57    83    80    1
    58    46    47    1
    59    81    82    2
    60    81    80    1
    61    66    65   ar
    62    69    67   ar
    63    80    79    1
    64    55    56    1
    65    47    48    1
    66    49    48    2
    67    65    67   ar
    68    65    64    1
    69    48    50   am
    70    56    59    1
    71    56    57    1
    72    64    61    1
    73    57    58    2
    74    60    61    1
    75    61    62    1
    76    77    75    1
    77    78    76    1
    78    76    75    1
    79    75    72    1
    80    62    63    2
    81    72    73    1
    82    72    71    1
    83    73    74    2
