@<TRIPOS>MOLECULE
tmp/2yp6D01.pdb
 88 83 0 0 0
SMALL
GASTEIGER

@<TRIPOS>ATOM
      1  N         19.9100   -9.8810   53.9610 N.3    14  SER14      -0.1202
      2  CA        18.5630   -9.7870   54.4970 C.3    14  SER14       0.2020
      3  C         18.5380   -8.7250   55.5830 C.2    14  SER14       0.2619
      4  O         19.5750   -8.3380   56.1160 O.2    14  SER14      -0.2717
      5  CB        18.1430  -11.1160   55.0960 C.3    14  SER14       0.2103
      6  OG        18.9410  -11.3750   56.2260 O.3    14  SER14      -0.2182
      7  N         17.3450   -8.2570   55.9180 N.am   15  MET15      -0.1965
      8  CA        17.1530   -7.2920   57.0240 C.3    15  MET15       0.1736
      9  C         17.8970   -7.7050   58.2810 C.2    15  MET15       0.2616
     10  O         18.4290   -6.8580   59.0130 O.2    15  MET15      -0.2715
     11  CB        15.6410   -7.2280   57.2800 C.3    15  MET15       0.0427
     12  CG        15.1580   -6.4570   58.4630 C.3    15  MET15       0.0599
     13  SD        13.4020   -6.1560   58.1880 S.3    15  MET15      -0.1393
     14  CE        12.7710   -7.7850   58.1410 C.3    15  MET15       0.0692
     15  N         17.9220   -9.0090   58.5410 N.am   16  ASP16      -0.1971
     16  CA        18.5820   -9.5450   59.7330 C.3    16  ASP16       0.1709
     17  C         20.0650   -9.8640   59.5070 C.2    16  ASP16       0.2293
     18  O         20.7000  -10.4780   60.3540 O.2    16  ASP16      -0.2864
     19  CB        17.8400  -10.7920   60.2460 C.3    16  ASP16       0.1436
     20  CG        17.7910  -11.9120   59.2260 C.2    16  ASP16       0.3671
     21  OD1       17.9280  -11.6250   58.0220 O.co2  16  ASP16      -0.2456
     22  OD2       17.6070  -13.0840   59.6230 O.co2  16  ASP16      -0.2456
     23  N         21.8020  -11.6270   57.0780 N.3    18  LYS18      -0.1245
     24  CA        22.2420  -12.8960   56.5110 C.3    18  LYS18       0.1561
     25  C         22.3770  -12.7560   55.0070 C.2    18  LYS18       0.2260
     26  O         21.5630  -12.1010   54.3710 O.2    18  LYS18      -0.2867
     27  CB        21.2280  -14.0020   56.8200 C.3    18  LYS18       0.0271
     28  CG        21.1030  -14.3320   58.3000 C.3    18  LYS18       0.0035
     29  CD        21.2690  -15.8300   58.5640 C.3    18  LYS18       0.0206
     30  CE        20.8930  -16.2020   59.9950 C.3    18  LYS18       0.1093
     31  NZ        21.5560  -15.3190   61.0030 N.3    18  LYS18      -0.1314
     32  N         21.7430  -14.1390   51.4550 N.3    20  VAL20      -0.1245
     33  CA        20.7760  -15.0560   50.8650 C.3    20  VAL20       0.1561
     34  C         20.9560  -15.1100   49.3520 C.2    20  VAL20       0.2260
     35  O         20.9550  -14.0810   48.6710 O.2    20  VAL20      -0.2867
     36  CB        19.3100  -14.6190   51.1910 C.3    20  VAL20       0.0252
     37  CG1       18.3190  -15.5890   50.6000 C.3    20  VAL20       0.0019
     38  CG2       19.1000  -14.5180   52.6960 C.3    20  VAL20       0.0019
     39  N         18.3150  -22.1300   47.4020 N.3    25  PHE25      -0.1241
     40  CA        17.0260  -22.8120   47.5210 C.3    25  PHE25       0.1605
     41  C         16.7020  -23.8280   46.4210 C.2    25  PHE25       0.2264
     42  O         15.5910  -24.3820   46.3950 O.2    25  PHE25      -0.2867
     43  CB        15.9060  -21.7810   47.6560 C.3    25  PHE25       0.0534
     44  CG        16.0640  -20.9250   48.8660 C.ar   25  PHE25      -0.0203
     45  CD1       15.6820  -21.4030   50.1150 C.ar   25  PHE25      -0.0042
     46  CD2       16.6860  -19.6920   48.7790 C.ar   25  PHE25      -0.0042
     47  CE1       15.8730  -20.6380   51.2540 C.ar   25  PHE25      -0.0003
     48  CE2       16.8670  -18.9090   49.9140 C.ar   25  PHE25      -0.0003
     49  CZ        16.4620  -19.3810   51.1480 C.ar   25  PHE25      -0.0000
     50  N          9.7660  -21.9130   49.8830 N.3    61  GLU61      -0.1245
     51  CA        10.3040  -20.8640   50.7320 C.3    61  GLU61       0.1567
     52  C          9.7640  -19.5150   50.2830 C.2    61  GLU61       0.2260
     53  O          9.6880  -19.2300   49.0920 O.2    61  GLU61      -0.2867
     54  CB        11.8230  -20.8550   50.6090 C.3    61  GLU61       0.0388
     55  CG        12.5390  -19.6530   51.1780 C.3    61  GLU61       0.1160
     56  CD        12.7440  -19.7520   52.6790 C.2    61  GLU61       0.3649
     57  OE1       12.6820  -20.8900   53.2190 O.co2  61  GLU61      -0.2457
     58  OE2       12.9640  -18.6790   53.2970 O.co2  61  GLU61      -0.2457
     59  N         10.4360  -15.5610   50.1130 N.3    63  LEU63      -0.1245
     60  CA        11.4350  -14.4880   50.1210 C.3    63  LEU63       0.1561
     61  C         10.7820  -13.2320   49.5830 C.2    63  LEU63       0.2260
     62  O         10.0910  -13.2710   48.5660 O.2    63  LEU63      -0.2867
     63  CB        12.6660  -14.8370   49.2410 C.3    63  LEU63       0.0270
     64  CG        13.5210  -16.0580   49.5950 C.3    63  LEU63       0.0019
     65  CD1       14.5720  -16.3710   48.5160 C.3    63  LEU63       0.0001
     66  CD2       14.2090  -15.9440   50.9760 C.3    63  LEU63       0.0001
     67  N          8.9160  -13.0710   57.9320 N.3    91  ILE91      -0.1231
     68  CA         8.9680  -12.9250   56.4790 C.3    91  ILE91       0.1678
     69  C         10.3520  -12.4120   56.1370 C.2    91  ILE91       0.2434
     70  O         10.7330  -11.3170   56.5600 O.2    91  ILE91      -0.2733
     71  CB         7.9650  -11.8720   55.9880 C.3    91  ILE91       0.0265
     72  CG1        6.5310  -12.2860   56.3040 C.3    91  ILE91       0.0019
     73  CG2        8.1390  -11.6160   54.4660 C.3    91  ILE91       0.0020
     74  CD1        6.1470  -13.6300   55.7830 C.3    91  ILE91       0.0001
     75  N         11.1290  -13.1880   55.3730 N.am   92  PRO92      -0.2718
     76  CA        12.4340  -12.6490   54.9670 C.3    92  PRO92       0.1535
     77  C         12.3050  -11.4210   54.0810 C.2    92  PRO92       0.2598
     78  O         11.4860  -11.3780   53.1490 O.2    92  PRO92      -0.2715
     79  CB        13.0600  -13.8040   54.1660 C.3    92  PRO92       0.0310
     80  CG        12.3520  -15.0510   54.6870 C.3    92  PRO92       0.0237
     81  CD        10.9470  -14.5880   54.9550 C.3    92  PRO92       0.0939
     82  N         13.1270  -10.4190   54.3670 N.am   93  VAL93      -0.1978
     83  CA        13.1340   -9.2030   53.5520 C.3    93  VAL93       0.1596
     84  C         14.5550   -8.9810   53.0890 C.2    93  VAL93       0.2287
     85  O         15.4650   -8.7930   53.9060 O.2    93  VAL93      -0.2864
     86  CB        12.6690   -7.9320   54.3140 C.3    93  VAL93       0.0276
     87  CG1       12.7960   -6.7110   53.3800 C.3    93  VAL93       0.0022
     88  CG2       11.2380   -8.0750   54.7850 C.3    93  VAL93       0.0022
@<TRIPOS>BOND
     1    42    41    2
     2    41    40    1
     3    39    40    1
     4    40    43    1
     5    43    44    1
     6    65    64    1
     7    62    61    2
     8    35    34    2
     9    46    44   ar
    10    46    48   ar
    11    44    45   ar
    12    53    52    2
    13    63    64    1
    14    63    60    1
    15    34    33    1
    16    61    60    1
    17    64    66    1
    18    50    51    1
    19    48    49   ar
    20    59    60    1
    21    45    47   ar
    22    52    51    1
    23    37    36    1
    24    54    51    1
    25    54    55    1
    26    33    36    1
    27    33    32    1
    28    49    47   ar
    29    55    56    1
    30    36    38    1
    31    56    57   ar
    32    56    58   ar
    33    84    83    1
    34    84    85    2
    35    78    77    2
    36    87    86    1
    37    83    86    1
    38    83    82    1
    39     1     2    1
    40    77    82   am
    41    77    76    1
    42    79    80    1
    43    79    76    1
    44    86    88    1
    45    26    25    2
    46    73    71    1
    47     2     5    1
    48     2     3    1
    49    80    81    1
    50    81    75    1
    51    76    75    1
    52    25    24    1
    53     5     6    1
    54    75    69   am
    55     3     7   am
    56     3     4    2
    57    74    72    1
    58     7     8    1
    59    71    72    1
    60    71    68    1
    61    69    68    1
    62    69    70    2
    63    68    67    1
    64    24    27    1
    65    24    23    1
    66    27    28    1
    67     8    11    1
    68     8     9    1
    69    11    12    1
    70    21    20   ar
    71    14    13    1
    72    13    12    1
    73     9    15   am
    74     9    10    2
    75    28    29    1
    76    15    16    1
    77    29    30    1
    78    20    22   ar
    79    20    19    1
    80    17    16    1
    81    17    18    2
    82    16    19    1
    83    30    31    1
