@<TRIPOS>MOLECULE
tmp/2ypeA00.pdb
 93 89 0 0 0
SMALL
GASTEIGER

@<TRIPOS>ATOM
      1  N         45.7120   10.2380   85.6130 N.3     6  LEU6       -0.1231
      2  CA        45.5120    8.9040   85.0700 C.3     6  LEU6        0.1693
      3  C         45.8450    8.9430   83.5850 C.2     6  LEU6        0.2592
      4  O         46.4620    8.0230   83.0480 O.2     6  LEU6       -0.2718
      5  CB        44.0670    8.4510   85.2750 C.3     6  LEU6        0.0284
      6  CG        43.7070    7.0630   84.7390 C.3     6  LEU6        0.0019
      7  CD1       44.4860    5.9730   85.4580 C.3     6  LEU6        0.0001
      8  CD2       42.2110    6.8250   84.8660 C.3     6  LEU6        0.0001
      9  N         45.4320   10.0220   82.9260 N.am    7  TYR7       -0.1976
     10  CA        45.7680   10.2390   81.5240 C.3     7  TYR7        0.1639
     11  C         45.5500   11.6950   81.1200 C.2     7  TYR7        0.2290
     12  O         44.8060   12.4260   81.7710 O.2     7  TYR7       -0.2864
     13  CB        44.9460    9.3160   80.6190 C.3     7  TYR7        0.0560
     14  CG        43.4510    9.5400   80.6870 C.ar    7  TYR7       -0.0198
     15  CD1       42.6830    8.9290   81.6680 C.ar    7  TYR7       -0.0009
     16  CD2       42.8080   10.3540   79.7650 C.ar    7  TYR7       -0.0009
     17  CE1       41.3190    9.1270   81.7340 C.ar    7  TYR7        0.0417
     18  CE2       41.4430   10.5560   79.8220 C.ar    7  TYR7        0.0417
     19  CZ        40.7040    9.9390   80.8080 C.ar    7  TYR7        0.1957
     20  OH        39.3440   10.1370   80.8770 O.3     7  TYR7       -0.2866
     21  N         35.9960   12.0130   75.3810 N.3    69  HIS69      -0.1241
     22  CA        37.3460   12.5550   75.3640 C.3    69  HIS69       0.1621
     23  C         38.2280   11.8290   74.3610 C.2    69  HIS69       0.2264
     24  O         37.9720   10.6800   74.0030 O.2    69  HIS69      -0.2867
     25  CB        37.9760   12.4620   76.7540 C.3    69  HIS69       0.0745
     26  CG        38.3270   11.0680   77.1640 C.ar   69  HIS69       0.0817
     27  ND1       37.4500   10.2410   77.8320 N.ar   69  HIS69      -0.2268
     28  CD2       39.4660   10.3500   77.0010 C.ar   69  HIS69       0.1154
     29  CE1       38.0280    9.0750   78.0580 C.ar   69  HIS69       0.1986
     30  NE2       39.2550    9.1200   77.5660 N.ar   69  HIS69      -0.2212
     31  N         41.9800   10.6520   74.2280 N.3    71  THR71      -0.1203
     32  CA        43.1730   10.4430   75.0350 C.3    71  THR71       0.1994
     33  C         44.4320   10.6930   74.2210 C.2    71  THR71       0.2618
     34  O         44.5100   10.3130   73.0550 O.2    71  THR71      -0.2717
     35  CB        43.2300    9.0020   75.5680 C.3    71  THR71       0.1784
     36  OG1       42.0940    8.7520   76.4030 O.3    71  THR71      -0.2211
     37  CG2       44.5060    8.7730   76.3660 C.3    71  THR71       0.0376
     38  N         45.4200   11.3310   74.8410 N.am   72  THR72      -0.1952
     39  CA        46.7230   11.4850   74.2080 C.3    72  THR72       0.1897
     40  C         47.7200   10.5140   74.8310 C.2    72  THR72       0.2313
     41  O         48.2790    9.6630   74.1400 O.2    72  THR72      -0.2863
     42  CB        47.2700   12.9250   74.3190 C.3    72  THR72       0.1794
     43  OG1       47.3630   13.3120   75.6970 O.3    72  THR72      -0.2208
     44  CG2       46.3760   13.9000   73.5670 C.3    72  THR72       0.0378
     45  N         48.1880    7.9050   78.2180 N.3    74  PHE74      -0.1241
     46  CA        47.7790    7.2400   79.4460 C.3    74  PHE74       0.1605
     47  C         48.9880    7.1530   80.3720 C.2    74  PHE74       0.2264
     48  O         50.0150    6.5800   80.0080 O.2    74  PHE74      -0.2867
     49  CB        47.2360    5.8450   79.1300 C.3    74  PHE74       0.0534
     50  CG        46.8560    5.0510   80.3440 C.ar   74  PHE74      -0.0203
     51  CD1       45.6560    5.2850   80.9940 C.ar   74  PHE74      -0.0042
     52  CD2       47.6950    4.0630   80.8320 C.ar   74  PHE74      -0.0042
     53  CE1       45.3020    4.5550   82.1120 C.ar   74  PHE74      -0.0003
     54  CE2       47.3460    3.3280   81.9490 C.ar   74  PHE74      -0.0003
     55  CZ        46.1480    3.5740   82.5900 C.ar   74  PHE74      -0.0000
     56  N         46.3520    6.8230   65.8360 N.3   146  ARG146     -0.1245
     57  CA        45.5920    6.1600   66.8890 C.3   146  ARG146      0.1563
     58  C         44.5350    7.0820   67.4970 C.2   146  ARG146      0.2260
     59  O         43.6050    6.6180   68.1560 O.2   146  ARG146     -0.2867
     60  CB        46.5520    5.6750   67.9770 C.3   146  ARG146      0.0307
     61  CG        45.8980    5.0030   69.1730 C.3   146  ARG146      0.0489
     62  CD        46.9590    4.5460   70.1720 C.3   146  ARG146      0.2205
     63  NE        46.4130    3.6920   71.2240 N.pl3 146  ARG146     -0.0865
     64  CZ        47.1440    3.1000   72.1630 C.cat 146  ARG146      0.5346
     65  NH1       48.4610    3.2640   72.1900 N.pl3 146  ARG146      0.1354
     66  NH2       46.5600    2.3410   73.0790 N.pl3 146  ARG146      0.1354
     67  N         41.5200    8.8740   68.6310 N.3   148  SER148     -0.1217
     68  CA        40.1230    8.4880   68.4930 C.3   148  SER148      0.1889
     69  C         39.3060    8.8440   69.7280 C.2   148  SER148      0.2288
     70  O         39.8470    9.2690   70.7490 O.2   148  SER148     -0.2866
     71  CB        40.0210    6.9830   68.2470 C.3   148  SER148      0.2089
     72  OG        40.5870    6.2550   69.3250 O.3   148  SER148     -0.2183
     73  N         36.3010    6.9850   72.1280 N.3   150  THR150     -0.1218
     74  CA        35.5480    5.7770   72.4440 C.3   150  THR150      0.1862
     75  C         34.0650    6.0960   72.5800 C.2   150  THR150      0.2287
     76  O         33.6830    6.9560   73.3720 O.2   150  THR150     -0.2866
     77  CB        36.0210    5.1650   73.7760 C.3   150  THR150      0.1770
     78  OG1       37.4140    4.8320   73.6950 O.3   150  THR150     -0.2211
     79  CG2       35.2040    3.9210   74.1250 C.3   150  THR150      0.0375
     80  N         38.1600    0.1850   77.0410 N.3   159  PRO159     -0.2102
     81  CA        38.1730    1.3610   76.1620 C.3   159  PRO159      0.1504
     82  C         39.4750    1.5500   75.3810 C.2   159  PRO159      0.2575
     83  O         39.4430    2.0880   74.2740 O.2   159  PRO159     -0.2718
     84  CB        37.9670    2.5250   77.1370 C.3   159  PRO159      0.0282
     85  CG        37.1940    1.9350   78.2560 C.3   159  PRO159      0.0208
     86  CD        37.7010    0.5250   78.4010 C.3   159  PRO159      0.0893
     87  N         40.5990    1.1250   75.9460 N.am  160  VAL160     -0.1980
     88  CA        41.8840    1.2570   75.2640 C.3   160  VAL160      0.1595
     89  C         41.8600    0.5640   73.9000 C.2   160  VAL160      0.2287
     90  O         42.5900    0.9460   72.9850 O.2   160  VAL160     -0.2864
     91  CB        43.0370    0.6730   76.1070 C.3   160  VAL160      0.0276
     92  CG1       42.8170   -0.8110   76.3670 C.3   160  VAL160      0.0022
     93  CG2       44.3740    0.9030   75.4130 C.3   160  VAL160      0.0022
@<TRIPOS>BOND
     1    56    57    1
     2    57    58    1
     3    57    60    1
     4    58    59    2
     5    60    61    1
     6    71    68    1
     7    71    72    1
     8    68    67    1
     9    68    69    1
    10    61    62    1
    11    69    70    2
    12    62    63    1
    13    63    64    2
    14    73    74    1
    15    64    65    1
    16    64    66    1
    17    74    75    1
    18    74    77    1
    19    75    76    2
    20    90    89    2
    21    34    33    2
    22    44    42    1
    23    78    77    1
    24    77    79    1
    25    89    88    1
    26    24    23    2
    27    41    40    2
    28    39    42    1
    29    39    40    1
    30    39    38    1
    31    33    38   am
    32    33    32    1
    33    31    32    1
    34    83    82    2
    35    42    43    1
    36    23    22    1
    37    32    35    1
    38    88    87    1
    39    88    91    1
    40    22    21    1
    41    22    25    1
    42    82    87   am
    43    82    81    1
    44    93    91    1
    45    35    37    1
    46    35    36    1
    47    91    92    1
    48    81    80    1
    49    81    84    1
    50    25    26    1
    51    28    26   ar
    52    28    30   ar
    53    80    86    1
    54    84    85    1
    55    26    27   ar
    56    30    29   ar
    57    27    29   ar
    58    45    46    1
    59    85    86    1
    60    49    46    1
    61    49    50    1
    62    46    47    1
    63    16    18   ar
    64    16    14   ar
    65    18    19   ar
    66    48    47    2
    67    50    52   ar
    68    50    51   ar
    69    13    14    1
    70    13    10    1
    71    14    15   ar
    72    19    20    1
    73    19    17   ar
    74    52    54   ar
    75    51    53   ar
    76    11    10    1
    77    11    12    2
    78    10     9    1
    79    15    17   ar
    80    54    55   ar
    81    53    55   ar
    82     9     3   am
    83     4     3    2
    84     3     2    1
    85     6     8    1
    86     6     5    1
    87     6     7    1
    88     2     5    1
    89     2     1    1
