@<TRIPOS>MOLECULE
tmp/2yplD00.pdb
 90 88 0 0 0
SMALL
GASTEIGER

@<TRIPOS>ATOM
      1  N          5.6020  -42.7610   44.9420 N.3    27  SER27      -0.1217
      2  CA         4.4530  -41.9860   44.4960 C.3    27  SER27       0.1889
      3  C          3.8900  -41.0400   45.5620 C.2    27  SER27       0.2288
      4  O          3.0130  -40.2300   45.2730 O.2    27  SER27      -0.2866
      5  CB         3.3680  -42.9350   44.0050 C.3    27  SER27       0.2089
      6  OG         3.7230  -43.4310   42.7320 O.3    27  SER27      -0.2183
      7  N          3.7980  -37.9990   47.0550 N.3    29  THR29      -0.1203
      8  CA         4.2830  -36.6640   46.7380 C.3    29  THR29       0.1994
      9  C          3.6930  -35.5790   47.6540 C.2    29  THR29       0.2617
     10  O          4.1030  -34.4150   47.5960 O.2    29  THR29      -0.2717
     11  CB         4.0070  -36.3470   45.2640 C.3    29  THR29       0.1784
     12  OG1        2.6950  -36.7990   44.9410 O.3    29  THR29      -0.2211
     13  CG2        4.9800  -37.1010   44.3810 C.3    29  THR29       0.0376
     14  N          2.7500  -35.9650   48.5080 N.am   30  TYR30      -0.1975
     15  CA         2.1540  -35.0270   49.4420 C.3    30  TYR30       0.1639
     16  C          2.3350  -35.5920   50.8370 C.2    30  TYR30       0.2290
     17  O          1.8120  -36.6650   51.1610 O.2    30  TYR30      -0.2864
     18  CB         0.6670  -34.7620   49.1280 C.3    30  TYR30       0.0560
     19  CG         0.3770  -34.4590   47.6630 C.ar   30  TYR30      -0.0198
     20  CD1        0.5650  -33.1840   47.1400 C.ar   30  TYR30      -0.0009
     21  CD2       -0.0970  -35.4490   46.8080 C.ar   30  TYR30      -0.0009
     22  CE1        0.3060  -32.9060   45.8030 C.ar   30  TYR30       0.0417
     23  CE2       -0.3620  -35.1790   45.4730 C.ar   30  TYR30       0.0417
     24  CZ        -0.1540  -33.9130   44.9810 C.ar   30  TYR30       0.1957
     25  OH        -0.4020  -33.6650   43.6600 O.3    30  TYR30      -0.2866
     26  N          2.5710  -34.8960   55.1690 N.3    32  TYR32      -0.1241
     27  CA         1.9040  -34.0950   56.1740 C.3    32  TYR32       0.1605
     28  C          2.3440  -34.4550   57.5790 C.2    32  TYR32       0.2264
     29  O          2.8100  -35.5780   57.8200 O.2    32  TYR32      -0.2867
     30  CB         0.3830  -34.3470   56.0930 C.3    32  TYR32       0.0534
     31  CG        -0.2630  -34.0210   54.7600 C.ar   32  TYR32      -0.0201
     32  CD1       -0.3100  -34.9630   53.7390 C.ar   32  TYR32      -0.0009
     33  CD2       -0.8500  -32.7910   54.5420 C.ar   32  TYR32      -0.0009
     34  CE1       -0.8970  -34.6680   52.5210 C.ar   32  TYR32       0.0417
     35  CE2       -1.4500  -32.4850   53.3350 C.ar   32  TYR32       0.0417
     36  CZ        -1.4800  -33.4290   52.3360 C.ar   32  TYR32       0.1957
     37  OH        -2.0690  -33.1280   51.1280 O.3    32  TYR32      -0.2866
     38  N          5.4000  -30.7440   49.5540 N.3    49  PHE49      -0.1241
     39  CA         5.4480  -31.5460   48.3350 C.3    49  PHE49       0.1605
     40  C          6.8340  -32.2120   48.2300 C.2    49  PHE49       0.2264
     41  O          7.8120  -31.6740   48.7530 O.2    49  PHE49      -0.2867
     42  CB         5.1240  -30.6930   47.1080 C.3    49  PHE49       0.0534
     43  CG         3.8730  -29.8580   47.2450 C.ar   49  PHE49      -0.0203
     44  CD1        2.6020  -30.4510   47.2180 C.ar   49  PHE49      -0.0042
     45  CD2        3.9540  -28.4710   47.3690 C.ar   49  PHE49      -0.0042
     46  CE1        1.4560  -29.6870   47.3210 C.ar   49  PHE49      -0.0003
     47  CE2        2.7990  -27.6960   47.4830 C.ar   49  PHE49      -0.0003
     48  CZ         1.5470  -28.3040   47.4580 C.ar   49  PHE49      -0.0000
     49  N          0.3300  -39.1250   50.9450 N.3    91  SER91      -0.1202
     50  CA        -0.6520  -39.3490   49.9130 C.3    91  SER91       0.2020
     51  C          0.0370  -39.3140   48.5490 C.2    91  SER91       0.2619
     52  O          1.0440  -38.6030   48.3560 O.2    91  SER91      -0.2717
     53  CB        -1.6970  -38.2330   49.9710 C.3    91  SER91       0.2103
     54  OG        -2.6010  -38.3410   48.8960 O.3    91  SER91      -0.2182
     55  N         -0.5030  -40.0890   47.6140 N.am   92  GLY92      -0.1942
     56  CA        -0.1180  -39.9900   46.2160 C.3    92  GLY92       0.2014
     57  C         -1.0600  -39.1050   45.4290 C.2    92  GLY92       0.2639
     58  O         -0.8580  -38.8930   44.2330 O.2    92  GLY92      -0.2714
     59  N         -2.0900  -38.5780   46.0950 N.am   93  GLY93      -0.1939
     60  CA        -3.0850  -37.7350   45.4310 C.3    93  GLY93       0.2014
     61  C         -4.5130  -38.0750   45.8420 C.2    93  GLY93       0.2639
     62  O         -4.7510  -39.0860   46.5000 O.2    93  GLY93      -0.2714
     63  N         -5.4560  -37.2110   45.4650 N.am   94  TYR94      -0.1959
     64  CA        -6.8940  -37.3870   45.7530 C.3    94  TYR94       0.1771
     65  C         -7.1990  -37.5300   47.2470 C.2    94  TYR94       0.2619
     66  O         -8.2500  -38.0440   47.6430 O.2    94  TYR94      -0.2715
     67  CB        -7.5000  -38.5320   44.9110 C.3    94  TYR94       0.0574
     68  CG        -7.3150  -38.2970   43.4210 C.ar   94  TYR94      -0.0198
     69  CD1       -8.2520  -37.5680   42.6840 C.ar   94  TYR94      -0.0009
     70  CD2       -6.1760  -38.7740   42.7520 C.ar   94  TYR94      -0.0009
     71  CE1       -8.0680  -37.3300   41.3230 C.ar   94  TYR94       0.0417
     72  CE2       -5.9820  -38.5440   41.3970 C.ar   94  TYR94       0.0417
     73  CZ        -6.9240  -37.8160   40.6840 C.ar   94  TYR94       0.1957
     74  OH        -6.7340  -37.5930   39.3310 O.3    94  TYR94      -0.2866
     75  N         -6.2730  -37.0330   48.0670 N.am   95  GLN95      -0.1977
     76  CA        -6.3440  -37.1550   49.5260 C.3    95  GLN95       0.1601
     77  C         -6.4270  -38.6230   49.9770 C.2    95  GLN95       0.2287
     78  O         -6.9170  -38.9150   51.0670 O.2    95  GLN95      -0.2864
     79  CB        -7.5130  -36.3250   50.1010 C.3    95  GLN95       0.0394
     80  CG        -7.6880  -34.9300   49.4960 C.3    95  GLN95       0.0908
     81  CD        -6.9910  -33.8020   50.2550 C.2    95  GLN95       0.2608
     82  OE1       -7.3210  -32.6300   50.0530 O.2    95  GLN95      -0.2717
     83  NE2       -6.0390  -34.1380   51.1280 N.am   95  GLN95      -0.0878
     84  N         -4.8430  -40.8540   51.6340 N.3    97  VAL97      -0.1245
     85  CA        -3.7310  -40.7050   52.5540 C.3    97  VAL97       0.1561
     86  C         -3.4890  -41.9690   53.3850 C.2    97  VAL97       0.2260
     87  O         -4.4260  -42.7020   53.7090 O.2    97  VAL97      -0.2867
     88  CB        -4.0150  -39.4980   53.4730 C.3    97  VAL97       0.0252
     89  CG1       -5.3220  -39.7020   54.2330 C.3    97  VAL97       0.0019
     90  CG2       -2.8440  -39.2060   54.3960 C.3    97  VAL97       0.0019
@<TRIPOS>BOND
     1    74    73    1
     2    73    71   ar
     3    73    72   ar
     4    71    69   ar
     5    72    70   ar
     6    69    68   ar
     7     6     5    1
     8    70    68   ar
     9    68    67    1
    10    25    24    1
    11     5     2    1
    12    58    57    2
    13    13    11    1
    14     2     1    1
    15     2     3    1
    16    67    64    1
    17    12    11    1
    18    24    23   ar
    19    24    22   ar
    20    11     8    1
    21     4     3    2
    22    57    59   am
    23    57    56    1
    24    60    61    1
    25    60    59    1
    26    63    64    1
    27    63    61   am
    28    23    21   ar
    29    64    65    1
    30    22    20   ar
    31    61    62    2
    32    56    55    1
    33     8     7    1
    34     8     9    1
    35    21    19   ar
    36    42    43    1
    37    42    39    1
    38    20    19   ar
    39    44    43   ar
    40    44    46   ar
    41    43    45   ar
    42    65    66    2
    43    65    75   am
    44    46    48   ar
    45    45    47   ar
    46    48    47   ar
    47    10     9    2
    48    55    51   am
    49     9    14   am
    50    19    18    1
    51    75    76    1
    52    40    39    1
    53    40    41    2
    54    39    38    1
    55    52    51    2
    56    14    15    1
    57    51    50    1
    58    54    53    1
    59    18    15    1
    60    15    16    1
    61    80    79    1
    62    80    81    1
    63    76    77    1
    64    76    79    1
    65    50    53    1
    66    50    49    1
    67    77    78    2
    68    82    81    2
    69    81    83   am
    70    16    17    2
    71    37    36    1
    72    84    85    1
    73    36    34   ar
    74    36    35   ar
    75    34    32   ar
    76    85    86    1
    77    85    88    1
    78    35    33   ar
    79    86    87    2
    80    88    89    1
    81    88    90    1
    82    32    31   ar
    83    33    31   ar
    84    31    30    1
    85    26    27    1
    86    30    27    1
    87    27    28    1
    88    28    29    2
