@<TRIPOS>MOLECULE
tmp/2yptA00.pdb
 166 160 0 0 0
SMALL
GASTEIGER

@<TRIPOS>ATOM
      1  N        159.4960  204.4410  168.3120 N.3   256  ASN256     -0.1225
      2  CA       158.4320  205.4540  168.4540 C.3   256  ASN256      0.1785
      3  C        159.0330  206.8720  168.6700 C.2   256  ASN256      0.2597
      4  O        160.2570  207.0110  168.7090 O.2   256  ASN256     -0.2718
      5  CB       157.4800  205.0850  169.6090 C.3   256  ASN256      0.1169
      6  CG       156.0930  205.6750  169.4800 C.2   256  ASN256      0.2627
      7  OD1      155.3540  205.4100  168.5220 O.2   256  ASN256     -0.2716
      8  ND2      155.7110  206.4880  170.4520 N.am  256  ASN256     -0.0877
      9  N        158.1770  207.9190  168.7750 N.am  257  ALA257     -0.1966
     10  CA       158.5830  209.3140  169.0100 C.3   257  ALA257      0.1728
     11  C        157.4530  210.1310  169.6580 C.2   257  ALA257      0.2616
     12  O        156.2790  209.8300  169.4430 O.2   257  ALA257     -0.2715
     13  CB       159.0180  209.9680  167.7070 C.3   257  ALA257      0.0334
     14  N        157.8140  211.1670  170.4460 N.am  258  TYR258     -0.1960
     15  CA       156.8740  212.0590  171.1450 C.3   258  TYR258      0.1771
     16  C        157.4450  213.4990  171.2810 C.2   258  TYR258      0.2619
     17  O        158.5570  213.7710  170.8180 O.2   258  TYR258     -0.2715
     18  CB       156.5300  211.4790  172.5290 C.3   258  TYR258      0.0574
     19  CG       155.4280  210.4430  172.5800 C.ar  258  TYR258     -0.0198
     20  CD1      154.1640  210.7480  172.0810 C.ar  258  TYR258     -0.0009
     21  CD2      155.6470  209.1930  173.1540 C.ar  258  TYR258     -0.0009
     22  CE1      153.1500  209.8040  172.1360 C.ar  258  TYR258      0.0417
     23  CE2      154.6400  208.2390  173.2250 C.ar  258  TYR258      0.0417
     24  CZ       153.4030  208.5650  172.7070 C.ar  258  TYR258      0.1957
     25  OH       152.3690  207.6440  172.7550 O.3   258  TYR258     -0.2866
     26  N        156.6740  214.4210  171.8980 N.am  259  PHE259     -0.1974
     27  CA       157.0880  215.8160  172.1060 C.3   259  PHE259      0.1639
     28  C        156.4910  216.3770  173.4070 C.2   259  PHE259      0.2290
     29  O        155.3880  215.9800  173.7990 O.2   259  PHE259     -0.2864
     30  CB       156.6990  216.6900  170.8960 C.3   259  PHE259      0.0560
     31  CG       155.2210  216.9540  170.7040 C.ar  259  PHE259     -0.0200
     32  CD1      154.3730  215.9580  170.2300 C.ar  259  PHE259     -0.0042
     33  CD2      154.6860  218.2140  170.9500 C.ar  259  PHE259     -0.0042
     34  CE1      153.0130  216.2060  170.0490 C.ar  259  PHE259     -0.0003
     35  CE2      153.3260  218.4630  170.7610 C.ar  259  PHE259     -0.0003
     36  CZ       152.5000  217.4570  170.3160 C.ar  259  PHE259     -0.0000
     37  N        164.6950  204.2150  166.5390 N.3   271  LEU271     -0.1245
     38  CA       164.0900  204.8790  165.3790 C.3   271  LEU271      0.1561
     39  C        165.1620  205.5720  164.5270 C.2   271  LEU271      0.2260
     40  O        165.0200  205.6310  163.3070 O.2   271  LEU271     -0.2867
     41  CB       163.0450  205.9090  165.8630 C.3   271  LEU271      0.0270
     42  CG       162.1330  206.5700  164.8190 C.3   271  LEU271      0.0019
     43  CD1      160.7290  206.7240  165.3500 C.3   271  LEU271      0.0001
     44  CD2      162.6430  207.9440  164.4340 C.3   271  LEU271      0.0001
     45  N        158.5460  212.0150  160.2430 N.3   284  VAL284     -0.1245
     46  CA       157.9300  211.5270  161.4820 C.3   284  VAL284      0.1561
     47  C        157.8050  212.7220  162.4420 C.2   284  VAL284      0.2260
     48  O        156.7910  212.8440  163.1320 O.2   284  VAL284     -0.2867
     49  CB       158.7310  210.3280  162.0790 C.3   284  VAL284      0.0252
     50  CG1      158.3820  210.0630  163.5420 C.3   284  VAL284      0.0019
     51  CG2      158.5210  209.0650  161.2510 C.3   284  VAL284      0.0019
     52  N        154.9280  215.1090  161.4440 N.3   287  HIS287     -0.1226
     53  CA       153.6580  214.5450  161.9000 C.3   287  HIS287      0.1752
     54  C        153.4230  214.9740  163.3530 C.2   287  HIS287      0.2595
     55  O        152.3610  215.5140  163.6610 O.2   287  HIS287     -0.2718
     56  CB       153.6790  213.0060  161.7490 C.3   287  HIS287      0.0759
     57  CG       152.6060  212.2770  162.5040 C.ar  287  HIS287      0.0818
     58  ND1      151.3730  212.0130  161.9340 N.ar  287  HIS287     -0.2268
     59  CD2      152.6330  211.7460  163.7510 C.ar  287  HIS287      0.1154
     60  CE1      150.6890  211.3460  162.8510 C.ar  287  HIS287      0.1986
     61  NE2      151.3990  211.1770  163.9680 N.ar  287  HIS287     -0.2212
     62  N        154.4340  214.7510  164.2290 N.am  288  ALA288     -0.1980
     63  CA       154.4160  215.0860  165.6580 C.3   288  ALA288      0.1597
     64  C        154.2800  216.5930  165.8820 C.2   288  ALA288      0.2287
     65  O        153.5750  217.0060  166.8060 O.2   288  ALA288     -0.2864
     66  CB       155.6760  214.5690  166.3320 C.3   288  ALA288      0.0319
     67  N        150.5510  217.9370  165.7360 N.3   291  HIS291     -0.1241
     68  CA       149.7220  217.9170  166.9510 C.3   291  HIS291      0.1621
     69  C        149.8650  219.2230  167.7470 C.2   291  HIS291      0.2264
     70  O        148.9130  219.6590  168.4020 O.2   291  HIS291     -0.2867
     71  CB       150.0830  216.7200  167.8370 C.3   291  HIS291      0.0745
     72  CG       149.7700  215.3910  167.2300 C.ar  291  HIS291      0.0817
     73  ND1      148.4690  215.0190  166.9490 N.ar  291  HIS291     -0.2268
     74  CD2      150.5980  214.3700  166.9070 C.ar  291  HIS291      0.1154
     75  CE1      148.5460  213.7980  166.4500 C.ar  291  HIS291      0.1986
     76  NE2      149.8070  213.3640  166.4070 N.ar  291  HIS291     -0.2212
     77  N        146.1160  219.8920  168.8870 N.3   296  HIS296     -0.1226
     78  CA       145.5940  218.6090  169.3670 C.3   296  HIS296      0.1752
     79  C        145.9270  218.4200  170.8480 C.2   296  HIS296      0.2596
     80  O        145.1130  217.8720  171.5930 O.2   296  HIS296     -0.2718
     81  CB       146.1510  217.4400  168.5310 C.3   296  HIS296      0.0759
     82  CG       145.6840  217.4240  167.1050 C.ar  296  HIS296      0.0818
     83  ND1      146.4780  216.9140  166.0920 N.ar  296  HIS296     -0.2268
     84  CD2      144.5160  217.8520  166.5670 C.ar  296  HIS296      0.1154
     85  CE1      145.7780  217.0580  164.9770 C.ar  296  HIS296      0.1986
     86  NE2      144.5910  217.6150  165.2130 N.ar  296  HIS296     -0.2212
     87  N        147.1100  218.9190  171.2690 N.am  297  THR297     -0.1953
     88  CA       147.6170  218.8720  172.6450 C.3   297  THR297      0.1897
     89  C        146.6850  219.6690  173.5770 C.2   297  THR297      0.2313
     90  O        146.2050  219.1180  174.5680 O.2   297  THR297     -0.2863
     91  CB       149.0690  219.4070  172.6970 C.3   297  THR297      0.1794
     92  OG1      149.8370  218.8670  171.6160 O.3   297  THR297     -0.2208
     93  CG2      149.7580  219.1230  174.0330 C.3   297  THR297      0.0378
     94  N        143.0060  218.2660  173.8830 N.3   300  ASN300     -0.1240
     95  CA       142.9730  217.0810  174.7480 C.3   300  ASN300      0.1653
     96  C        142.9160  217.4530  176.2350 C.2   300  ASN300      0.2266
     97  O        142.2650  216.7440  177.0020 O.2   300  ASN300     -0.2867
     98  CB       144.1780  216.1720  174.4780 C.3   300  ASN300      0.1155
     99  CG       144.0850  215.3640  173.2020 C.2   300  ASN300      0.2627
    100  OD1      143.0290  214.8320  172.8340 O.2   300  ASN300     -0.2716
    101  ND2      145.2060  215.2250  172.5100 N.am  300  ASN300     -0.0877
    102  N        142.5980  212.8180  164.9030 N.3   366  PHE366     -0.1227
    103  CA       143.7240  213.6850  165.2620 C.3   366  PHE366      0.1736
    104  C        145.0200  213.2030  164.6040 C.2   366  PHE366      0.2595
    105  O        145.8870  214.0210  164.2930 O.2   366  PHE366     -0.2718
    106  CB       143.8960  213.7430  166.7870 C.3   366  PHE366      0.0547
    107  CG       142.7270  214.3120  167.5710 C.ar  366  PHE366     -0.0202
    108  CD1      141.6920  215.0080  166.9830 C.ar  366  PHE366     -0.0042
    109  CD2      142.7310  214.1030  168.9410 C.ar  366  PHE366     -0.0042
    110  CE1      140.6410  215.5060  167.7650 C.ar  366  PHE366     -0.0003
    111  CE2      141.7150  214.6320  169.7240 C.ar  366  PHE366     -0.0003
    112  CZ       140.6850  215.3510  169.1220 C.ar  366  PHE366     -0.0000
    113  N        145.1510  211.8770  164.3960 N.am  367  GLU367     -0.1979
    114  CA       146.3180  211.2710  163.7560 C.3   367  GLU367      0.1602
    115  C        146.2960  211.5300  162.2470 C.2   367  GLU367      0.2287
    116  O        147.3400  211.8390  161.6730 O.2   367  GLU367     -0.2864
    117  CB       146.3980  209.7680  164.0630 C.3   367  GLU367      0.0415
    118  CG       147.0480  209.4600  165.4040 C.3   367  GLU367      0.1163
    119  CD       148.5260  209.7960  165.4870 C.2   367  GLU367      0.3649
    120  OE1      149.3140  209.1840  164.7310 O.co2 367  GLU367     -0.2457
    121  OE2      148.8990  210.6770  166.2950 O.co2 367  GLU367     -0.2457
    122  N        157.1770  210.1020  154.7940 N.3   383  LEU383     -0.1245
    123  CA       156.3380  209.5770  155.8820 C.3   383  LEU383      0.1561
    124  C        155.7120  208.2410  155.4730 C.2   383  LEU383      0.2260
    125  O        155.5650  207.3600  156.3220 O.2   383  LEU383     -0.2867
    126  CB       155.2500  210.5790  156.2920 C.3   383  LEU383      0.0270
    127  CG       154.3560  210.2210  157.4700 C.3   383  LEU383      0.0019
    128  CD1      155.1250  210.3010  158.7830 C.3   383  LEU383      0.0001
    129  CD2      153.1370  211.1400  157.5170 C.3   383  LEU383      0.0001
    130  N        156.2960  205.0560  157.8770 N.3   387  LEU387     -0.1245
    131  CA       155.1750  204.3170  158.4730 C.3   387  LEU387      0.1561
    132  C        155.2730  202.8110  158.2210 C.2   387  LEU387      0.2260
    133  O        155.0060  202.0290  159.1350 O.2   387  LEU387     -0.2867
    134  CB       153.8440  204.8550  157.9320 C.3   387  LEU387      0.0270
    135  CG       152.9840  205.6770  158.8940 C.3   387  LEU387      0.0019
    136  CD1      153.7040  206.9390  159.3740 C.3   387  LEU387      0.0001
    137  CD2      151.6930  206.0790  158.2280 C.3   387  LEU387      0.0001
    138  N        158.5570  201.5440  160.1460 N.3   390  LEU390     -0.1245
    139  CA       158.2850  201.4760  161.5870 C.3   390  LEU390      0.1561
    140  C        157.3970  200.2840  161.8970 C.2   390  LEU390      0.2260
    141  O        157.5790  199.6560  162.9380 O.2   390  LEU390     -0.2867
    142  CB       157.6410  202.7680  162.1260 C.3   390  LEU390      0.0270
    143  CG       158.5330  204.0080  162.2160 C.3   390  LEU390      0.0019
    144  CD1      157.7170  205.2350  162.5400 C.3   390  LEU390      0.0001
    145  CD2      159.6450  203.8310  163.2340 C.3   390  LEU390      0.0001
    146  N        145.2250  204.7290  166.9340 N.3   411  HIS411     -0.1241
    147  CA       145.8500  205.0820  165.6610 C.3   411  HIS411      0.1621
    148  C        145.1410  204.3300  164.5310 C.2   411  HIS411      0.2264
    149  O        144.9340  203.1200  164.6650 O.2   411  HIS411     -0.2867
    150  CB       147.3480  204.7340  165.6770 C.3   411  HIS411      0.0745
    151  CG       148.1740  205.6190  166.5540 C.ar  411  HIS411      0.0817
    152  ND1      147.9450  205.7070  167.9170 N.ar  411  HIS411     -0.2268
    153  CD2      149.2370  206.3930  166.2400 C.ar  411  HIS411      0.1154
    154  CE1      148.8510  206.5520  168.3800 C.ar  411  HIS411      0.1986
    155  NE2      149.6520  206.9900  167.4090 N.ar  411  HIS411     -0.2212
    156  N        146.1050  204.9330  156.6380 N.3   417  ARG417     -0.1245
    157  CA       147.0310  206.0630  156.7610 C.3   417  ARG417      0.1563
    158  C        147.8700  206.2480  155.4980 C.2   417  ARG417      0.2260
    159  O        148.1390  207.3890  155.1180 O.2   417  ARG417     -0.2867
    160  CB       147.9570  205.8760  157.9680 C.3   417  ARG417      0.0307
    161  CG       147.3330  206.2820  159.2910 C.3   417  ARG417      0.0489
    162  CD       148.2100  205.9240  160.4780 C.3   417  ARG417      0.2205
    163  NE       149.2900  206.8920  160.6790 N.pl3 417  ARG417     -0.0865
    164  CZ       150.1180  206.8920  161.7190 C.cat 417  ARG417      0.5346
    165  NH1      150.0000  205.9740  162.6710 N.pl3 417  ARG417      0.1354
    166  NH2      151.0670  207.8130  161.8180 N.pl3 417  ARG417      0.1354
@<TRIPOS>BOND
     1   122   123    1
     2   159   158    2
     3   124   123    1
     4   124   125    2
     5   158   157    1
     6   123   126    1
     7   126   127    1
     8   156   157    1
     9   157   160    1
    10   127   129    1
    11   127   128    1
    12   130   131    1
    13   134   131    1
    14   134   135    1
    15   160   161    1
    16   132   131    1
    17   132   133    2
    18   137   135    1
    19   135   136    1
    20   161   162    1
    21   138   139    1
    22    45    46    1
    23   162   163    1
    24   163   164    2
    25    51    49    1
    26    52    53    1
    27    46    49    1
    28    46    47    1
    29   139   140    1
    30   139   142    1
    31   116   115    2
    32   164   166    1
    33   164   165    1
    34    56    53    1
    35    56    57    1
    36   140   141    2
    37    53    54    1
    38    58    57   ar
    39    58    60   ar
    40    49    50    1
    41   142   143    1
    42   143   144    1
    43   143   145    1
    44   115   114    1
    45    47    48    2
    46    57    59   ar
    47    60    61   ar
    48    40    39    2
    49    54    55    2
    50    54    62   am
    51    59    61   ar
    52   114   117    1
    53   114   113    1
    54   117   118    1
    55    62    63    1
    56   105   104    2
    57   113   104   am
    58    44    42    1
    59    39    38    1
    60   148   149    2
    61   148   147    1
    62   104   103    1
    63   120   119   ar
    64    42    43    1
    65    42    41    1
    66   102   103    1
    67    85    86   ar
    68    85    83   ar
    69    86    84   ar
    70   103   106    1
    71    38    41    1
    72    38    37    1
    73   118   119    1
    74   119   121   ar
    75    63    64    1
    76    63    66    1
    77   147   150    1
    78   147   146    1
    79   150   151    1
    80    67    68    1
    81    64    65    2
    82    83    82   ar
    83   153   151   ar
    84   153   155   ar
    85    76    75   ar
    86    76    74   ar
    87    75    73   ar
    88   151   152   ar
    89    84    82   ar
    90   106   107    1
    91    74    72   ar
    92    73    72   ar
    93    68    69    1
    94    68    71    1
    95   108   107   ar
    96   108   110   ar
    97    82    81    1
    98    72    71    1
    99   155   154   ar
   100   107   109   ar
   101    13    10    1
   102    69    70    2
   103   110   112   ar
   104   152   154   ar
   105     1     2    1
   106     2     3    1
   107     2     5    1
   108     7     6    2
   109    81    78    1
   110     3     4    2
   111     3     9   am
   112     9    10    1
   113    77    78    1
   114   109   111   ar
   115    10    11    1
   116   112   111   ar
   117    78    79    1
   118    12    11    2
   119     6     5    1
   120     6     8   am
   121    11    14   am
   122    34    32   ar
   123    34    36   ar
   124    32    31   ar
   125    36    35   ar
   126    14    15    1
   127    31    30    1
   128    31    33   ar
   129    35    33   ar
   130    17    16    2
   131    79    87   am
   132    79    80    2
   133    30    27    1
   134    15    16    1
   135    15    18    1
   136    87    88    1
   137    16    26   am
   138    92    91    1
   139    26    27    1
   140    20    22   ar
   141    20    19   ar
   142    27    28    1
   143    22    24   ar
   144   101    99   am
   145    18    19    1
   146    19    21   ar
   147    88    91    1
   148    88    89    1
   149    91    93    1
   150    24    25    1
   151    24    23   ar
   152   100    99    2
   153    21    23   ar
   154    99    98    1
   155    28    29    2
   156    89    90    2
   157    94    95    1
   158    98    95    1
   159    95    96    1
   160    96    97    2
