@<TRIPOS>MOLECULE
tmp/2yptB00.pdb
 200 191 0 0 0
SMALL
GASTEIGER

@<TRIPOS>ATOM
      1  N        134.7470  159.6930  194.7210 N.3   247  SER247     -0.1202
      2  CA       134.4810  158.7660  195.8270 C.3   247  SER247      0.2020
      3  C        135.7320  158.4950  196.6790 C.2   247  SER247      0.2619
      4  O        136.8220  158.3230  196.1250 O.2   247  SER247     -0.2717
      5  CB       133.9430  157.4420  195.2860 C.3   247  SER247      0.2103
      6  OG       132.9430  157.6170  194.2950 O.3   247  SER247     -0.2182
      7  N        135.5610  158.4330  198.0260 N.am  248  ASN248     -0.1960
      8  CA       136.6150  158.1590  199.0200 C.3   248  ASN248      0.1819
      9  C        136.0010  157.7800  200.3970 C.2   248  ASN248      0.2621
     10  O        134.7760  157.7540  200.5300 O.2   248  ASN248     -0.2715
     11  CB       137.5590  159.3690  199.1600 C.3   248  ASN248      0.1195
     12  CG       138.9430  159.0160  199.6550 C.2   248  ASN248      0.2630
     13  OD1      139.6900  158.2540  199.0280 O.2   248  ASN248     -0.2716
     14  ND2      139.3160  159.5710  200.7980 N.am  248  ASN248     -0.0877
     15  N        136.8510  157.4550  201.4040 N.am  249  ALA249     -0.1963
     16  CA       136.4380  157.0970  202.7700 C.3   249  ALA249      0.1728
     17  C        137.5620  157.3540  203.7900 C.2   249  ALA249      0.2616
     18  O        138.7420  157.2770  203.4380 O.2   249  ALA249     -0.2715
     19  CB       136.0090  155.6400  202.8290 C.3   249  ALA249      0.0334
     20  N        137.1860  157.6550  205.0540 N.am  250  TYR250     -0.1960
     21  CA       138.1120  157.9300  206.1620 C.3   250  TYR250      0.1771
     22  C        137.5280  157.4690  207.5260 C.2   250  TYR250      0.2619
     23  O        136.4160  156.9380  207.5740 O.2   250  TYR250     -0.2715
     24  CB       138.4570  159.4290  206.1990 C.3   250  TYR250      0.0574
     25  CG       139.5700  159.8960  205.2860 C.ar  250  TYR250     -0.0198
     26  CD1      140.8320  159.3140  205.3770 C.ar  250  TYR250     -0.0009
     27  CD2      139.3630  160.9290  204.3750 C.ar  250  TYR250     -0.0009
     28  CE1      141.8570  159.7480  204.5480 C.ar  250  TYR250      0.0417
     29  CE2      140.3800  161.3810  203.5440 C.ar  250  TYR250      0.0417
     30  CZ       141.6150  160.7730  203.6460 C.ar  250  TYR250      0.1957
     31  OH       142.6590  161.1910  202.8360 O.3   250  TYR250     -0.2866
     32  N        138.2910  157.6530  208.6260 N.am  251  PHE251     -0.1974
     33  CA       137.8710  157.2760  209.9830 C.3   251  PHE251      0.1639
     34  C        138.4620  158.2400  211.0250 C.2   251  PHE251      0.2290
     35  O        139.5680  158.7560  210.8310 O.2   251  PHE251     -0.2864
     36  CB       138.2580  155.8160  210.2970 C.3   251  PHE251      0.0560
     37  CG       139.7350  155.5320  210.4680 C.ar  251  PHE251     -0.0200
     38  CD1      140.5890  155.5060  209.3690 C.ar  251  PHE251     -0.0042
     39  CD2      140.2640  155.2460  211.7210 C.ar  251  PHE251     -0.0042
     40  CE1      141.9520  155.2400  209.5280 C.ar  251  PHE251     -0.0003
     41  CE2      141.6250  154.9680  211.8770 C.ar  251  PHE251     -0.0003
     42  CZ       142.4580  154.9710  210.7810 C.ar  251  PHE251     -0.0000
     43  N        130.3770  156.8820  197.0470 N.3   263  LEU263     -0.1245
     44  CA       130.9850  155.5570  197.1900 C.3   263  LEU263      0.1561
     45  C        129.9120  154.4930  197.4630 C.2   263  LEU263      0.2260
     46  O        130.0640  153.3580  197.0160 O.2   263  LEU263     -0.2867
     47  CB       132.0170  155.5840  198.3390 C.3   263  LEU263      0.0270
     48  CG       132.9330  154.3660  198.5250 C.3   263  LEU263      0.0019
     49  CD1      134.3260  154.7960  198.8980 C.3   263  LEU263      0.0001
     50  CD2      132.4200  153.4610  199.6180 C.3   263  LEU263      0.0001
     51  N        136.5270  148.0010  201.6500 N.3   276  VAL276     -0.1245
     52  CA       137.1380  149.3340  201.7130 C.3   276  VAL276      0.1561
     53  C        137.2510  149.7270  203.1990 C.2   276  VAL276      0.2260
     54  O        138.2640  150.3060  203.5980 O.2   276  VAL276     -0.2867
     55  CB       136.3410  150.3620  200.8510 C.3   276  VAL276      0.0252
     56  CG1      136.6760  151.8060  201.2080 C.3   276  VAL276      0.0019
     57  CG2      136.5680  150.1210  199.3610 C.3   276  VAL276      0.0019
     58  N        140.1130  147.8380  204.9950 N.3   279  HIS279     -0.1226
     59  CA       141.3860  148.4780  204.6730 C.3   279  HIS279      0.1752
     60  C        141.6140  149.6320  205.6560 C.2   279  HIS279      0.2595
     61  O        142.6720  149.6910  206.2840 O.2   279  HIS279     -0.2718
     62  CB       141.3790  148.9610  203.2030 C.3   279  HIS279      0.0759
     63  CG       142.4580  149.9410  202.8480 C.ar  279  HIS279      0.0818
     64  ND1      143.6960  149.5230  202.3890 N.ar  279  HIS279     -0.2268
     65  CD2      142.4340  151.2950  202.8630 C.ar  279  HIS279      0.1154
     66  CE1      144.3860  150.6280  202.1550 C.ar  279  HIS279      0.1986
     67  NE2      143.6740  151.7200  202.4420 N.ar  279  HIS279     -0.2212
     68  N        140.6040  150.5280  205.7990 N.am  280  ALA280     -0.1980
     69  CA       140.6130  151.6980  206.6870 C.3   280  ALA280      0.1597
     70  C        140.7350  151.2880  208.1590 C.2   280  ALA280      0.2287
     71  O        141.4310  151.9650  208.9180 O.2   280  ALA280     -0.2864
     72  CB       139.3560  152.5260  206.4790 C.3   280  ALA280      0.0319
     73  N        144.4540  150.6020  209.3520 N.3   283  HIS283     -0.1241
     74  CA       145.2750  151.7230  209.8330 C.3   283  HIS283      0.1621
     75  C        145.1200  151.9170  211.3460 C.2   283  HIS283      0.2264
     76  O        146.0660  152.3380  212.0150 O.2   283  HIS283     -0.2867
     77  CB       144.9170  153.0200  209.0950 C.3   283  HIS283      0.0745
     78  CG       145.2480  153.0040  207.6350 C.ar  283  HIS283      0.0817
     79  ND1      146.5560  152.8960  207.1910 N.ar  283  HIS283     -0.2268
     80  CD2      144.4300  153.1190  206.5620 C.ar  283  HIS283      0.1154
     81  CE1      146.4910  152.9350  205.8700 C.ar  283  HIS283      0.1986
     82  NE2      145.2330  153.0690  205.4440 N.ar  283  HIS283     -0.2212
     83  N        148.8600  152.6920  212.4450 N.3   288  HIS288     -0.1226
     84  CA       149.3820  153.6540  211.4700 C.3   288  HIS288      0.1752
     85  C        149.0360  155.0840  211.8920 C.2   288  HIS288      0.2596
     86  O        149.8410  155.9950  211.6890 O.2   288  HIS288     -0.2718
     87  CB       148.8350  153.3560  210.0600 C.3   288  HIS288      0.0759
     88  CG       149.3140  152.0600  209.4700 C.ar  288  HIS288      0.0818
     89  ND1      148.5290  151.3380  208.5870 N.ar  288  HIS288     -0.2268
     90  CD2      150.4810  151.3960  209.6550 C.ar  288  HIS288      0.1154
     91  CE1      149.2360  150.2650  208.2710 C.ar  288  HIS288      0.1986
     92  NE2      150.4170  150.2570  208.8870 N.ar  288  HIS288     -0.2212
     93  N        147.8490  155.2600  212.5140 N.am  289  THR289     -0.1953
     94  CA       147.3320  156.5340  213.0250 C.3   289  THR289      0.1897
     95  C        148.2510  157.0610  214.1390 C.2   289  THR289      0.2313
     96  O        148.7220  158.1970  214.0460 O.2   289  THR289     -0.2863
     97  CB       145.8780  156.3620  213.5250 C.3   289  THR289      0.1794
     98  OG1      145.1200  155.5970  212.5850 O.3   289  THR289     -0.2208
     99  CG2      145.1830  157.6960  213.7980 C.3   289  THR289      0.0378
    100  N        151.9270  157.9420  212.9960 N.3   292  ASN292     -0.1240
    101  CA       151.9510  159.2130  212.2670 C.3   292  ASN292      0.1653
    102  C        151.9880  160.4210  213.2190 C.2   292  ASN292      0.2266
    103  O        152.6340  161.4180  212.8910 O.2   292  ASN292     -0.2867
    104  CB       150.7540  159.3190  211.3260 C.3   292  ASN292      0.1155
    105  CG       151.0560  160.1790  210.1130 C.2   292  ASN292      0.2627
    106  OD1      152.1670  160.6540  209.9120 O.2   292  ASN292     -0.2716
    107  ND2      150.0400  160.3700  209.2740 N.am  292  ASN292     -0.0877
    108  N        152.4660  151.9150  204.3970 N.3   358  PHE358     -0.1227
    109  CA       151.3310  151.8870  205.3250 C.3   358  PHE358      0.1736
    110  C        150.0380  151.4830  204.6060 C.2   358  PHE358      0.2595
    111  O        149.1650  150.8680  205.2220 O.2   358  PHE358     -0.2718
    112  CB       151.1570  153.2600  206.0000 C.3   358  PHE358      0.0547
    113  CG       151.9390  153.5000  207.2770 C.ar  358  PHE358     -0.0202
    114  CD1      153.0350  152.7060  207.6060 C.ar  358  PHE358     -0.0042
    115  CD2      151.5990  154.5410  208.1330 C.ar  358  PHE358     -0.0042
    116  CE1      153.7520  152.9300  208.7860 C.ar  358  PHE358     -0.0003
    117  CE2      152.3170  154.7640  209.3130 C.ar  358  PHE358     -0.0003
    118  CZ       153.3900  153.9580  209.6300 C.ar  358  PHE358     -0.0000
    119  N        149.9180  151.8310  203.3090 N.am  359  GLU359     -0.1979
    120  CA       148.7590  151.4880  202.4840 C.3   359  GLU359      0.1602
    121  C        148.7880  150.0020  202.1130 C.2   359  GLU359      0.2287
    122  O        147.7440  149.3500  202.1590 O.2   359  GLU359     -0.2864
    123  CB       148.6920  152.3740  201.2330 C.3   359  GLU359      0.0415
    124  CG       148.0370  153.7230  201.4860 C.3   359  GLU359      0.1163
    125  CD       146.5560  153.6630  201.8140 C.2   359  GLU359      0.3649
    126  OE1      145.7770  153.2160  200.9420 O.co2 359  GLU359     -0.2457
    127  OE2      146.1710  154.0480  202.9420 O.co2 359  GLU359     -0.2457
    128  N        137.9130  143.8000  197.6960 N.3   375  LEU375     -0.1245
    129  CA       138.7570  145.0040  197.6560 C.3   375  LEU375      0.1561
    130  C        139.3960  145.1650  196.2720 C.2   375  LEU375      0.2260
    131  O        139.5500  146.2960  195.8060 O.2   375  LEU375     -0.2867
    132  CB       139.8360  144.9720  198.7490 C.3   375  LEU375      0.0270
    133  CG       140.6610  146.2570  198.8370 C.3   375  LEU375      0.0019
    134  CD1      139.8190  147.4840  199.1620 C.3   375  LEU375      0.0001
    135  CD2      141.7630  146.0730  199.8690 C.3   375  LEU375      0.0001
    136  N        138.8350  148.6460  194.3090 N.3   379  LEU379     -0.1245
    137  CA       139.9600  149.4850  193.8710 C.3   379  LEU379      0.1561
    138  C        139.8670  149.8390  192.3800 C.2   379  LEU379      0.2260
    139  O        140.1490  150.9800  192.0130 O.2   379  LEU379     -0.2867
    140  CB       141.2890  148.7780  194.1600 C.3   379  LEU379      0.0270
    141  CG       142.5720  149.5760  194.2690 C.3   379  LEU379      0.0019
    142  CD1      142.5380  150.5560  195.4340 C.3   379  LEU379      0.0001
    143  CD2      143.7520  148.6140  194.4250 C.3   379  LEU379      0.0001
    144  N        136.6120  152.1280  191.9600 N.3   382  LEU382     -0.1231
    145  CA       136.8960  153.4680  192.4890 C.3   382  LEU382      0.1693
    146  C        137.8210  154.2400  191.5490 C.2   382  LEU382      0.2592
    147  O        137.7350  155.4680  191.4850 O.2   382  LEU382     -0.2718
    148  CB       137.5120  153.3980  193.8950 C.3   382  LEU382      0.0284
    149  CG       136.5710  153.0010  195.0310 C.3   382  LEU382      0.0019
    150  CD1      137.3480  152.4800  196.2180 C.3   382  LEU382      0.0001
    151  CD2      135.6750  154.1500  195.4430 C.3   382  LEU382      0.0001
    152  N        138.6980  153.5180  190.8190 N.am  383  ASN383     -0.1974
    153  CA       139.6200  154.0940  189.8400 C.3   383  ASN383      0.1688
    154  C        138.8370  154.6130  188.6310 C.2   383  ASN383      0.2292
    155  O        139.1490  155.6920  188.1270 O.2   383  ASN383     -0.2864
    156  CB       140.6710  153.0680  189.4120 C.3   383  ASN383      0.1181
    157  CG       141.8030  153.6530  188.6040 C.2   383  ASN383      0.2629
    158  OD1      142.6450  154.4040  189.1130 O.2   383  ASN383     -0.2716
    159  ND2      141.8600  153.2990  187.3280 N.am  383  ASN383     -0.0877
    160  N        136.7860  157.8310  189.6800 N.3   386  ASN386     -0.1240
    161  CA       137.6150  159.0300  189.8110 C.3   386  ASN386      0.1653
    162  C        138.5280  159.2540  188.5900 C.2   386  ASN386      0.2266
    163  O        139.4000  160.1270  188.6350 O.2   386  ASN386     -0.2867
    164  CB       138.4570  158.9440  191.0950 C.3   386  ASN386      0.1155
    165  CG       137.6730  158.7110  192.3710 C.2   386  ASN386      0.2627
    166  OD1      136.4910  159.0530  192.4970 O.2   386  ASN386     -0.2716
    167  ND2      138.3300  158.1340  193.3620 N.am  386  ASN386     -0.0877
    168  N        141.0690  157.6210  187.2240 N.3   388  GLY388     -0.1225
    169  CA       142.4900  157.4870  187.5170 C.3   388  GLY388      0.1811
    170  C        143.2100  156.7310  186.4210 C.2   388  GLY388      0.2280
    171  O        142.7960  155.6270  186.0560 O.2   388  GLY388     -0.2866
    172  N        149.8740  157.0360  197.7960 N.3   403  HIS403     -0.1241
    173  CA       149.2600  155.7260  197.5970 C.3   403  HIS403      0.1621
    174  C        149.9820  155.0040  196.4550 C.2   403  HIS403      0.2264
    175  O        150.1920  155.6210  195.4040 O.2   403  HIS403     -0.2867
    176  CB       147.7620  155.8700  197.2740 C.3   403  HIS403      0.0745
    177  CG       146.9240  156.3130  198.4290 C.ar  403  HIS403      0.0817
    178  ND1      147.1350  157.5310  199.0510 N.ar  403  HIS403     -0.2268
    179  CD2      145.8600  155.7090  199.0040 C.ar  403  HIS403      0.1154
    180  CE1      146.2200  157.6110  200.0020 C.ar  403  HIS403      0.1986
    181  NE2      145.4280  156.5390  200.0100 N.ar  403  HIS403     -0.2212
    182  N        147.7310  151.4980  191.1900 N.3   406  LEU406     -0.1245
    183  CA       146.6270  150.5330  191.1410 C.3   406  LEU406      0.1561
    184  C        147.1170  149.1210  190.8180 C.2   406  LEU406      0.2260
    185  O        146.7800  148.1930  191.5520 O.2   406  LEU406     -0.2867
    186  CB       145.5660  150.9680  190.1190 C.3   406  LEU406      0.0270
    187  CG       144.3010  150.1310  190.0020 C.3   406  LEU406      0.0019
    188  CD1      143.4070  150.3170  191.2220 C.3   406  LEU406      0.0001
    189  CD2      143.5360  150.4900  188.7300 C.3   406  LEU406      0.0001
    190  N        149.0030  147.5980  193.7750 N.3   409  ARG409     -0.1245
    191  CA       148.0460  147.2930  194.8450 C.3   409  ARG409      0.1563
    192  C        147.2220  146.0440  194.5280 C.2   409  ARG409      0.2260
    193  O        146.9480  145.2570  195.4360 O.2   409  ARG409     -0.2867
    194  CB       147.1060  148.4860  195.0940 C.3   409  ARG409      0.0307
    195  CG       147.7700  149.6610  195.8060 C.3   409  ARG409      0.0489
    196  CD       146.8060  150.7950  196.1190 C.3   409  ARG409      0.2205
    197  NE       145.9480  150.4950  197.2680 N.pl3 409  ARG409     -0.0865
    198  CZ       145.0030  151.3070  197.7350 C.cat 409  ARG409      0.5346
    199  NH1      144.7820  152.4820  197.1570 N.pl3 409  ARG409      0.1354
    200  NH2      144.2720  150.9500  198.7820 N.pl3 409  ARG409      0.1354
@<TRIPOS>BOND
     1   171   170    2
     2   170   169    1
     3   168   169    1
     4   159   157   am
     5   155   154    2
     6   162   163    2
     7   162   161    1
     8   157   158    2
     9   157   156    1
    10   154   153    1
    11   189   187    1
    12   156   153    1
    13   160   161    1
    14   161   164    1
    15   153   152    1
    16   187   186    1
    17   187   188    1
    18   186   183    1
    19   184   183    1
    20   184   185    2
    21   152   146   am
    22   164   165    1
    23   183   182    1
    24   147   146    2
    25   146   145    1
    26   144   145    1
    27   139   138    2
    28   165   166    2
    29   165   167   am
    30   138   137    1
    31   145   148    1
    32   190   191    1
    33   137   140    1
    34   137   136    1
    35   148   149    1
    36   140   141    1
    37   141   143    1
    38   141   142    1
    39     6     5    1
    40   192   191    1
    41   192   193    2
    42     1     2    1
    43   191   194    1
    44   149   151    1
    45   149   150    1
    46   194   195    1
    47     5     2    1
    48   175   174    2
    49   131   130    2
    50   195   196    1
    51     2     3    1
    52   196   197    1
    53     4     3    2
    54   130   129    1
    55   174   173    1
    56     3     7   am
    57    46    45    2
    58    43    44    1
    59   199   198    1
    60    44    45    1
    61    44    47    1
    62   197   198    2
    63   176   173    1
    64   176   177    1
    65   173   172    1
    66   129   128    1
    67   129   132    1
    68   198   200    1
    69     7     8    1
    70    47    48    1
    71   177   179   ar
    72   177   178   ar
    73    48    49    1
    74    48    50    1
    75   132   133    1
    76   133   134    1
    77   133   135    1
    78   179   181   ar
    79     8    11    1
    80     8     9    1
    81    13    12    2
    82   178   180   ar
    83    11    12    1
    84    57    55    1
    85    12    14   am
    86   180   181   ar
    87     9    10    2
    88     9    15   am
    89    55    56    1
    90    55    52    1
    91   126   125   ar
    92   123   124    1
    93   123   120    1
    94    15    16    1
    95   124   125    1
    96    51    52    1
    97    52    53    1
    98   125   127   ar
    99   121   122    2
   100   121   120    1
   101    66    64   ar
   102    66    67   ar
   103    64    63   ar
   104    67    65   ar
   105   120   119    1
   106    16    19    1
   107    16    17    1
   108    31    30    1
   109    63    65   ar
   110    63    62    1
   111    53    54    2
   112    62    59    1
   113   119   110   am
   114    18    17    2
   115    29    30   ar
   116    29    27   ar
   117    30    28   ar
   118    17    20   am
   119    27    25   ar
   120   108   109    1
   121    28    26   ar
   122   110   111    2
   123   110   109    1
   124    59    58    1
   125    59    60    1
   126    20    21    1
   127    25    26   ar
   128    25    24    1
   129   109   112    1
   130    82    81   ar
   131    82    80   ar
   132    60    68   am
   133    60    61    2
   134    68    69    1
   135    81    79   ar
   136   112   113    1
   137    21    24    1
   138    21    22    1
   139    72    69    1
   140    80    78   ar
   141    69    70    1
   142    79    78   ar
   143   113   114   ar
   144   113   115   ar
   145    22    23    2
   146    22    32   am
   147   114   116   ar
   148    78    77    1
   149   115   117   ar
   150    70    71    2
   151    91    89   ar
   152    91    92   ar
   153    89    88   ar
   154    32    33    1
   155   116   118   ar
   156    92    90   ar
   157    77    74    1
   158   107   105   am
   159   117   118   ar
   160    73    74    1
   161    38    40   ar
   162    38    37   ar
   163    88    90   ar
   164    88    87    1
   165    40    42   ar
   166    74    75    1
   167   106   105    2
   168    33    36    1
   169    33    34    1
   170    87    84    1
   171   105   104    1
   172    36    37    1
   173    37    39   ar
   174    42    41   ar
   175    35    34    2
   176   104   101    1
   177    75    76    2
   178    84    85    1
   179    84    83    1
   180    86    85    2
   181    39    41   ar
   182    85    93   am
   183   101   100    1
   184   101   102    1
   185    93    94    1
   186    98    97    1
   187   103   102    2
   188    94    97    1
   189    94    95    1
   190    97    99    1
   191    96    95    2
