@<TRIPOS>MOLECULE
tmp/2yq2A00.pdb
 91 89 0 0 0
SMALL
GASTEIGER

@<TRIPOS>ATOM
      1  N          1.9850   40.1190  -32.5050 N.3    99  GLU99      -0.1245
      2  CA         2.4230   38.7460  -32.3040 C.3    99  GLU99       0.1567
      3  C          1.2270   37.7870  -32.2320 C.2    99  GLU99       0.2260
      4  O          1.2140   36.7920  -32.9550 O.2    99  GLU99      -0.2867
      5  CB         3.2910   38.6570  -31.0400 C.3    99  GLU99       0.0388
      6  CG         3.9900   37.3200  -30.8570 C.3    99  GLU99       0.1160
      7  CD         5.3270   37.3420  -30.1340 C.2    99  GLU99       0.3649
      8  OE1        5.5740   38.2620  -29.3180 O.co2  99  GLU99      -0.2457
      9  OE2        6.1500   36.4440  -30.4200 O.co2  99  GLU99      -0.2457
     10  N         -0.3810   32.7980  -34.0260 N.3   126  GLN126     -0.1245
     11  CA         0.7910   33.5250  -33.5540 C.3   126  GLN126      0.1566
     12  C          1.7950   33.7510  -34.6740 C.2   126  GLN126      0.2260
     13  O          2.2860   32.7970  -35.2760 O.2   126  GLN126     -0.2867
     14  CB         1.4620   32.7820  -32.3860 C.3   126  GLN126      0.0367
     15  CG         2.6700   33.5170  -31.7900 C.3   126  GLN126      0.0905
     16  CD         3.5550   32.6560  -30.9220 C.2   126  GLN126      0.2608
     17  OE1        3.1210   31.6710  -30.3190 O.2   126  GLN126     -0.2717
     18  NE2        4.8090   33.0510  -30.7970 N.am  126  GLN126     -0.0878
     19  N          5.2800   34.2170  -35.5310 N.3   128  VAL128     -0.1231
     20  CA         6.6040   33.9410  -34.9410 C.3   128  VAL128      0.1692
     21  C          7.6940   34.5300  -35.8520 C.2   128  VAL128      0.2592
     22  O          7.7800   34.1290  -37.0100 O.2   128  VAL128     -0.2718
     23  CB         6.8370   32.4230  -34.6440 C.3   128  VAL128      0.0266
     24  CG1        8.1860   32.2110  -33.9200 C.3   128  VAL128      0.0020
     25  CG2        5.6670   31.8200  -33.8660 C.3   128  VAL128      0.0020
     26  N          8.4940   35.4650  -35.3160 N.am  129  CYS129     -0.1970
     27  CA         9.5810   36.2070  -35.9820 C.3   129  CYS129      0.1712
     28  C          9.1920   36.5760  -37.4220 C.2   129  CYS129      0.2296
     29  O          9.8430   36.1210  -38.3860 O.2   129  CYS129     -0.2864
     30  CB        10.8830   35.4000  -35.9190 C.3   129  CYS129      0.0983
     31  SG        11.5780   35.2280  -34.2530 S.3   129  CYS129     -0.0798
     32  N         12.6780   42.3250  -35.8200 N.3   164  ARG164     -0.1231
     33  CA        12.1100   42.0990  -34.4980 C.3   164  ARG164      0.1694
     34  C         13.1850   41.6080  -33.5350 C.2   164  ARG164      0.2592
     35  O         13.9840   40.7400  -33.8960 O.2   164  ARG164     -0.2718
     36  CB        10.9510   41.0900  -34.5970 C.3   164  ARG164      0.0321
     37  CG        10.0490   41.0460  -33.3730 C.3   164  ARG164      0.0489
     38  CD         8.7870   40.2410  -33.6250 C.3   164  ARG164      0.2205
     39  NE         7.8350   40.9620  -34.4780 N.pl3 164  ARG164     -0.0865
     40  CZ         6.5400   40.6740  -34.5670 C.cat 164  ARG164      0.5346
     41  NH1        6.0200   39.6770  -33.8640 N.pl3 164  ARG164      0.1354
     42  NH2        5.7540   41.3840  -35.3700 N.pl3 164  ARG164      0.1354
     43  N         13.1990   42.1660  -32.3110 N.am  165  GLN165     -0.1966
     44  CA        14.1380   41.7840  -31.2550 C.3   165  GLN165      0.1733
     45  C         13.8220   40.3780  -30.7500 C.2   165  GLN165      0.2617
     46  O         12.6570   39.9680  -30.7400 O.2   165  GLN165     -0.2715
     47  CB        14.1090   42.7860  -30.0820 C.3   165  GLN165      0.0408
     48  CG        14.6050   44.2000  -30.4150 C.3   165  GLN165      0.0908
     49  CD        16.0440   44.2740  -30.8810 C.2   165  GLN165      0.2608
     50  OE1       16.9400   43.5810  -30.3790 O.2   165  GLN165     -0.2717
     51  NE2       16.2980   45.1460  -31.8430 N.am  165  GLN165     -0.0878
     52  N         14.8670   39.6590  -30.3490 N.am  166  GLY166     -0.1940
     53  CA        14.7670   38.2960  -29.8430 C.3   166  GLY166      0.2014
     54  C         14.5050   37.2690  -30.9230 C.2   166  GLY166      0.2639
     55  O         13.7770   36.3050  -30.6850 O.2   166  GLY166     -0.2714
     56  N         15.0820   37.4760  -32.1160 N.am  167  CYS167     -0.1953
     57  CA        14.9600   36.5670  -33.2490 C.3   167  CYS167      0.1843
     58  C         16.3410   36.3020  -33.8350 C.2   167  CYS167      0.2625
     59  O         17.0850   37.2500  -34.1210 O.2   167  CYS167     -0.2714
     60  CB        14.0020   37.1110  -34.3060 C.3   167  CYS167      0.0997
     61  SG        12.2610   37.1160  -33.8050 S.3   167  CYS167     -0.0797
     62  N         16.7160   35.0210  -33.9800 N.am  168  ILE168     -0.1977
     63  CA        17.9940   34.6000  -34.5550 C.3   168  ILE168      0.1596
     64  C         17.8220   34.6030  -36.0730 C.2   168  ILE168      0.2287
     65  O         16.9820   33.8620  -36.5840 O.2   168  ILE168     -0.2864
     66  CB        18.4440   33.2250  -33.9830 C.3   168  ILE168      0.0276
     67  CG1       18.8050   33.3400  -32.4910 C.3   168  ILE168      0.0022
     68  CG2       19.6250   32.6410  -34.7760 C.3   168  ILE168      0.0022
     69  CD1       17.8940   32.5960  -31.5790 C.3   168  ILE168      0.0001
     70  N         14.4540   32.4890  -35.9770 N.3   185  ASN185     -0.1225
     71  CA        14.2960   31.2780  -35.1580 C.3   185  ASN185      0.1785
     72  C         13.9470   30.0790  -36.0960 C.2   185  ASN185      0.2597
     73  O         14.6680   29.8920  -37.0790 O.2   185  ASN185     -0.2718
     74  CB        13.2890   31.4920  -33.9880 C.3   185  ASN185      0.1169
     75  CG        13.8700   32.3010  -32.8460 C.2   185  ASN185      0.2627
     76  OD1       14.8450   33.0520  -33.0260 O.2   185  ASN185     -0.2716
     77  ND2       13.2810   32.1680  -31.6410 N.am  185  ASN185     -0.0877
     78  N         12.8670   29.3120  -35.8350 N.am  186  TRP186     -0.1976
     79  CA        12.5030   28.1730  -36.6780 C.3   186  TRP186      0.1640
     80  C         11.7430   28.5910  -37.9600 C.2   186  TRP186      0.2290
     81  O         11.6120   27.7810  -38.8750 O.2   186  TRP186     -0.2864
     82  CB        11.6780   27.1540  -35.8640 C.3   186  TRP186      0.0576
     83  CG        10.3860   27.6870  -35.3110 C.ar  186  TRP186      0.0006
     84  CD1       10.1760   28.2470  -34.0840 C.ar  186  TRP186      0.0946
     85  CD2        9.1130   27.6650  -35.9650 C.ar  186  TRP186      0.0152
     86  NE1        8.8440   28.5850  -33.9370 N.ar  186  TRP186     -0.2442
     87  CE2        8.1690   28.2330  -35.0780 C.ar  186  TRP186      0.0810
     88  CE3        8.6750   27.2180  -37.2190 C.ar  186  TRP186      0.0012
     89  CZ2        6.8190   28.3930  -35.4240 C.ar  186  TRP186      0.0191
     90  CZ3        7.3460   27.3880  -37.5620 C.ar  186  TRP186      0.0001
     91  CH2        6.4340   27.9650  -36.6760 C.ar  186  TRP186      0.0015
@<TRIPOS>BOND
     1    81    80    2
     2    29    28    2
     3    80    79    1
     4    90    88   ar
     5    90    91   ar
     6    28    27    1
     7    88    85   ar
     8    73    72    2
     9    22    21    2
    10    79    82    1
    11    79    78    1
    12    91    89   ar
    13    65    64    2
    14    72    78   am
    15    72    71    1
    16    64    63    1
    17    27    30    1
    18    27    26    1
    19    70    71    1
    20    85    83   ar
    21    85    87   ar
    22    30    31    1
    23    82    83    1
    24    21    26   am
    25    21    20    1
    26    32    33    1
    27    19    20    1
    28    89    87   ar
    29    42    40    1
    30    83    84   ar
    31    13    12    2
    32    71    74    1
    33    87    86   ar
    34    20    23    1
    35    68    66    1
    36    12    11    1
    37    23    24    1
    38    23    25    1
    39    36    33    1
    40    36    37    1
    41    40    39    2
    42    40    41    1
    43    63    66    1
    44    63    62    1
    45    33    34    1
    46    39    38    1
    47    60    61    1
    48    60    57    1
    49    31    61    1
    50    59    58    2
    51    84    86   ar
    52    10    11    1
    53    74    75    1
    54    66    67    1
    55    62    58   am
    56    35    34    2
    57    58    57    1
    58    38    37    1
    59    11    14    1
    60    34    43   am
    61    57    56    1
    62    76    75    2
    63     4     3    2
    64    75    77   am
    65     1     2    1
    66    67    69    1
    67    14    15    1
    68    43    44    1
    69     2     3    1
    70     2     5    1
    71    56    54   am
    72    51    49   am
    73    15    16    1
    74    44    45    1
    75    44    47    1
    76     5     6    1
    77    54    55    2
    78    54    53    1
    79    16    18   am
    80    16    17    2
    81    49    48    1
    82    49    50    2
    83     6     7    1
    84    45    46    2
    85    45    52   am
    86     9     7   ar
    87    48    47    1
    88    52    53    1
    89     7     8   ar
